MODEL 1
REMARK VINA RESULT:      -6.3      0.000      0.000
REMARK  Name = NuBBE_167
REMARK  18 active torsions:
REMARK  status: ('A' for Active; 'I' for Inactive)
REMARK    1  A    between atoms: C_1  and  C_2
REMARK    2  A    between atoms: C_4  and  O_6
REMARK    3  A    between atoms: O_6  and  C_7
REMARK    4  A    between atoms: C_7  and  C_8
REMARK    5  A    between atoms: C_12  and  C_14
REMARK    6  A    between atoms: C_14  and  C_15
REMARK    7  A    between atoms: C_15  and  C_16
REMARK    8  A    between atoms: C_16  and  C_17
REMARK    9  A    between atoms: C_17  and  C_18
REMARK   10  A    between atoms: C_18  and  C_19
REMARK   11  A    between atoms: C_19  and  C_20
REMARK   12  A    between atoms: C_20  and  C_21
REMARK   13  A    between atoms: C_21  and  C_22
REMARK   14  A    between atoms: C_22  and  C_23
REMARK   15  A    between atoms: C_23  and  C_24
REMARK   16  A    between atoms: C_24  and  C_25
REMARK   17  A    between atoms: C_25  and  C_26
REMARK   18  A    between atoms: C_26  and  C_27
REMARK                            x       y       z     vdW  Elec       q    Type
REMARK                         _______ _______ _______ _____ _____    ______ ____
ROOT
ATOM      1  C   LIG A   1      -8.658  -4.058 127.674  0.00  0.00    +0.002 C 
ENDROOT
BRANCH   1   2
ATOM      2  C   LIG A   1      -9.245  -3.262 126.451  0.00  0.00    +0.019 C 
BRANCH   2   8
ATOM      3  C   LIG A   1      -4.984  -2.809 123.913  0.00  0.00    +0.028 C 
ATOM      4  C   LIG A   1      -6.493  -2.967 123.701  0.00  0.00    +0.092 C 
ATOM      5  C   LIG A   1      -7.139  -1.766 122.973  0.00  0.00    +0.193 C 
ATOM      6  C   LIG A   1      -8.600  -2.148 122.651  0.00  0.00    +0.048 C 
ATOM      7  C   LIG A   1      -9.317  -3.072 123.699  0.00  0.00    +0.022 C 
ATOM      8  C   LIG A   1      -8.547  -3.514 125.014  0.00  0.00    +0.054 C 
ATOM      9  N   LIG A   1      -7.098  -3.234 125.021  0.00  0.00    -0.307 NA
ATOM     10  H   LIG A   1      -6.892  -2.465 125.662  0.00  0.00    +0.123 HD
BRANCH   5  11
ATOM     11  O   LIG A   1      -6.876  -0.519 123.656  0.00  0.00    -0.460 OA
BRANCH  11  12
ATOM     12  C   LIG A   1      -7.794   0.307 124.103  0.00  0.00    +0.304 C 
ATOM     13  C   LIG A   1      -8.219   0.210 125.490  0.00  0.00    +0.136 C 
ATOM     14  O   LIG A   1      -8.362   1.194 123.334  0.00  0.00    -0.251 OA
ENDBRANCH  11  12
ENDBRANCH   5  11
ENDBRANCH   2   8
ENDBRANCH   1   2
BRANCH   1  15
ATOM     15  C   LIG A   1      -8.639  -3.359 129.047  0.00  0.00    +0.000 C 
BRANCH  15  16
ATOM     16  C   LIG A   1      -7.855  -2.030 129.260  0.00  0.00    -0.000 C 
BRANCH  16  17
ATOM     17  C   LIG A   1      -6.522  -1.576 128.488  0.00  0.00    -0.000 C 
BRANCH  17  18
ATOM     18  C   LIG A   1      -5.083  -1.246 129.132  0.00  0.00    -0.000 C 
BRANCH  18  19
ATOM     19  C   LIG A   1      -3.980  -2.548 129.164  0.00  0.00    -0.000 C 
BRANCH  19  20
ATOM     20  C   LIG A   1      -4.241  -4.057 129.876  0.00  0.00    -0.000 C 
BRANCH  20  21
ATOM     21  C   LIG A   1      -5.570  -4.511 130.765  0.00  0.00    +0.000 C 
BRANCH  21  22
ATOM     22  C   LIG A   1      -5.404  -5.182 132.161  0.00  0.00    +0.000 C 
BRANCH  22  23
ATOM     23  C   LIG A   1      -6.004  -4.181 133.097  0.00  0.00    +0.007 C 
BRANCH  23  24
ATOM     24  C   LIG A   1      -6.258  -2.803 132.562  0.00  0.00    +0.074 C 
BRANCH  24  25
ATOM     25  C   LIG A   1      -7.573  -2.356 133.169  0.00  0.00    +0.130 C 
ATOM     26  C   LIG A   1      -8.283  -3.358 134.010  0.00  0.00    +0.086 C 
ATOM     27  O   LIG A   1      -8.029  -1.219 133.036  0.00  0.00    -0.298 OA
ENDBRANCH  24  25
ENDBRANCH  23  24
ENDBRANCH  22  23
ENDBRANCH  21  22
ENDBRANCH  20  21
ENDBRANCH  19  20
ENDBRANCH  18  19
ENDBRANCH  17  18
ENDBRANCH  16  17
ENDBRANCH  15  16
ENDBRANCH   1  15
TORSDOF 15
ENDMDL
MODEL 2
REMARK VINA RESULT:      -6.3      5.323      6.786
REMARK  Name = NuBBE_167
REMARK  18 active torsions:
REMARK  status: ('A' for Active; 'I' for Inactive)
REMARK    1  A    between atoms: C_1  and  C_2
REMARK    2  A    between atoms: C_4  and  O_6
REMARK    3  A    between atoms: O_6  and  C_7
REMARK    4  A    between atoms: C_7  and  C_8
REMARK    5  A    between atoms: C_12  and  C_14
REMARK    6  A    between atoms: C_14  and  C_15
REMARK    7  A    between atoms: C_15  and  C_16
REMARK    8  A    between atoms: C_16  and  C_17
REMARK    9  A    between atoms: C_17  and  C_18
REMARK   10  A    between atoms: C_18  and  C_19
REMARK   11  A    between atoms: C_19  and  C_20
REMARK   12  A    between atoms: C_20  and  C_21
REMARK   13  A    between atoms: C_21  and  C_22
REMARK   14  A    between atoms: C_22  and  C_23
REMARK   15  A    between atoms: C_23  and  C_24
REMARK   16  A    between atoms: C_24  and  C_25
REMARK   17  A    between atoms: C_25  and  C_26
REMARK   18  A    between atoms: C_26  and  C_27
REMARK                            x       y       z     vdW  Elec       q    Type
REMARK                         _______ _______ _______ _____ _____    ______ ____
ROOT
ATOM      1  C   LIG A   1      -7.025  -1.590 128.770  0.00  0.00    +0.002 C 
ENDROOT
BRANCH   1   2
ATOM      2  C   LIG A   1      -7.850  -1.396 127.445  0.00  0.00    +0.019 C 
BRANCH   2   8
ATOM      3  C   LIG A   1      -5.554  -2.702 123.223  0.00  0.00    +0.028 C 
ATOM      4  C   LIG A   1      -6.796  -3.023 124.060  0.00  0.00    +0.092 C 
ATOM      5  C   LIG A   1      -8.123  -2.716 123.327  0.00  0.00    +0.193 C 
ATOM      6  C   LIG A   1      -9.273  -3.271 124.196  0.00  0.00    +0.048 C 
ATOM      7  C   LIG A   1      -9.053  -3.210 125.750  0.00  0.00    +0.022 C 
ATOM      8  C   LIG A   1      -7.727  -2.561 126.331  0.00  0.00    +0.054 C 
ATOM      9  N   LIG A   1      -6.664  -2.302 125.341  0.00  0.00    -0.307 NA
ATOM     10  H   LIG A   1      -6.582  -1.298 125.170  0.00  0.00    +0.123 HD
BRANCH   5  11
ATOM     11  O   LIG A   1      -8.184  -1.342 122.880  0.00  0.00    -0.460 OA
BRANCH  11  12
ATOM     12  C   LIG A   1      -9.149  -0.497 123.162  0.00  0.00    +0.304 C 
ATOM     13  C   LIG A   1      -9.005   0.384 124.310  0.00  0.00    +0.136 C 
ATOM     14  O   LIG A   1     -10.249  -0.443 122.464  0.00  0.00    -0.251 OA
ENDBRANCH  11  12
ENDBRANCH   5  11
ENDBRANCH   2   8
ENDBRANCH   1   2
BRANCH   1  15
ATOM     15  C   LIG A   1      -7.744  -1.344 130.110  0.00  0.00    +0.000 C 
BRANCH  15  16
ATOM     16  C   LIG A   1      -8.178   0.090 130.537  0.00  0.00    -0.000 C 
BRANCH  16  17
ATOM     17  C   LIG A   1      -9.045   0.478 131.833  0.00  0.00    -0.000 C 
BRANCH  17  18
ATOM     18  C   LIG A   1      -9.905   1.819 132.068  0.00  0.00    -0.000 C 
BRANCH  18  19
ATOM     19  C   LIG A   1      -9.247   2.923 133.191  0.00  0.00    -0.000 C 
BRANCH  19  20
ATOM     20  C   LIG A   1      -8.204   4.204 132.835  0.00  0.00    -0.000 C 
BRANCH  20  21
ATOM     21  C   LIG A   1      -8.598   5.818 132.818  0.00  0.00    +0.000 C 
BRANCH  21  22
ATOM     22  C   LIG A   1      -9.292   6.456 131.578  0.00  0.00    +0.000 C 
BRANCH  22  23
ATOM     23  C   LIG A   1     -10.710   5.996 131.704  0.00  0.00    +0.007 C 
BRANCH  23  24
ATOM     24  C   LIG A   1     -11.576   6.085 130.482  0.00  0.00    +0.074 C 
BRANCH  24  25
ATOM     25  C   LIG A   1     -12.522   7.243 130.725  0.00  0.00    +0.130 C 
ATOM     26  C   LIG A   1     -12.485   8.344 129.723  0.00  0.00    +0.086 C 
ATOM     27  O   LIG A   1     -13.325   7.278 131.659  0.00  0.00    -0.298 OA
ENDBRANCH  24  25
ENDBRANCH  23  24
ENDBRANCH  22  23
ENDBRANCH  21  22
ENDBRANCH  20  21
ENDBRANCH  19  20
ENDBRANCH  18  19
ENDBRANCH  17  18
ENDBRANCH  16  17
ENDBRANCH  15  16
ENDBRANCH   1  15
TORSDOF 15
ENDMDL
MODEL 3
REMARK VINA RESULT:      -6.3      1.834      2.515
REMARK  Name = NuBBE_167
REMARK  18 active torsions:
REMARK  status: ('A' for Active; 'I' for Inactive)
REMARK    1  A    between atoms: C_1  and  C_2
REMARK    2  A    between atoms: C_4  and  O_6
REMARK    3  A    between atoms: O_6  and  C_7
REMARK    4  A    between atoms: C_7  and  C_8
REMARK    5  A    between atoms: C_12  and  C_14
REMARK    6  A    between atoms: C_14  and  C_15
REMARK    7  A    between atoms: C_15  and  C_16
REMARK    8  A    between atoms: C_16  and  C_17
REMARK    9  A    between atoms: C_17  and  C_18
REMARK   10  A    between atoms: C_18  and  C_19
REMARK   11  A    between atoms: C_19  and  C_20
REMARK   12  A    between atoms: C_20  and  C_21
REMARK   13  A    between atoms: C_21  and  C_22
REMARK   14  A    between atoms: C_22  and  C_23
REMARK   15  A    between atoms: C_23  and  C_24
REMARK   16  A    between atoms: C_24  and  C_25
REMARK   17  A    between atoms: C_25  and  C_26
REMARK   18  A    between atoms: C_26  and  C_27
REMARK                            x       y       z     vdW  Elec       q    Type
REMARK                         _______ _______ _______ _____ _____    ______ ____
ROOT
ATOM      1  C   LIG A   1      -8.666  -3.689 127.571  0.00  0.00    +0.002 C 
ENDROOT
BRANCH   1   2
ATOM      2  C   LIG A   1      -9.355  -3.133 126.271  0.00  0.00    +0.019 C 
BRANCH   2   8
ATOM      3  C   LIG A   1      -4.970  -2.930 123.920  0.00  0.00    +0.028 C 
ATOM      4  C   LIG A   1      -6.475  -3.006 123.643  0.00  0.00    +0.092 C 
ATOM      5  C   LIG A   1      -7.020  -1.774 122.884  0.00  0.00    +0.193 C 
ATOM      6  C   LIG A   1      -8.485  -2.075 122.500  0.00  0.00    +0.048 C 
ATOM      7  C   LIG A   1      -9.297  -2.952 123.519  0.00  0.00    +0.022 C 
ATOM      8  C   LIG A   1      -8.610  -3.430 124.867  0.00  0.00    +0.054 C 
ATOM      9  N   LIG A   1      -7.150  -3.232 124.936  0.00  0.00    -0.307 NA
ATOM     10  H   LIG A   1      -6.929  -2.472 125.583  0.00  0.00    +0.123 HD
BRANCH   5  11
ATOM     11  O   LIG A   1      -6.717  -0.540 123.575  0.00  0.00    -0.460 OA
BRANCH  11  12
ATOM     12  C   LIG A   1      -7.605   0.346 123.966  0.00  0.00    +0.304 C 
ATOM     13  C   LIG A   1      -8.103   0.295 125.330  0.00  0.00    +0.136 C 
ATOM     14  O   LIG A   1      -8.080   1.253 123.159  0.00  0.00    -0.251 OA
ENDBRANCH  11  12
ENDBRANCH   5  11
ENDBRANCH   2   8
ENDBRANCH   1   2
BRANCH   1  15
ATOM     15  C   LIG A   1      -7.814  -2.716 128.409  0.00  0.00    +0.000 C 
BRANCH  15  16
ATOM     16  C   LIG A   1      -7.794  -2.801 129.964  0.00  0.00    -0.000 C 
BRANCH  16  17
ATOM     17  C   LIG A   1      -6.630  -3.440 130.869  0.00  0.00    -0.000 C 
BRANCH  17  18
ATOM     18  C   LIG A   1      -5.494  -4.483 130.407  0.00  0.00    -0.000 C 
BRANCH  18  19
ATOM     19  C   LIG A   1      -4.183  -3.805 129.549  0.00  0.00    -0.000 C 
BRANCH  19  20
ATOM     20  C   LIG A   1      -3.275  -2.460 130.018  0.00  0.00    -0.000 C 
BRANCH  20  21
ATOM     21  C   LIG A   1      -3.867  -1.047 130.662  0.00  0.00    +0.000 C 
BRANCH  21  22
ATOM     22  C   LIG A   1      -3.805  -0.783 132.196  0.00  0.00    +0.000 C 
BRANCH  22  23
ATOM     23  C   LIG A   1      -3.241  -2.058 132.741  0.00  0.00    +0.007 C 
BRANCH  23  24
ATOM     24  C   LIG A   1      -4.146  -2.908 133.584  0.00  0.00    +0.074 C 
BRANCH  24  25
ATOM     25  C   LIG A   1      -3.608  -4.321 133.479  0.00  0.00    +0.130 C 
ATOM     26  C   LIG A   1      -4.520  -5.406 133.931  0.00  0.00    +0.086 C 
ATOM     27  O   LIG A   1      -2.503  -4.591 133.004  0.00  0.00    -0.298 OA
ENDBRANCH  24  25
ENDBRANCH  23  24
ENDBRANCH  22  23
ENDBRANCH  21  22
ENDBRANCH  20  21
ENDBRANCH  19  20
ENDBRANCH  18  19
ENDBRANCH  17  18
ENDBRANCH  16  17
ENDBRANCH  15  16
ENDBRANCH   1  15
TORSDOF 15
ENDMDL
MODEL 4
REMARK VINA RESULT:      -6.2      1.516      2.474
REMARK  Name = NuBBE_167
REMARK  18 active torsions:
REMARK  status: ('A' for Active; 'I' for Inactive)
REMARK    1  A    between atoms: C_1  and  C_2
REMARK    2  A    between atoms: C_4  and  O_6
REMARK    3  A    between atoms: O_6  and  C_7
REMARK    4  A    between atoms: C_7  and  C_8
REMARK    5  A    between atoms: C_12  and  C_14
REMARK    6  A    between atoms: C_14  and  C_15
REMARK    7  A    between atoms: C_15  and  C_16
REMARK    8  A    between atoms: C_16  and  C_17
REMARK    9  A    between atoms: C_17  and  C_18
REMARK   10  A    between atoms: C_18  and  C_19
REMARK   11  A    between atoms: C_19  and  C_20
REMARK   12  A    between atoms: C_20  and  C_21
REMARK   13  A    between atoms: C_21  and  C_22
REMARK   14  A    between atoms: C_22  and  C_23
REMARK   15  A    between atoms: C_23  and  C_24
REMARK   16  A    between atoms: C_24  and  C_25
REMARK   17  A    between atoms: C_25  and  C_26
REMARK   18  A    between atoms: C_26  and  C_27
REMARK                            x       y       z     vdW  Elec       q    Type
REMARK                         _______ _______ _______ _____ _____    ______ ____
ROOT
ATOM      1  C   LIG A   1      -8.579  -3.753 127.811  0.00  0.00    +0.002 C 
ENDROOT
BRANCH   1   2
ATOM      2  C   LIG A   1      -9.223  -3.104 126.530  0.00  0.00    +0.019 C 
BRANCH   2   8
ATOM      3  C   LIG A   1      -4.995  -2.827 123.913  0.00  0.00    +0.028 C 
ATOM      4  C   LIG A   1      -6.506  -3.009 123.733  0.00  0.00    +0.092 C 
ATOM      5  C   LIG A   1      -7.167  -1.871 122.922  0.00  0.00    +0.193 C 
ATOM      6  C   LIG A   1      -8.630  -2.284 122.648  0.00  0.00    +0.048 C 
ATOM      7  C   LIG A   1      -9.329  -3.128 123.774  0.00  0.00    +0.022 C 
ATOM      8  C   LIG A   1      -8.540  -3.463 125.109  0.00  0.00    +0.054 C 
ATOM      9  N   LIG A   1      -7.093  -3.176 125.077  0.00  0.00    -0.307 NA
ATOM     10  H   LIG A   1      -6.885  -2.359 125.653  0.00  0.00    +0.123 HD
BRANCH   5  11
ATOM     11  O   LIG A   1      -6.903  -0.573 123.503  0.00  0.00    -0.460 OA
BRANCH  11  12
ATOM     12  C   LIG A   1      -7.785   0.163 124.139  0.00  0.00    +0.304 C 
ATOM     13  C   LIG A   1      -8.423   1.266 123.439  0.00  0.00    +0.136 C 
ATOM     14  O   LIG A   1      -8.084  -0.041 125.392  0.00  0.00    -0.251 OA
ENDBRANCH  11  12
ENDBRANCH   5  11
ENDBRANCH   2   8
ENDBRANCH   1   2
BRANCH   1  15
ATOM     15  C   LIG A   1      -7.753  -2.843 128.742  0.00  0.00    +0.000 C 
BRANCH  15  16
ATOM     16  C   LIG A   1      -7.697  -3.105 130.276  0.00  0.00    -0.000 C 
BRANCH  16  17
ATOM     17  C   LIG A   1      -6.438  -3.664 131.103  0.00  0.00    -0.000 C 
BRANCH  17  18
ATOM     18  C   LIG A   1      -5.234  -4.579 130.550  0.00  0.00    -0.000 C 
BRANCH  18  19
ATOM     19  C   LIG A   1      -4.110  -3.780 129.545  0.00  0.00    -0.000 C 
BRANCH  19  20
ATOM     20  C   LIG A   1      -3.314  -2.332 129.895  0.00  0.00    -0.000 C 
BRANCH  20  21
ATOM     21  C   LIG A   1      -3.982  -0.987 130.608  0.00  0.00    +0.000 C 
BRANCH  21  22
ATOM     22  C   LIG A   1      -5.151  -0.219 129.922  0.00  0.00    +0.000 C 
BRANCH  22  23
ATOM     23  C   LIG A   1      -5.720   0.604 131.035  0.00  0.00    +0.007 C 
BRANCH  23  24
ATOM     24  C   LIG A   1      -6.382  -0.128 132.165  0.00  0.00    +0.074 C 
BRANCH  24  25
ATOM     25  C   LIG A   1      -7.694   0.589 132.415  0.00  0.00    +0.130 C 
ATOM     26  C   LIG A   1      -8.843   0.174 131.565  0.00  0.00    +0.086 C 
ATOM     27  O   LIG A   1      -7.845   1.436 133.298  0.00  0.00    -0.298 OA
ENDBRANCH  24  25
ENDBRANCH  23  24
ENDBRANCH  22  23
ENDBRANCH  21  22
ENDBRANCH  20  21
ENDBRANCH  19  20
ENDBRANCH  18  19
ENDBRANCH  17  18
ENDBRANCH  16  17
ENDBRANCH  15  16
ENDBRANCH   1  15
TORSDOF 15
ENDMDL
MODEL 5
REMARK VINA RESULT:      -6.2      5.726      8.709
REMARK  Name = NuBBE_167
REMARK  18 active torsions:
REMARK  status: ('A' for Active; 'I' for Inactive)
REMARK    1  A    between atoms: C_1  and  C_2
REMARK    2  A    between atoms: C_4  and  O_6
REMARK    3  A    between atoms: O_6  and  C_7
REMARK    4  A    between atoms: C_7  and  C_8
REMARK    5  A    between atoms: C_12  and  C_14
REMARK    6  A    between atoms: C_14  and  C_15
REMARK    7  A    between atoms: C_15  and  C_16
REMARK    8  A    between atoms: C_16  and  C_17
REMARK    9  A    between atoms: C_17  and  C_18
REMARK   10  A    between atoms: C_18  and  C_19
REMARK   11  A    between atoms: C_19  and  C_20
REMARK   12  A    between atoms: C_20  and  C_21
REMARK   13  A    between atoms: C_21  and  C_22
REMARK   14  A    between atoms: C_22  and  C_23
REMARK   15  A    between atoms: C_23  and  C_24
REMARK   16  A    between atoms: C_24  and  C_25
REMARK   17  A    between atoms: C_25  and  C_26
REMARK   18  A    between atoms: C_26  and  C_27
REMARK                            x       y       z     vdW  Elec       q    Type
REMARK                         _______ _______ _______ _____ _____    ______ ____
ROOT
ATOM      1  C   LIG A   1      -8.395   2.709 133.201  0.00  0.00    +0.002 C 
ENDROOT
BRANCH   1   2
ATOM      2  C   LIG A   1      -8.933   3.902 134.075  0.00  0.00    +0.019 C 
BRANCH   2   8
ATOM      3  C   LIG A   1     -11.873   6.425 130.945  0.00  0.00    +0.028 C 
ATOM      4  C   LIG A   1     -10.451   6.424 131.514  0.00  0.00    +0.092 C 
ATOM      5  C   LIG A   1      -9.361   6.217 130.438  0.00  0.00    +0.193 C 
ATOM      6  C   LIG A   1      -7.990   6.440 131.114  0.00  0.00    +0.048 C 
ATOM      7  C   LIG A   1      -7.884   5.996 132.617  0.00  0.00    +0.022 C 
ATOM      8  C   LIG A   1      -9.133   5.321 133.328  0.00  0.00    +0.054 C 
ATOM      9  N   LIG A   1     -10.405   5.408 132.585  0.00  0.00    -0.307 NA
ATOM     10  H   LIG A   1     -10.653   4.492 132.208  0.00  0.00    +0.123 HD
BRANCH   5  11
ATOM     11  O   LIG A   1      -9.578   5.004 129.679  0.00  0.00    -0.460 OA
BRANCH  11  12
ATOM     12  C   LIG A   1      -8.755   4.518 128.779  0.00  0.00    +0.304 C 
ATOM     13  C   LIG A   1      -7.976   3.333 129.098  0.00  0.00    +0.136 C 
ATOM     14  O   LIG A   1      -8.588   5.083 127.615  0.00  0.00    -0.251 OA
ENDBRANCH  11  12
ENDBRANCH   5  11
ENDBRANCH   2   8
ENDBRANCH   1   2
BRANCH   1  15
ATOM     15  C   LIG A   1      -9.359   2.070 132.182  0.00  0.00    +0.000 C 
BRANCH  15  16
ATOM     16  C   LIG A   1      -9.357   0.533 131.931  0.00  0.00    -0.000 C 
BRANCH  16  17
ATOM     17  C   LIG A   1      -8.147  -0.333 131.324  0.00  0.00    -0.000 C 
BRANCH  17  18
ATOM     18  C   LIG A   1      -7.590  -1.746 131.860  0.00  0.00    -0.000 C 
BRANCH  18  19
ATOM     19  C   LIG A   1      -6.696  -2.657 130.727  0.00  0.00    -0.000 C 
BRANCH  19  20
ATOM     20  C   LIG A   1      -7.301  -3.367 129.320  0.00  0.00    -0.000 C 
BRANCH  20  21
ATOM     21  C   LIG A   1      -8.311  -2.651 128.210  0.00  0.00    +0.000 C 
BRANCH  21  22
ATOM     22  C   LIG A   1      -7.884  -1.351 127.466  0.00  0.00    +0.000 C 
BRANCH  22  23
ATOM     23  C   LIG A   1      -8.568  -1.474 126.141  0.00  0.00    +0.007 C 
BRANCH  23  24
ATOM     24  C   LIG A   1      -9.440  -2.675 125.924  0.00  0.00    +0.074 C 
BRANCH  24  25
ATOM     25  C   LIG A   1      -9.056  -3.229 124.566  0.00  0.00    +0.130 C 
ATOM     26  C   LIG A   1      -7.698  -3.827 124.460  0.00  0.00    +0.086 C 
ATOM     27  O   LIG A   1      -9.821  -3.244 123.600  0.00  0.00    -0.298 OA
ENDBRANCH  24  25
ENDBRANCH  23  24
ENDBRANCH  22  23
ENDBRANCH  21  22
ENDBRANCH  20  21
ENDBRANCH  19  20
ENDBRANCH  18  19
ENDBRANCH  17  18
ENDBRANCH  16  17
ENDBRANCH  15  16
ENDBRANCH   1  15
TORSDOF 15
ENDMDL
MODEL 6
REMARK VINA RESULT:      -6.1      3.762      5.626
REMARK  Name = NuBBE_167
REMARK  18 active torsions:
REMARK  status: ('A' for Active; 'I' for Inactive)
REMARK    1  A    between atoms: C_1  and  C_2
REMARK    2  A    between atoms: C_4  and  O_6
REMARK    3  A    between atoms: O_6  and  C_7
REMARK    4  A    between atoms: C_7  and  C_8
REMARK    5  A    between atoms: C_12  and  C_14
REMARK    6  A    between atoms: C_14  and  C_15
REMARK    7  A    between atoms: C_15  and  C_16
REMARK    8  A    between atoms: C_16  and  C_17
REMARK    9  A    between atoms: C_17  and  C_18
REMARK   10  A    between atoms: C_18  and  C_19
REMARK   11  A    between atoms: C_19  and  C_20
REMARK   12  A    between atoms: C_20  and  C_21
REMARK   13  A    between atoms: C_21  and  C_22
REMARK   14  A    between atoms: C_22  and  C_23
REMARK   15  A    between atoms: C_23  and  C_24
REMARK   16  A    between atoms: C_24  and  C_25
REMARK   17  A    between atoms: C_25  and  C_26
REMARK   18  A    between atoms: C_26  and  C_27
REMARK                            x       y       z     vdW  Elec       q    Type
REMARK                         _______ _______ _______ _____ _____    ______ ____
ROOT
ATOM      1  C   LIG A   1      -8.717  -3.831 127.745  0.00  0.00    +0.002 C 
ENDROOT
BRANCH   1   2
ATOM      2  C   LIG A   1      -9.184  -2.992 126.498  0.00  0.00    +0.019 C 
BRANCH   2   8
ATOM      3  C   LIG A   1      -4.937  -2.857 123.901  0.00  0.00    +0.028 C 
ATOM      4  C   LIG A   1      -6.452  -2.977 123.713  0.00  0.00    +0.092 C 
ATOM      5  C   LIG A   1      -7.065  -1.806 122.910  0.00  0.00    +0.193 C 
ATOM      6  C   LIG A   1      -8.541  -2.158 122.626  0.00  0.00    +0.048 C 
ATOM      7  C   LIG A   1      -9.278  -2.984 123.741  0.00  0.00    +0.022 C 
ATOM      8  C   LIG A   1      -8.509  -3.363 125.076  0.00  0.00    +0.054 C 
ATOM      9  N   LIG A   1      -7.052  -3.134 125.053  0.00  0.00    -0.307 NA
ATOM     10  H   LIG A   1      -6.814  -2.331 125.638  0.00  0.00    +0.123 HD
BRANCH   5  11
ATOM     11  O   LIG A   1      -6.752  -0.525 123.505  0.00  0.00    -0.460 OA
BRANCH  11  12
ATOM     12  C   LIG A   1      -7.637   0.360 123.902  0.00  0.00    +0.304 C 
ATOM     13  C   LIG A   1      -8.069   0.358 125.290  0.00  0.00    +0.136 C 
ATOM     14  O   LIG A   1      -8.168   1.224 123.082  0.00  0.00    -0.251 OA
ENDBRANCH  11  12
ENDBRANCH   5  11
ENDBRANCH   2   8
ENDBRANCH   1   2
BRANCH   1  15
ATOM     15  C   LIG A   1      -7.597  -3.246 128.628  0.00  0.00    +0.000 C 
BRANCH  15  16
ATOM     16  C   LIG A   1      -7.930  -2.449 129.924  0.00  0.00    -0.000 C 
BRANCH  16  17
ATOM     17  C   LIG A   1      -7.871  -0.853 130.103  0.00  0.00    -0.000 C 
BRANCH  17  18
ATOM     18  C   LIG A   1      -7.479   0.242 128.989  0.00  0.00    -0.000 C 
BRANCH  18  19
ATOM     19  C   LIG A   1      -5.849   0.222 128.486  0.00  0.00    -0.000 C 
BRANCH  19  20
ATOM     20  C   LIG A   1      -5.102   1.356 127.481  0.00  0.00    -0.000 C 
BRANCH  20  21
ATOM     21  C   LIG A   1      -4.084   2.579 127.961  0.00  0.00    +0.000 C 
BRANCH  21  22
ATOM     22  C   LIG A   1      -2.833   2.953 127.112  0.00  0.00    +0.000 C 
BRANCH  22  23
ATOM     23  C   LIG A   1      -2.581   4.381 127.483  0.00  0.00    +0.007 C 
BRANCH  23  24
ATOM     24  C   LIG A   1      -3.759   5.311 127.485  0.00  0.00    +0.074 C 
BRANCH  24  25
ATOM     25  C   LIG A   1      -3.377   6.466 128.388  0.00  0.00    +0.130 C 
ATOM     26  C   LIG A   1      -2.075   6.342 129.098  0.00  0.00    +0.086 C 
ATOM     27  O   LIG A   1      -4.058   7.486 128.509  0.00  0.00    -0.298 OA
ENDBRANCH  24  25
ENDBRANCH  23  24
ENDBRANCH  22  23
ENDBRANCH  21  22
ENDBRANCH  20  21
ENDBRANCH  19  20
ENDBRANCH  18  19
ENDBRANCH  17  18
ENDBRANCH  16  17
ENDBRANCH  15  16
ENDBRANCH   1  15
TORSDOF 15
ENDMDL
MODEL 7
REMARK VINA RESULT:      -6.1      1.492      2.139
REMARK  Name = NuBBE_167
REMARK  18 active torsions:
REMARK  status: ('A' for Active; 'I' for Inactive)
REMARK    1  A    between atoms: C_1  and  C_2
REMARK    2  A    between atoms: C_4  and  O_6
REMARK    3  A    between atoms: O_6  and  C_7
REMARK    4  A    between atoms: C_7  and  C_8
REMARK    5  A    between atoms: C_12  and  C_14
REMARK    6  A    between atoms: C_14  and  C_15
REMARK    7  A    between atoms: C_15  and  C_16
REMARK    8  A    between atoms: C_16  and  C_17
REMARK    9  A    between atoms: C_17  and  C_18
REMARK   10  A    between atoms: C_18  and  C_19
REMARK   11  A    between atoms: C_19  and  C_20
REMARK   12  A    between atoms: C_20  and  C_21
REMARK   13  A    between atoms: C_21  and  C_22
REMARK   14  A    between atoms: C_22  and  C_23
REMARK   15  A    between atoms: C_23  and  C_24
REMARK   16  A    between atoms: C_24  and  C_25
REMARK   17  A    between atoms: C_25  and  C_26
REMARK   18  A    between atoms: C_26  and  C_27
REMARK                            x       y       z     vdW  Elec       q    Type
REMARK                         _______ _______ _______ _____ _____    ______ ____
ROOT
ATOM      1  C   LIG A   1      -9.011  -4.032 127.563  0.00  0.00    +0.002 C 
ENDROOT
BRANCH   1   2
ATOM      2  C   LIG A   1      -9.308  -3.071 126.353  0.00  0.00    +0.019 C 
BRANCH   2   8
ATOM      3  C   LIG A   1      -4.930  -2.932 123.984  0.00  0.00    +0.028 C 
ATOM      4  C   LIG A   1      -6.435  -3.016 123.714  0.00  0.00    +0.092 C 
ATOM      5  C   LIG A   1      -6.984  -1.807 122.922  0.00  0.00    +0.193 C 
ATOM      6  C   LIG A   1      -8.450  -2.120 122.551  0.00  0.00    +0.048 C 
ATOM      7  C   LIG A   1      -9.258  -2.968 123.597  0.00  0.00    +0.022 C 
ATOM      8  C   LIG A   1      -8.567  -3.407 124.956  0.00  0.00    +0.054 C 
ATOM      9  N   LIG A   1      -7.106  -3.206 125.016  0.00  0.00    -0.307 NA
ATOM     10  H   LIG A   1      -6.885  -2.428 125.640  0.00  0.00    +0.123 HD
BRANCH   5  11
ATOM     11  O   LIG A   1      -6.680  -0.553 123.577  0.00  0.00    -0.460 OA
BRANCH  11  12
ATOM     12  C   LIG A   1      -7.571   0.314 123.999  0.00  0.00    +0.304 C 
ATOM     13  C   LIG A   1      -7.998   0.272 125.388  0.00  0.00    +0.136 C 
ATOM     14  O   LIG A   1      -8.111   1.196 123.204  0.00  0.00    -0.251 OA
ENDBRANCH  11  12
ENDBRANCH   5  11
ENDBRANCH   2   8
ENDBRANCH   1   2
BRANCH   1  15
ATOM     15  C   LIG A   1      -8.116  -3.503 128.701  0.00  0.00    +0.000 C 
BRANCH  15  16
ATOM     16  C   LIG A   1      -7.586  -2.039 128.690  0.00  0.00    -0.000 C 
BRANCH  16  17
ATOM     17  C   LIG A   1      -7.739  -0.960 129.871  0.00  0.00    -0.000 C 
BRANCH  17  18
ATOM     18  C   LIG A   1      -6.775   0.291 130.184  0.00  0.00    -0.000 C 
BRANCH  18  19
ATOM     19  C   LIG A   1      -5.310  -0.093 130.969  0.00  0.00    -0.000 C 
BRANCH  19  20
ATOM     20  C   LIG A   1      -3.993  -0.899 130.283  0.00  0.00    -0.000 C 
BRANCH  20  21
ATOM     21  C   LIG A   1      -4.052  -2.297 129.386  0.00  0.00    +0.000 C 
BRANCH  21  22
ATOM     22  C   LIG A   1      -3.884  -3.688 130.066  0.00  0.00    +0.000 C 
BRANCH  22  23
ATOM     23  C   LIG A   1      -5.109  -3.804 130.917  0.00  0.00    +0.007 C 
BRANCH  23  24
ATOM     24  C   LIG A   1      -5.493  -5.176 131.390  0.00  0.00    +0.074 C 
BRANCH  24  25
ATOM     25  C   LIG A   1      -5.293  -5.170 132.892  0.00  0.00    +0.130 C 
ATOM     26  C   LIG A   1      -3.887  -5.269 133.368  0.00  0.00    +0.086 C 
ATOM     27  O   LIG A   1      -6.217  -5.041 133.698  0.00  0.00    -0.298 OA
ENDBRANCH  24  25
ENDBRANCH  23  24
ENDBRANCH  22  23
ENDBRANCH  21  22
ENDBRANCH  20  21
ENDBRANCH  19  20
ENDBRANCH  18  19
ENDBRANCH  17  18
ENDBRANCH  16  17
ENDBRANCH  15  16
ENDBRANCH   1  15
TORSDOF 15
ENDMDL
MODEL 8
REMARK VINA RESULT:      -6.0      1.469      2.657
REMARK  Name = NuBBE_167
REMARK  18 active torsions:
REMARK  status: ('A' for Active; 'I' for Inactive)
REMARK    1  A    between atoms: C_1  and  C_2
REMARK    2  A    between atoms: C_4  and  O_6
REMARK    3  A    between atoms: O_6  and  C_7
REMARK    4  A    between atoms: C_7  and  C_8
REMARK    5  A    between atoms: C_12  and  C_14
REMARK    6  A    between atoms: C_14  and  C_15
REMARK    7  A    between atoms: C_15  and  C_16
REMARK    8  A    between atoms: C_16  and  C_17
REMARK    9  A    between atoms: C_17  and  C_18
REMARK   10  A    between atoms: C_18  and  C_19
REMARK   11  A    between atoms: C_19  and  C_20
REMARK   12  A    between atoms: C_20  and  C_21
REMARK   13  A    between atoms: C_21  and  C_22
REMARK   14  A    between atoms: C_22  and  C_23
REMARK   15  A    between atoms: C_23  and  C_24
REMARK   16  A    between atoms: C_24  and  C_25
REMARK   17  A    between atoms: C_25  and  C_26
REMARK   18  A    between atoms: C_26  and  C_27
REMARK                            x       y       z     vdW  Elec       q    Type
REMARK                         _______ _______ _______ _____ _____    ______ ____
ROOT
ATOM      1  C   LIG A   1      -8.856  -3.745 127.533  0.00  0.00    +0.002 C 
ENDROOT
BRANCH   1   2
ATOM      2  C   LIG A   1      -9.407  -3.079 126.218  0.00  0.00    +0.019 C 
BRANCH   2   8
ATOM      3  C   LIG A   1      -4.940  -3.111 124.016  0.00  0.00    +0.028 C 
ATOM      4  C   LIG A   1      -6.436  -3.119 123.689  0.00  0.00    +0.092 C 
ATOM      5  C   LIG A   1      -6.897  -1.872 122.900  0.00  0.00    +0.193 C 
ATOM      6  C   LIG A   1      -8.360  -2.109 122.468  0.00  0.00    +0.048 C 
ATOM      7  C   LIG A   1      -9.247  -2.934 123.468  0.00  0.00    +0.022 C 
ATOM      8  C   LIG A   1      -8.630  -3.428 124.844  0.00  0.00    +0.054 C 
ATOM      9  N   LIG A   1      -7.164  -3.297 124.961  0.00  0.00    -0.307 NA
ATOM     10  H   LIG A   1      -6.931  -2.541 125.607  0.00  0.00    +0.123 HD
BRANCH   5  11
ATOM     11  O   LIG A   1      -6.559  -0.645 123.587  0.00  0.00    -0.460 OA
BRANCH  11  12
ATOM     12  C   LIG A   1      -7.423   0.170 124.148  0.00  0.00    +0.304 C 
ATOM     13  C   LIG A   1      -7.788   1.398 123.461  0.00  0.00    +0.136 C 
ATOM     14  O   LIG A   1      -7.943  -0.071 125.320  0.00  0.00    -0.251 OA
ENDBRANCH  11  12
ENDBRANCH   5  11
ENDBRANCH   2   8
ENDBRANCH   1   2
BRANCH   1  15
ATOM     15  C   LIG A   1      -8.067  -2.856 128.515  0.00  0.00    +0.000 C 
BRANCH  15  16
ATOM     16  C   LIG A   1      -7.490  -3.439 129.839  0.00  0.00    -0.000 C 
BRANCH  16  17
ATOM     17  C   LIG A   1      -5.981  -3.930 130.086  0.00  0.00    -0.000 C 
BRANCH  17  18
ATOM     18  C   LIG A   1      -5.494  -5.198 130.951  0.00  0.00    -0.000 C 
BRANCH  18  19
ATOM     19  C   LIG A   1      -5.350  -4.927 132.630  0.00  0.00    -0.000 C 
BRANCH  19  20
ATOM     20  C   LIG A   1      -6.563  -4.351 133.654  0.00  0.00    -0.000 C 
BRANCH  20  21
ATOM     21  C   LIG A   1      -7.277  -2.851 133.589  0.00  0.00    +0.000 C 
BRANCH  21  22
ATOM     22  C   LIG A   1      -6.494  -1.576 134.022  0.00  0.00    +0.000 C 
BRANCH  22  23
ATOM     23  C   LIG A   1      -6.885  -0.565 132.990  0.00  0.00    +0.007 C 
BRANCH  23  24
ATOM     24  C   LIG A   1      -6.087  -0.531 131.720  0.00  0.00    +0.074 C 
BRANCH  24  25
ATOM     25  C   LIG A   1      -7.007   0.048 130.664  0.00  0.00    +0.130 C 
ATOM     26  C   LIG A   1      -8.460   0.047 130.988  0.00  0.00    +0.086 C 
ATOM     27  O   LIG A   1      -6.603   0.545 129.612  0.00  0.00    -0.298 OA
ENDBRANCH  24  25
ENDBRANCH  23  24
ENDBRANCH  22  23
ENDBRANCH  21  22
ENDBRANCH  20  21
ENDBRANCH  19  20
ENDBRANCH  18  19
ENDBRANCH  17  18
ENDBRANCH  16  17
ENDBRANCH  15  16
ENDBRANCH   1  15
TORSDOF 15
ENDMDL
MODEL 9
REMARK VINA RESULT:      -6.0      1.450      2.551
REMARK  Name = NuBBE_167
REMARK  18 active torsions:
REMARK  status: ('A' for Active; 'I' for Inactive)
REMARK    1  A    between atoms: C_1  and  C_2
REMARK    2  A    between atoms: C_4  and  O_6
REMARK    3  A    between atoms: O_6  and  C_7
REMARK    4  A    between atoms: C_7  and  C_8
REMARK    5  A    between atoms: C_12  and  C_14
REMARK    6  A    between atoms: C_14  and  C_15
REMARK    7  A    between atoms: C_15  and  C_16
REMARK    8  A    between atoms: C_16  and  C_17
REMARK    9  A    between atoms: C_17  and  C_18
REMARK   10  A    between atoms: C_18  and  C_19
REMARK   11  A    between atoms: C_19  and  C_20
REMARK   12  A    between atoms: C_20  and  C_21
REMARK   13  A    between atoms: C_21  and  C_22
REMARK   14  A    between atoms: C_22  and  C_23
REMARK   15  A    between atoms: C_23  and  C_24
REMARK   16  A    between atoms: C_24  and  C_25
REMARK   17  A    between atoms: C_25  and  C_26
REMARK   18  A    between atoms: C_26  and  C_27
REMARK                            x       y       z     vdW  Elec       q    Type
REMARK                         _______ _______ _______ _____ _____    ______ ____
ROOT
ATOM      1  C   LIG A   1      -8.771  -3.810 127.511  0.00  0.00    +0.002 C 
ENDROOT
BRANCH   1   2
ATOM      2  C   LIG A   1      -9.416  -3.201 126.211  0.00  0.00    +0.019 C 
BRANCH   2   8
ATOM      3  C   LIG A   1      -4.987  -2.936 123.949  0.00  0.00    +0.028 C 
ATOM      4  C   LIG A   1      -6.486  -3.016 123.642  0.00  0.00    +0.092 C 
ATOM      5  C   LIG A   1      -7.024  -1.777 122.891  0.00  0.00    +0.193 C 
ATOM      6  C   LIG A   1      -8.480  -2.081 122.474  0.00  0.00    +0.048 C 
ATOM      7  C   LIG A   1      -9.306  -2.979 123.464  0.00  0.00    +0.022 C 
ATOM      8  C   LIG A   1      -8.642  -3.472 124.818  0.00  0.00    +0.054 C 
ATOM      9  N   LIG A   1      -7.184  -3.266 124.918  0.00  0.00    -0.307 NA
ATOM     10  H   LIG A   1      -6.982  -2.515 125.580  0.00  0.00    +0.123 HD
BRANCH   5  11
ATOM     11  O   LIG A   1      -6.743  -0.551 123.606  0.00  0.00    -0.460 OA
BRANCH  11  12
ATOM     12  C   LIG A   1      -7.644   0.323 123.992  0.00  0.00    +0.304 C 
ATOM     13  C   LIG A   1      -8.185   0.234 125.338  0.00  0.00    +0.136 C 
ATOM     14  O   LIG A   1      -8.095   1.252 123.195  0.00  0.00    -0.251 OA
ENDBRANCH  11  12
ENDBRANCH   5  11
ENDBRANCH   2   8
ENDBRANCH   1   2
BRANCH   1  15
ATOM     15  C   LIG A   1      -7.953  -2.869 128.418  0.00  0.00    +0.000 C 
BRANCH  15  16
ATOM     16  C   LIG A   1      -7.643  -3.250 129.896  0.00  0.00    -0.000 C 
BRANCH  16  17
ATOM     17  C   LIG A   1      -6.195  -3.577 130.513  0.00  0.00    -0.000 C 
BRANCH  17  18
ATOM     18  C   LIG A   1      -5.596  -5.025 130.886  0.00  0.00    -0.000 C 
BRANCH  18  19
ATOM     19  C   LIG A   1      -5.031  -5.191 132.488  0.00  0.00    -0.000 C 
BRANCH  19  20
ATOM     20  C   LIG A   1      -5.987  -5.403 133.864  0.00  0.00    -0.000 C 
BRANCH  20  21
ATOM     21  C   LIG A   1      -6.850  -4.224 134.657  0.00  0.00    +0.000 C 
BRANCH  21  22
ATOM     22  C   LIG A   1      -7.431  -3.005 133.880  0.00  0.00    +0.000 C 
BRANCH  22  23
ATOM     23  C   LIG A   1      -6.541  -1.876 134.296  0.00  0.00    +0.007 C 
BRANCH  23  24
ATOM     24  C   LIG A   1      -5.731  -1.207 133.226  0.00  0.00    +0.074 C 
BRANCH  24  25
ATOM     25  C   LIG A   1      -4.327  -1.764 133.355  0.00  0.00    +0.130 C 
ATOM     26  C   LIG A   1      -3.443  -1.600 132.169  0.00  0.00    +0.086 C 
ATOM     27  O   LIG A   1      -3.896  -2.281 134.387  0.00  0.00    -0.298 OA
ENDBRANCH  24  25
ENDBRANCH  23  24
ENDBRANCH  22  23
ENDBRANCH  21  22
ENDBRANCH  20  21
ENDBRANCH  19  20
ENDBRANCH  18  19
ENDBRANCH  17  18
ENDBRANCH  16  17
ENDBRANCH  15  16
ENDBRANCH   1  15
TORSDOF 15
ENDMDL
