MODEL 1
REMARK VINA RESULT:      -6.9      0.000      0.000
REMARK  Name = NuBBE_1933
REMARK  3 active torsions:
REMARK  status: ('A' for Active; 'I' for Inactive)
REMARK    1  A    between atoms: C_1  and  C_2
REMARK    2  A    between atoms: C_2  and  C_3
REMARK    3  A    between atoms: C_15  and  C_17
REMARK                            x       y       z     vdW  Elec       q    Type
REMARK                         _______ _______ _______ _____ _____    ______ ____
ROOT
ATOM      1  C   LIG A   1      -7.986  -4.500 124.698  0.00  0.00    +0.011 C 
ATOM      2  C   LIG A   1      -8.353  -2.985 124.484  0.00  0.00    -0.028 C 
ATOM      3  C   LIG A   1      -9.458  -3.125 123.399  0.00  0.00    +0.011 C 
ATOM      4  C   LIG A   1      -9.061  -2.321 125.722  0.00  0.00    +0.024 C 
ATOM      5  C   LIG A   1      -9.014  -0.744 125.698  0.00  0.00    +0.022 C 
ATOM      6  C   LIG A   1      -8.696  -0.090 124.297  0.00  0.00    -0.073 C 
ATOM      7  C   LIG A   1      -9.393  -0.060 123.138  0.00  0.00    +0.008 C 
ATOM      8  C   LIG A   1      -7.296   0.373 124.106  0.00  0.00    +0.030 C 
ATOM      9  C   LIG A   1      -6.471  -0.871 123.828  0.00  0.00    +0.005 C 
ATOM     10  C   LIG A   1      -6.926  -2.322 124.201  0.00  0.00    +0.007 C 
ATOM     11  C   LIG A   1      -8.113  -0.166 126.845  0.00  0.00    +0.013 C 
ATOM     12  C   LIG A   1      -7.734  -0.989 128.078  0.00  0.00    +0.031 C 
ATOM     13  C   LIG A   1      -7.989  -2.441 128.036  0.00  0.00    -0.076 C 
ATOM     14  C   LIG A   1      -8.646  -3.016 126.989  0.00  0.00    -0.023 C 
ATOM     15  C   LIG A   1      -7.460  -3.296 129.143  0.00  0.00    +0.038 C 
ENDROOT
TORSDOF 0
ENDMDL
MODEL 2
REMARK VINA RESULT:      -6.6      1.591      3.747
REMARK  Name = NuBBE_1933
REMARK  3 active torsions:
REMARK  status: ('A' for Active; 'I' for Inactive)
REMARK    1  A    between atoms: C_1  and  C_2
REMARK    2  A    between atoms: C_2  and  C_3
REMARK    3  A    between atoms: C_15  and  C_17
REMARK                            x       y       z     vdW  Elec       q    Type
REMARK                         _______ _______ _______ _____ _____    ______ ____
ROOT
ATOM      1  C   LIG A   1      -7.804  -3.561 126.669  0.00  0.00    +0.011 C 
ATOM      2  C   LIG A   1      -8.045  -2.404 125.630  0.00  0.00    -0.028 C 
ATOM      3  C   LIG A   1      -8.545  -1.283 126.584  0.00  0.00    +0.011 C 
ATOM      4  C   LIG A   1      -6.725  -1.847 124.982  0.00  0.00    +0.024 C 
ATOM      5  C   LIG A   1      -6.974  -1.042 123.647  0.00  0.00    +0.022 C 
ATOM      6  C   LIG A   1      -8.454  -0.544 123.415  0.00  0.00    -0.073 C 
ATOM      7  C   LIG A   1      -9.212   0.362 124.071  0.00  0.00    +0.008 C 
ATOM      8  C   LIG A   1      -9.267  -1.361 122.475  0.00  0.00    +0.030 C 
ATOM      9  C   LIG A   1      -9.694  -2.597 123.246  0.00  0.00    +0.005 C 
ATOM     10  C   LIG A   1      -8.978  -3.110 124.540  0.00  0.00    +0.007 C 
ATOM     11  C   LIG A   1      -6.391  -1.787 122.396  0.00  0.00    +0.013 C 
ATOM     12  C   LIG A   1      -5.329  -2.882 122.519  0.00  0.00    +0.031 C 
ATOM     13  C   LIG A   1      -5.069  -3.435 123.861  0.00  0.00    -0.076 C 
ATOM     14  C   LIG A   1      -5.663  -2.912 124.971  0.00  0.00    -0.023 C 
ATOM     15  C   LIG A   1      -4.178  -4.629 123.986  0.00  0.00    +0.038 C 
ENDROOT
TORSDOF 0
ENDMDL
MODEL 3
REMARK VINA RESULT:      -6.6      1.323      4.322
REMARK  Name = NuBBE_1933
REMARK  3 active torsions:
REMARK  status: ('A' for Active; 'I' for Inactive)
REMARK    1  A    between atoms: C_1  and  C_2
REMARK    2  A    between atoms: C_2  and  C_3
REMARK    3  A    between atoms: C_15  and  C_17
REMARK                            x       y       z     vdW  Elec       q    Type
REMARK                         _______ _______ _______ _____ _____    ______ ____
ROOT
ATOM      1  C   LIG A   1      -6.309  -1.486 122.511  0.00  0.00    +0.011 C 
ATOM      2  C   LIG A   1      -6.891  -1.699 123.957  0.00  0.00    -0.028 C 
ATOM      3  C   LIG A   1      -5.644  -2.299 124.666  0.00  0.00    +0.011 C 
ATOM      4  C   LIG A   1      -7.205  -0.359 124.719  0.00  0.00    +0.024 C 
ATOM      5  C   LIG A   1      -8.187  -0.549 125.940  0.00  0.00    +0.022 C 
ATOM      6  C   LIG A   1      -8.338  -2.027 126.473  0.00  0.00    -0.073 C 
ATOM      7  C   LIG A   1      -7.463  -2.857 127.084  0.00  0.00    +0.008 C 
ATOM      8  C   LIG A   1      -9.561  -2.748 126.032  0.00  0.00    +0.030 C 
ATOM      9  C   LIG A   1      -9.305  -3.182 124.600  0.00  0.00    +0.005 C 
ATOM     10  C   LIG A   1      -8.224  -2.534 123.671  0.00  0.00    +0.007 C 
ATOM     11  C   LIG A   1      -9.574   0.140 125.689  0.00  0.00    +0.013 C 
ATOM     12  C   LIG A   1      -9.765   1.229 124.631  0.00  0.00    +0.031 C 
ATOM     13  C   LIG A   1      -8.686   1.420 123.643  0.00  0.00    -0.076 C 
ATOM     14  C   LIG A   1      -7.510   0.737 123.736  0.00  0.00    -0.023 C 
ATOM     15  C   LIG A   1      -8.923   2.341 122.490  0.00  0.00    +0.038 C 
ENDROOT
TORSDOF 0
ENDMDL
MODEL 4
REMARK VINA RESULT:      -6.2      2.128      5.368
REMARK  Name = NuBBE_1933
REMARK  3 active torsions:
REMARK  status: ('A' for Active; 'I' for Inactive)
REMARK    1  A    between atoms: C_1  and  C_2
REMARK    2  A    between atoms: C_2  and  C_3
REMARK    3  A    between atoms: C_15  and  C_17
REMARK                            x       y       z     vdW  Elec       q    Type
REMARK                         _______ _______ _______ _____ _____    ______ ____
ROOT
ATOM      1  C   LIG A   1      -5.414  -0.736 126.692  0.00  0.00    +0.011 C 
ATOM      2  C   LIG A   1      -5.917  -1.174 128.117  0.00  0.00    -0.028 C 
ATOM      3  C   LIG A   1      -5.618   0.123 128.920  0.00  0.00    +0.011 C 
ATOM      4  C   LIG A   1      -7.474  -1.376 128.207  0.00  0.00    +0.024 C 
ATOM      5  C   LIG A   1      -7.923  -2.234 129.453  0.00  0.00    +0.022 C 
ATOM      6  C   LIG A   1      -6.859  -2.366 130.611  0.00  0.00    -0.073 C 
ATOM      7  C   LIG A   1      -6.336  -1.455 131.462  0.00  0.00    +0.008 C 
ATOM      8  C   LIG A   1      -6.101  -3.645 130.646  0.00  0.00    +0.030 C 
ATOM      9  C   LIG A   1      -5.051  -3.546 129.553  0.00  0.00    +0.005 C 
ATOM     10  C   LIG A   1      -5.135  -2.549 128.349  0.00  0.00    +0.007 C 
ATOM     11  C   LIG A   1      -8.517  -3.622 129.026  0.00  0.00    +0.013 C 
ATOM     12  C   LIG A   1      -9.021  -3.892 127.607  0.00  0.00    +0.031 C 
ATOM     13  C   LIG A   1      -8.673  -2.914 126.559  0.00  0.00    -0.076 C 
ATOM     14  C   LIG A   1      -8.027  -1.752 126.860  0.00  0.00    -0.023 C 
ATOM     15  C   LIG A   1      -8.988  -3.244 125.135  0.00  0.00    +0.038 C 
ENDROOT
TORSDOF 0
ENDMDL
MODEL 5
REMARK VINA RESULT:      -6.2      1.248      3.210
REMARK  Name = NuBBE_1933
REMARK  3 active torsions:
REMARK  status: ('A' for Active; 'I' for Inactive)
REMARK    1  A    between atoms: C_1  and  C_2
REMARK    2  A    between atoms: C_2  and  C_3
REMARK    3  A    between atoms: C_15  and  C_17
REMARK                            x       y       z     vdW  Elec       q    Type
REMARK                         _______ _______ _______ _____ _____    ______ ____
ROOT
ATOM      1  C   LIG A   1      -7.793  -2.089 127.768  0.00  0.00    +0.011 C 
ATOM      2  C   LIG A   1      -8.193  -2.111 126.247  0.00  0.00    -0.028 C 
ATOM      3  C   LIG A   1      -9.303  -3.200 126.275  0.00  0.00    +0.011 C 
ATOM      4  C   LIG A   1      -8.905  -0.797 125.757  0.00  0.00    +0.024 C 
ATOM      5  C   LIG A   1      -8.891  -0.625 124.188  0.00  0.00    +0.022 C 
ATOM      6  C   LIG A   1      -8.597  -1.936 123.359  0.00  0.00    -0.073 C 
ATOM      7  C   LIG A   1      -9.302  -3.078 123.200  0.00  0.00    +0.008 C 
ATOM      8  C   LIG A   1      -7.208  -2.074 122.847  0.00  0.00    +0.030 C 
ATOM      9  C   LIG A   1      -6.359  -2.507 124.029  0.00  0.00    +0.005 C 
ATOM     10  C   LIG A   1      -6.782  -2.315 125.524  0.00  0.00    +0.007 C 
ATOM     11  C   LIG A   1      -7.995   0.580 123.739  0.00  0.00    +0.013 C 
ATOM     12  C   LIG A   1      -7.590   1.700 124.700  0.00  0.00    +0.031 C 
ATOM     13  C   LIG A   1      -7.816   1.480 126.141  0.00  0.00    -0.076 C 
ATOM     14  C   LIG A   1      -8.468   0.372 126.595  0.00  0.00    -0.023 C 
ATOM     15  C   LIG A   1      -7.262   2.469 127.115  0.00  0.00    +0.038 C 
ENDROOT
TORSDOF 0
ENDMDL
MODEL 6
REMARK VINA RESULT:      -6.2      1.613      4.068
REMARK  Name = NuBBE_1933
REMARK  3 active torsions:
REMARK  status: ('A' for Active; 'I' for Inactive)
REMARK    1  A    between atoms: C_1  and  C_2
REMARK    2  A    between atoms: C_2  and  C_3
REMARK    3  A    between atoms: C_15  and  C_17
REMARK                            x       y       z     vdW  Elec       q    Type
REMARK                         _______ _______ _______ _____ _____    ______ ____
ROOT
ATOM      1  C   LIG A   1      -9.464   1.635 124.648  0.00  0.00    +0.011 C 
ATOM      2  C   LIG A   1      -8.980   0.183 124.285  0.00  0.00    -0.028 C 
ATOM      3  C   LIG A   1      -9.717  -0.017 122.930  0.00  0.00    +0.011 C 
ATOM      4  C   LIG A   1      -7.446   0.091 123.947  0.00  0.00    +0.024 C 
ATOM      5  C   LIG A   1      -6.873  -1.377 124.035  0.00  0.00    +0.022 C 
ATOM      6  C   LIG A   1      -7.947  -2.534 123.994  0.00  0.00    -0.073 C 
ATOM      7  C   LIG A   1      -8.787  -2.949 123.020  0.00  0.00    +0.008 C 
ATOM      8  C   LIG A   1      -8.293  -3.136 125.309  0.00  0.00    +0.030 C 
ATOM      9  C   LIG A   1      -9.227  -2.153 125.994  0.00  0.00    +0.005 C 
ATOM     10  C   LIG A   1      -9.338  -0.640 125.608  0.00  0.00    +0.007 C 
ATOM     11  C   LIG A   1      -5.862  -1.542 125.222  0.00  0.00    +0.013 C 
ATOM     12  C   LIG A   1      -5.179  -0.344 125.886  0.00  0.00    +0.031 C 
ATOM     13  C   LIG A   1      -5.709   0.999 125.583  0.00  0.00    -0.076 C 
ATOM     14  C   LIG A   1      -6.693   1.181 124.657  0.00  0.00    -0.023 C 
ATOM     15  C   LIG A   1      -5.189   2.167 126.357  0.00  0.00    +0.038 C 
ENDROOT
TORSDOF 0
ENDMDL
MODEL 7
REMARK VINA RESULT:      -6.1      1.414      3.213
REMARK  Name = NuBBE_1933
REMARK  3 active torsions:
REMARK  status: ('A' for Active; 'I' for Inactive)
REMARK    1  A    between atoms: C_1  and  C_2
REMARK    2  A    between atoms: C_2  and  C_3
REMARK    3  A    between atoms: C_15  and  C_17
REMARK                            x       y       z     vdW  Elec       q    Type
REMARK                         _______ _______ _______ _____ _____    ______ ____
ROOT
ATOM      1  C   LIG A   1      -6.120   0.205 127.316  0.00  0.00    +0.011 C 
ATOM      2  C   LIG A   1      -6.471  -0.656 126.047  0.00  0.00    -0.028 C 
ATOM      3  C   LIG A   1      -5.180  -0.441 125.208  0.00  0.00    +0.011 C 
ATOM      4  C   LIG A   1      -6.538  -2.202 126.327  0.00  0.00    +0.024 C 
ATOM      5  C   LIG A   1      -7.318  -3.007 125.216  0.00  0.00    +0.022 C 
ATOM      6  C   LIG A   1      -7.504  -2.261 123.837  0.00  0.00    -0.073 C 
ATOM      7  C   LIG A   1      -6.615  -1.875 122.895  0.00  0.00    +0.008 C 
ATOM      8  C   LIG A   1      -8.841  -1.650 123.612  0.00  0.00    +0.030 C 
ATOM      9  C   LIG A   1      -8.864  -0.368 124.425  0.00  0.00    +0.005 C 
ATOM     10  C   LIG A   1      -7.900  -0.077 125.624  0.00  0.00    +0.007 C 
ATOM     11  C   LIG A   1      -8.662  -3.604 125.758  0.00  0.00    +0.013 C 
ATOM     12  C   LIG A   1      -8.932  -3.782 127.254  0.00  0.00    +0.031 C 
ATOM     13  C   LIG A   1      -8.019  -3.111 128.198  0.00  0.00    -0.076 C 
ATOM     14  C   LIG A   1      -6.907  -2.453 127.763  0.00  0.00    -0.023 C 
ATOM     15  C   LIG A   1      -8.363  -3.110 129.653  0.00  0.00    +0.038 C 
ENDROOT
TORSDOF 0
ENDMDL
MODEL 8
REMARK VINA RESULT:      -5.9      1.360      4.404
REMARK  Name = NuBBE_1933
REMARK  3 active torsions:
REMARK  status: ('A' for Active; 'I' for Inactive)
REMARK    1  A    between atoms: C_1  and  C_2
REMARK    2  A    between atoms: C_2  and  C_3
REMARK    3  A    between atoms: C_15  and  C_17
REMARK                            x       y       z     vdW  Elec       q    Type
REMARK                         _______ _______ _______ _____ _____    ______ ____
ROOT
ATOM      1  C   LIG A   1      -5.168  -0.359 126.165  0.00  0.00    +0.011 C 
ATOM      2  C   LIG A   1      -6.475  -1.235 126.123  0.00  0.00    -0.028 C 
ATOM      3  C   LIG A   1      -6.579  -1.636 127.622  0.00  0.00    +0.011 C 
ATOM      4  C   LIG A   1      -7.780  -0.413 125.816  0.00  0.00    +0.024 C 
ATOM      5  C   LIG A   1      -8.984  -1.310 125.327  0.00  0.00    +0.022 C 
ATOM      6  C   LIG A   1      -8.859  -2.852 125.641  0.00  0.00    -0.073 C 
ATOM      7  C   LIG A   1      -8.858  -3.536 126.807  0.00  0.00    +0.008 C 
ATOM      8  C   LIG A   1      -8.425  -3.707 124.504  0.00  0.00    +0.030 C 
ATOM      9  C   LIG A   1      -6.925  -3.507 124.371  0.00  0.00    +0.005 C 
ATOM     10  C   LIG A   1      -6.152  -2.278 124.956  0.00  0.00    +0.007 C 
ATOM     11  C   LIG A   1      -9.349  -1.034 123.827  0.00  0.00    +0.013 C 
ATOM     12  C   LIG A   1      -8.920   0.245 123.104  0.00  0.00    +0.031 C 
ATOM     13  C   LIG A   1      -7.903   1.091 123.756  0.00  0.00    -0.076 C 
ATOM     14  C   LIG A   1      -7.445   0.810 125.009  0.00  0.00    -0.023 C 
ATOM     15  C   LIG A   1      -7.328   2.241 122.993  0.00  0.00    +0.038 C 
ENDROOT
TORSDOF 0
ENDMDL
MODEL 9
REMARK VINA RESULT:      -5.9      1.351      3.223
REMARK  Name = NuBBE_1933
REMARK  3 active torsions:
REMARK  status: ('A' for Active; 'I' for Inactive)
REMARK    1  A    between atoms: C_1  and  C_2
REMARK    2  A    between atoms: C_2  and  C_3
REMARK    3  A    between atoms: C_15  and  C_17
REMARK                            x       y       z     vdW  Elec       q    Type
REMARK                         _______ _______ _______ _____ _____    ______ ____
ROOT
ATOM      1  C   LIG A   1      -9.684   0.335 125.580  0.00  0.00    +0.011 C 
ATOM      2  C   LIG A   1      -8.480  -0.465 124.958  0.00  0.00    -0.028 C 
ATOM      3  C   LIG A   1      -8.311   0.300 123.615  0.00  0.00    +0.011 C 
ATOM      4  C   LIG A   1      -7.123  -0.269 125.728  0.00  0.00    +0.024 C 
ATOM      5  C   LIG A   1      -6.055  -1.386 125.409  0.00  0.00    +0.022 C 
ATOM      6  C   LIG A   1      -6.314  -2.225 124.097  0.00  0.00    -0.073 C 
ATOM      7  C   LIG A   1      -6.302  -1.878 122.790  0.00  0.00    +0.008 C 
ATOM      8  C   LIG A   1      -6.913  -3.570 124.301  0.00  0.00    +0.030 C 
ATOM      9  C   LIG A   1      -8.389  -3.342 124.570  0.00  0.00    +0.005 C 
ATOM     10  C   LIG A   1      -8.990  -1.978 125.048  0.00  0.00    +0.007 C 
ATOM     11  C   LIG A   1      -5.770  -2.297 126.654  0.00  0.00    +0.013 C 
ATOM     12  C   LIG A   1      -6.117  -1.864 128.080  0.00  0.00    +0.031 C 
ATOM     13  C   LIG A   1      -6.994  -0.689 128.243  0.00  0.00    -0.076 C 
ATOM     14  C   LIG A   1      -7.388   0.056 127.172  0.00  0.00    -0.023 C 
ATOM     15  C   LIG A   1      -7.501  -0.356 129.610  0.00  0.00    +0.038 C 
ENDROOT
TORSDOF 0
ENDMDL
