MODEL 1
REMARK VINA RESULT:      -5.6      0.000      0.000
REMARK  Name = NuBBE_42
REMARK  8 active torsions:
REMARK  status: ('A' for Active; 'I' for Inactive)
REMARK    1  A    between atoms: N_4  and  C_5
REMARK    2  A    between atoms: N_4  and  C_10
REMARK    3  A    between atoms: C_5  and  C_6
REMARK    4  A    between atoms: C_7  and  C_8
REMARK    5  A    between atoms: C_7  and  C_9
REMARK    6  A    between atoms: C_10  and  C_11
REMARK    7  A    between atoms: C_12  and  C_13
REMARK    8  A    between atoms: C_12  and  C_14
REMARK                            x       y       z     vdW  Elec       q    Type
REMARK                         _______ _______ _______ _____ _____    ______ ____
ROOT
ATOM      1  N   LIG A   1     -11.222   3.496 130.252  0.00  0.00    -0.130 NA
ATOM      2  C   LIG A   1     -10.583   4.366 130.955  0.00  0.00    +0.379 C 
ATOM      3  N   LIG A   1     -10.031   3.999 132.137  0.00  0.00    -0.289 N 
ATOM      4  N   LIG A   1     -10.450   5.690 130.611  0.00  0.00    -0.256 N 
ATOM      5  H   LIG A   1     -11.202   2.594 130.727  0.00  0.00    +0.306 HD
ATOM      6  H   LIG A   1      -9.972   3.006 132.315  0.00  0.00    +0.255 HD
ATOM      7  H   LIG A   1      -9.170   4.468 132.374  0.00  0.00    +0.255 HD
ENDROOT
BRANCH   4   8
ATOM      8  C   LIG A   1      -9.738   6.672 131.436  0.00  0.00    +0.227 C 
BRANCH   8   9
ATOM      9  C   LIG A   1      -8.341   6.862 130.897  0.00  0.00    +0.008 C 
ATOM     10  C   LIG A   1      -7.181   6.551 131.508  0.00  0.00    -0.077 C 
ATOM     11  C   LIG A   1      -7.070   5.915 132.866  0.00  0.00    +0.038 C 
ATOM     12  C   LIG A   1      -5.855   6.844 130.852  0.00  0.00    +0.038 C 
ENDBRANCH   8   9
ENDBRANCH   4   8
BRANCH   4  13
ATOM     13  C   LIG A   1     -11.353   6.254 129.592  0.00  0.00    +0.227 C 
BRANCH  13  14
ATOM     14  C   LIG A   1     -11.828   7.624 130.002  0.00  0.00    +0.008 C 
ATOM     15  C   LIG A   1     -12.722   8.430 129.388  0.00  0.00    -0.077 C 
ATOM     16  C   LIG A   1     -13.473   8.106 128.124  0.00  0.00    +0.038 C 
ATOM     17  C   LIG A   1     -13.030   9.796 129.947  0.00  0.00    +0.038 C 
ENDBRANCH  13  14
ENDBRANCH   4  13
TORSDOF 4
ENDMDL
MODEL 2
REMARK VINA RESULT:      -5.6      8.855     10.336
REMARK  Name = NuBBE_42
REMARK  8 active torsions:
REMARK  status: ('A' for Active; 'I' for Inactive)
REMARK    1  A    between atoms: N_4  and  C_5
REMARK    2  A    between atoms: N_4  and  C_10
REMARK    3  A    between atoms: C_5  and  C_6
REMARK    4  A    between atoms: C_7  and  C_8
REMARK    5  A    between atoms: C_7  and  C_9
REMARK    6  A    between atoms: C_10  and  C_11
REMARK    7  A    between atoms: C_12  and  C_13
REMARK    8  A    between atoms: C_12  and  C_14
REMARK                            x       y       z     vdW  Elec       q    Type
REMARK                         _______ _______ _______ _____ _____    ______ ____
ROOT
ATOM      1  N   LIG A   1      -9.195   3.164 124.651  0.00  0.00    -0.130 NA
ATOM      2  C   LIG A   1      -9.487   2.006 124.169  0.00  0.00    +0.379 C 
ATOM      3  N   LIG A   1     -10.736   1.507 124.329  0.00  0.00    -0.289 N 
ATOM      4  N   LIG A   1      -8.589   1.192 123.521  0.00  0.00    -0.256 N 
ATOM      5  H   LIG A   1     -10.018   3.561 125.106  0.00  0.00    +0.306 HD
ATOM      6  H   LIG A   1     -11.442   2.158 124.645  0.00  0.00    +0.255 HD
ATOM      7  H   LIG A   1     -11.074   0.939 123.567  0.00  0.00    +0.255 HD
ENDROOT
BRANCH   4   8
ATOM      8  C   LIG A   1      -8.934  -0.135 122.998  0.00  0.00    +0.227 C 
BRANCH   8   9
ATOM      9  C   LIG A   1      -7.950  -1.152 123.524  0.00  0.00    +0.008 C 
ATOM     10  C   LIG A   1      -8.166  -2.467 123.727  0.00  0.00    -0.077 C 
ATOM     11  C   LIG A   1      -9.456  -3.180 123.431  0.00  0.00    +0.038 C 
ATOM     12  C   LIG A   1      -7.088  -3.351 124.303  0.00  0.00    +0.038 C 
ENDBRANCH   8   9
ENDBRANCH   4   8
BRANCH   4  13
ATOM     13  C   LIG A   1      -7.148   1.458 123.673  0.00  0.00    +0.227 C 
BRANCH  13  14
ATOM     14  C   LIG A   1      -6.629   2.262 122.508  0.00  0.00    +0.008 C 
ATOM     15  C   LIG A   1      -6.044   3.479 122.512  0.00  0.00    -0.077 C 
ATOM     16  C   LIG A   1      -5.761   4.314 123.733  0.00  0.00    +0.038 C 
ATOM     17  C   LIG A   1      -5.630   4.132 121.218  0.00  0.00    +0.038 C 
ENDBRANCH  13  14
ENDBRANCH   4  13
TORSDOF 4
ENDMDL
MODEL 3
REMARK VINA RESULT:      -5.6      9.017     10.183
REMARK  Name = NuBBE_42
REMARK  8 active torsions:
REMARK  status: ('A' for Active; 'I' for Inactive)
REMARK    1  A    between atoms: N_4  and  C_5
REMARK    2  A    between atoms: N_4  and  C_10
REMARK    3  A    between atoms: C_5  and  C_6
REMARK    4  A    between atoms: C_7  and  C_8
REMARK    5  A    between atoms: C_7  and  C_9
REMARK    6  A    between atoms: C_10  and  C_11
REMARK    7  A    between atoms: C_12  and  C_13
REMARK    8  A    between atoms: C_12  and  C_14
REMARK                            x       y       z     vdW  Elec       q    Type
REMARK                         _______ _______ _______ _____ _____    ______ ____
ROOT
ATOM      1  N   LIG A   1      -8.972   3.804 125.138  0.00  0.00    -0.130 NA
ATOM      2  C   LIG A   1      -8.285   2.716 125.092  0.00  0.00    +0.379 C 
ATOM      3  N   LIG A   1      -7.799   2.179 126.237  0.00  0.00    -0.289 N 
ATOM      4  N   LIG A   1      -7.960   2.057 123.930  0.00  0.00    -0.256 N 
ATOM      5  H   LIG A   1      -9.058   4.112 126.108  0.00  0.00    +0.306 HD
ATOM      6  H   LIG A   1      -8.171   2.551 127.100  0.00  0.00    +0.255 HD
ATOM      7  H   LIG A   1      -7.758   1.172 126.258  0.00  0.00    +0.255 HD
ENDROOT
BRANCH   4   8
ATOM      8  C   LIG A   1      -7.157   0.830 123.895  0.00  0.00    +0.227 C 
BRANCH   8   9
ATOM      9  C   LIG A   1      -8.068  -0.362 123.729  0.00  0.00    +0.008 C 
ATOM     10  C   LIG A   1      -7.770  -1.544 123.155  0.00  0.00    -0.077 C 
ATOM     11  C   LIG A   1      -6.427  -1.905 122.583  0.00  0.00    +0.038 C 
ATOM     12  C   LIG A   1      -8.810  -2.629 123.025  0.00  0.00    +0.038 C 
ENDBRANCH   8   9
ENDBRANCH   4   8
BRANCH   4  13
ATOM     13  C   LIG A   1      -8.077   2.775 122.649  0.00  0.00    +0.227 C 
BRANCH  13  14
ATOM     14  C   LIG A   1      -6.741   3.333 122.228  0.00  0.00    +0.008 C 
ATOM     15  C   LIG A   1      -6.387   3.882 121.046  0.00  0.00    -0.077 C 
ATOM     16  C   LIG A   1      -7.296   4.077 119.860  0.00  0.00    +0.038 C 
ATOM     17  C   LIG A   1      -4.972   4.346 120.811  0.00  0.00    +0.038 C 
ENDBRANCH  13  14
ENDBRANCH   4  13
TORSDOF 4
ENDMDL
MODEL 4
REMARK VINA RESULT:      -5.5      8.952     10.802
REMARK  Name = NuBBE_42
REMARK  8 active torsions:
REMARK  status: ('A' for Active; 'I' for Inactive)
REMARK    1  A    between atoms: N_4  and  C_5
REMARK    2  A    between atoms: N_4  and  C_10
REMARK    3  A    between atoms: C_5  and  C_6
REMARK    4  A    between atoms: C_7  and  C_8
REMARK    5  A    between atoms: C_7  and  C_9
REMARK    6  A    between atoms: C_10  and  C_11
REMARK    7  A    between atoms: C_12  and  C_13
REMARK    8  A    between atoms: C_12  and  C_14
REMARK                            x       y       z     vdW  Elec       q    Type
REMARK                         _______ _______ _______ _____ _____    ______ ____
ROOT
ATOM      1  N   LIG A   1     -10.727   0.509 122.540  0.00  0.00    -0.130 NA
ATOM      2  C   LIG A   1      -9.860   0.758 123.459  0.00  0.00    +0.379 C 
ATOM      3  N   LIG A   1      -9.751   2.013 123.957  0.00  0.00    -0.289 N 
ATOM      4  N   LIG A   1      -8.979  -0.170 123.960  0.00  0.00    -0.256 N 
ATOM      5  H   LIG A   1     -11.244   1.361 122.319  0.00  0.00    +0.306 HD
ATOM      6  H   LIG A   1     -10.498   2.654 123.725  0.00  0.00    +0.255 HD
ATOM      7  H   LIG A   1      -9.506   2.069 124.934  0.00  0.00    +0.255 HD
ENDROOT
BRANCH   4   8
ATOM      8  C   LIG A   1      -7.982   0.138 124.992  0.00  0.00    +0.227 C 
BRANCH   8   9
ATOM      9  C   LIG A   1      -8.276  -0.672 126.232  0.00  0.00    +0.008 C 
ATOM     10  C   LIG A   1      -7.384  -1.257 127.055  0.00  0.00    -0.077 C 
ATOM     11  C   LIG A   1      -5.891  -1.182 126.895  0.00  0.00    +0.038 C 
ATOM     12  C   LIG A   1      -7.839  -2.076 128.237  0.00  0.00    +0.038 C 
ENDBRANCH   8   9
ENDBRANCH   4   8
BRANCH   4  13
ATOM     13  C   LIG A   1      -8.742  -1.410 123.200  0.00  0.00    +0.227 C 
BRANCH  13  14
ATOM     14  C   LIG A   1      -7.270  -1.730 123.148  0.00  0.00    +0.008 C 
ATOM     15  C   LIG A   1      -6.613  -2.784 123.677  0.00  0.00    -0.077 C 
ATOM     16  C   LIG A   1      -7.243  -3.917 124.445  0.00  0.00    +0.038 C 
ATOM     17  C   LIG A   1      -5.115  -2.896 123.545  0.00  0.00    +0.038 C 
ENDBRANCH  13  14
ENDBRANCH   4  13
TORSDOF 4
ENDMDL
MODEL 5
REMARK VINA RESULT:      -5.5      1.922      2.533
REMARK  Name = NuBBE_42
REMARK  8 active torsions:
REMARK  status: ('A' for Active; 'I' for Inactive)
REMARK    1  A    between atoms: N_4  and  C_5
REMARK    2  A    between atoms: N_4  and  C_10
REMARK    3  A    between atoms: C_5  and  C_6
REMARK    4  A    between atoms: C_7  and  C_8
REMARK    5  A    between atoms: C_7  and  C_9
REMARK    6  A    between atoms: C_10  and  C_11
REMARK    7  A    between atoms: C_12  and  C_13
REMARK    8  A    between atoms: C_12  and  C_14
REMARK                            x       y       z     vdW  Elec       q    Type
REMARK                         _______ _______ _______ _____ _____    ______ ____
ROOT
ATOM      1  N   LIG A   1      -8.727   5.088 128.516  0.00  0.00    -0.130 NA
ATOM      2  C   LIG A   1      -9.289   4.923 129.663  0.00  0.00    +0.379 C 
ATOM      3  N   LIG A   1      -9.649   3.679 130.061  0.00  0.00    -0.289 N 
ATOM      4  N   LIG A   1      -9.600   5.947 130.524  0.00  0.00    -0.256 N 
ATOM      5  H   LIG A   1      -8.624   4.184 128.054  0.00  0.00    +0.306 HD
ATOM      6  H   LIG A   1      -9.275   2.909 129.523  0.00  0.00    +0.255 HD
ATOM      7  H   LIG A   1      -9.576   3.505 131.053  0.00  0.00    +0.255 HD
ENDROOT
BRANCH   4   8
ATOM      8  C   LIG A   1     -10.262   5.742 131.818  0.00  0.00    +0.227 C 
BRANCH   8   9
ATOM      9  C   LIG A   1      -9.243   5.857 132.926  0.00  0.00    +0.008 C 
ATOM     10  C   LIG A   1      -8.764   4.863 133.700  0.00  0.00    -0.077 C 
ATOM     11  C   LIG A   1      -9.151   3.416 133.576  0.00  0.00    +0.038 C 
ATOM     12  C   LIG A   1      -7.774   5.146 134.803  0.00  0.00    +0.038 C 
ENDBRANCH   8   9
ENDBRANCH   4   8
BRANCH   4  13
ATOM     13  C   LIG A   1      -9.635   7.326 130.007  0.00  0.00    +0.227 C 
BRANCH  13  14
ATOM     14  C   LIG A   1     -11.051   7.749 129.712  0.00  0.00    +0.008 C 
ATOM     15  C   LIG A   1     -11.606   8.083 128.527  0.00  0.00    -0.077 C 
ATOM     16  C   LIG A   1     -10.901   8.085 127.195  0.00  0.00    +0.038 C 
ATOM     17  C   LIG A   1     -13.047   8.522 128.453  0.00  0.00    +0.038 C 
ENDBRANCH  13  14
ENDBRANCH   4  13
TORSDOF 4
ENDMDL
MODEL 6
REMARK VINA RESULT:      -5.5      9.257     10.865
REMARK  Name = NuBBE_42
REMARK  8 active torsions:
REMARK  status: ('A' for Active; 'I' for Inactive)
REMARK    1  A    between atoms: N_4  and  C_5
REMARK    2  A    between atoms: N_4  and  C_10
REMARK    3  A    between atoms: C_5  and  C_6
REMARK    4  A    between atoms: C_7  and  C_8
REMARK    5  A    between atoms: C_7  and  C_9
REMARK    6  A    between atoms: C_10  and  C_11
REMARK    7  A    between atoms: C_12  and  C_13
REMARK    8  A    between atoms: C_12  and  C_14
REMARK                            x       y       z     vdW  Elec       q    Type
REMARK                         _______ _______ _______ _____ _____    ______ ____
ROOT
ATOM      1  N   LIG A   1      -7.097  -1.133 128.882  0.00  0.00    -0.130 NA
ATOM      2  C   LIG A   1      -6.352  -0.915 127.854  0.00  0.00    +0.379 C 
ATOM      3  N   LIG A   1      -5.017  -0.749 128.015  0.00  0.00    -0.289 N 
ATOM      4  N   LIG A   1      -6.827  -0.791 126.571  0.00  0.00    -0.256 N 
ATOM      5  H   LIG A   1      -6.518  -1.159 129.723  0.00  0.00    +0.306 HD
ATOM      6  H   LIG A   1      -4.638  -1.007 128.916  0.00  0.00    +0.255 HD
ATOM      7  H   LIG A   1      -4.446  -1.099 127.261  0.00  0.00    +0.255 HD
ENDROOT
BRANCH   4   8
ATOM      8  C   LIG A   1      -5.966  -0.519 125.414  0.00  0.00    +0.227 C 
BRANCH   8   9
ATOM      9  C   LIG A   1      -5.305  -1.801 124.968  0.00  0.00    +0.008 C 
ATOM     10  C   LIG A   1      -5.437  -2.416 123.777  0.00  0.00    -0.077 C 
ATOM     11  C   LIG A   1      -6.272  -1.906 122.635  0.00  0.00    +0.038 C 
ATOM     12  C   LIG A   1      -4.741  -3.725 123.497  0.00  0.00    +0.038 C 
ENDBRANCH   8   9
ENDBRANCH   4   8
BRANCH   4  13
ATOM     13  C   LIG A   1      -8.264  -0.537 126.365  0.00  0.00    +0.227 C 
BRANCH  13  14
ATOM     14  C   LIG A   1      -8.790  -1.359 125.216  0.00  0.00    +0.008 C 
ATOM     15  C   LIG A   1      -8.961  -2.696 125.140  0.00  0.00    -0.077 C 
ATOM     16  C   LIG A   1      -8.666  -3.684 126.238  0.00  0.00    +0.038 C 
ATOM     17  C   LIG A   1      -9.469  -3.331 123.870  0.00  0.00    +0.038 C 
ENDBRANCH  13  14
ENDBRANCH   4  13
TORSDOF 4
ENDMDL
MODEL 7
REMARK VINA RESULT:      -5.5      9.385     11.171
REMARK  Name = NuBBE_42
REMARK  8 active torsions:
REMARK  status: ('A' for Active; 'I' for Inactive)
REMARK    1  A    between atoms: N_4  and  C_5
REMARK    2  A    between atoms: N_4  and  C_10
REMARK    3  A    between atoms: C_5  and  C_6
REMARK    4  A    between atoms: C_7  and  C_8
REMARK    5  A    between atoms: C_7  and  C_9
REMARK    6  A    between atoms: C_10  and  C_11
REMARK    7  A    between atoms: C_12  and  C_13
REMARK    8  A    between atoms: C_12  and  C_14
REMARK                            x       y       z     vdW  Elec       q    Type
REMARK                         _______ _______ _______ _____ _____    ______ ____
ROOT
ATOM      1  N   LIG A   1      -9.731  -0.751 125.453  0.00  0.00    -0.130 NA
ATOM      2  C   LIG A   1      -8.517  -0.456 125.141  0.00  0.00    +0.379 C 
ATOM      3  N   LIG A   1      -8.272   0.582 124.305  0.00  0.00    -0.289 N 
ATOM      4  N   LIG A   1      -7.417  -1.160 125.568  0.00  0.00    -0.256 N 
ATOM      5  H   LIG A   1     -10.369  -0.100 124.994  0.00  0.00    +0.306 HD
ATOM      6  H   LIG A   1      -9.047   1.205 124.125  0.00  0.00    +0.255 HD
ATOM      7  H   LIG A   1      -7.423   1.093 124.491  0.00  0.00    +0.255 HD
ENDROOT
BRANCH   4   8
ATOM      8  C   LIG A   1      -6.042  -0.823 125.183  0.00  0.00    +0.227 C 
BRANCH   8   9
ATOM      9  C   LIG A   1      -5.294  -2.087 124.834  0.00  0.00    +0.008 C 
ATOM     10  C   LIG A   1      -5.249  -2.704 123.637  0.00  0.00    -0.077 C 
ATOM     11  C   LIG A   1      -5.934  -2.212 122.392  0.00  0.00    +0.038 C 
ATOM     12  C   LIG A   1      -4.488  -3.994 123.456  0.00  0.00    +0.038 C 
ENDBRANCH   8   9
ENDBRANCH   4   8
BRANCH   4  13
ATOM     13  C   LIG A   1      -7.608  -2.516 126.113  0.00  0.00    +0.227 C 
BRANCH  13  14
ATOM     14  C   LIG A   1      -7.459  -2.513 127.613  0.00  0.00    +0.008 C 
ATOM     15  C   LIG A   1      -8.160  -3.206 128.536  0.00  0.00    -0.077 C 
ATOM     16  C   LIG A   1      -9.271  -4.182 128.244  0.00  0.00    +0.038 C 
ATOM     17  C   LIG A   1      -7.877  -3.026 130.006  0.00  0.00    +0.038 C 
ENDBRANCH  13  14
ENDBRANCH   4  13
TORSDOF 4
ENDMDL
MODEL 8
REMARK VINA RESULT:      -5.4      9.816     11.860
REMARK  Name = NuBBE_42
REMARK  8 active torsions:
REMARK  status: ('A' for Active; 'I' for Inactive)
REMARK    1  A    between atoms: N_4  and  C_5
REMARK    2  A    between atoms: N_4  and  C_10
REMARK    3  A    between atoms: C_5  and  C_6
REMARK    4  A    between atoms: C_7  and  C_8
REMARK    5  A    between atoms: C_7  and  C_9
REMARK    6  A    between atoms: C_10  and  C_11
REMARK    7  A    between atoms: C_12  and  C_13
REMARK    8  A    between atoms: C_12  and  C_14
REMARK                            x       y       z     vdW  Elec       q    Type
REMARK                         _______ _______ _______ _____ _____    ______ ____
ROOT
ATOM      1  N   LIG A   1      -5.554  -1.524 128.591  0.00  0.00    -0.130 NA
ATOM      2  C   LIG A   1      -6.632  -1.979 128.053  0.00  0.00    +0.379 C 
ATOM      3  N   LIG A   1      -7.531  -2.650 128.812  0.00  0.00    -0.289 N 
ATOM      4  N   LIG A   1      -6.933  -1.869 126.716  0.00  0.00    -0.256 N 
ATOM      5  H   LIG A   1      -5.549  -1.751 129.586  0.00  0.00    +0.306 HD
ATOM      6  H   LIG A   1      -7.408  -2.587 129.814  0.00  0.00    +0.255 HD
ATOM      7  H   LIG A   1      -8.497  -2.522 128.551  0.00  0.00    +0.255 HD
ENDROOT
BRANCH   4   8
ATOM      8  C   LIG A   1      -8.156  -2.413 126.116  0.00  0.00    +0.227 C 
BRANCH   8   9
ATOM      9  C   LIG A   1      -8.572  -1.546 124.952  0.00  0.00    +0.008 C 
ATOM     10  C   LIG A   1      -9.127  -1.949 123.792  0.00  0.00    -0.077 C 
ATOM     11  C   LIG A   1      -9.466  -3.374 123.452  0.00  0.00    +0.038 C 
ATOM     12  C   LIG A   1      -9.449  -0.960 122.700  0.00  0.00    +0.038 C 
ENDBRANCH   8   9
ENDBRANCH   4   8
BRANCH   4  13
ATOM     13  C   LIG A   1      -5.853  -1.544 125.769  0.00  0.00    +0.227 C 
BRANCH  13  14
ATOM     14  C   LIG A   1      -5.238  -2.802 125.210  0.00  0.00    +0.008 C 
ATOM     15  C   LIG A   1      -5.155  -3.206 123.924  0.00  0.00    -0.077 C 
ATOM     16  C   LIG A   1      -5.665  -2.443 122.729  0.00  0.00    +0.038 C 
ATOM     17  C   LIG A   1      -4.530  -4.533 123.578  0.00  0.00    +0.038 C 
ENDBRANCH  13  14
ENDBRANCH   4  13
TORSDOF 4
ENDMDL
MODEL 9
REMARK VINA RESULT:      -5.4      8.291      9.886
REMARK  Name = NuBBE_42
REMARK  8 active torsions:
REMARK  status: ('A' for Active; 'I' for Inactive)
REMARK    1  A    between atoms: N_4  and  C_5
REMARK    2  A    between atoms: N_4  and  C_10
REMARK    3  A    between atoms: C_5  and  C_6
REMARK    4  A    between atoms: C_7  and  C_8
REMARK    5  A    between atoms: C_7  and  C_9
REMARK    6  A    between atoms: C_10  and  C_11
REMARK    7  A    between atoms: C_12  and  C_13
REMARK    8  A    between atoms: C_12  and  C_14
REMARK                            x       y       z     vdW  Elec       q    Type
REMARK                         _______ _______ _______ _____ _____    ______ ____
ROOT
ATOM      1  N   LIG A   1      -8.852   3.669 124.755  0.00  0.00    -0.130 NA
ATOM      2  C   LIG A   1      -8.220   3.086 123.796  0.00  0.00    +0.379 C 
ATOM      3  N   LIG A   1      -8.737   1.966 123.235  0.00  0.00    -0.289 N 
ATOM      4  N   LIG A   1      -7.003   3.500 123.310  0.00  0.00    -0.256 N 
ATOM      5  H   LIG A   1      -9.715   3.162 124.952  0.00  0.00    +0.306 HD
ATOM      6  H   LIG A   1      -9.699   1.754 123.461  0.00  0.00    +0.255 HD
ATOM      7  H   LIG A   1      -8.557   1.856 122.249  0.00  0.00    +0.255 HD
ENDROOT
BRANCH   4   8
ATOM      8  C   LIG A   1      -6.288   2.809 122.231  0.00  0.00    +0.227 C 
BRANCH   8   9
ATOM      9  C   LIG A   1      -5.667   3.829 121.307  0.00  0.00    +0.008 C 
ATOM     10  C   LIG A   1      -6.238   4.415 120.237  0.00  0.00    -0.077 C 
ATOM     11  C   LIG A   1      -7.647   4.170 119.774  0.00  0.00    +0.038 C 
ATOM     12  C   LIG A   1      -5.467   5.390 119.382  0.00  0.00    +0.038 C 
ENDBRANCH   8   9
ENDBRANCH   4   8
BRANCH   4  13
ATOM     13  C   LIG A   1      -6.190   4.423 124.119  0.00  0.00    +0.227 C 
BRANCH  13  14
ATOM     14  C   LIG A   1      -5.138   3.669 124.892  0.00  0.00    +0.008 C 
ATOM     15  C   LIG A   1      -5.112   3.356 126.205  0.00  0.00    -0.077 C 
ATOM     16  C   LIG A   1      -6.183   3.694 127.209  0.00  0.00    +0.038 C 
ATOM     17  C   LIG A   1      -3.933   2.624 126.794  0.00  0.00    +0.038 C 
ENDBRANCH  13  14
ENDBRANCH   4  13
TORSDOF 4
ENDMDL
