MODEL 1
REMARK VINA RESULT:      -7.9      0.000      0.000
REMARK  Name = NuBBE_2487
REMARK  4 active torsions:
REMARK  status: ('A' for Active; 'I' for Inactive)
REMARK    1  A    between atoms: C_9  and  O_12
REMARK    2  A    between atoms: O_12  and  C_13
REMARK    3  A    between atoms: C_19  and  O_21
REMARK    4  A    between atoms: O_21  and  C_22
REMARK                            x       y       z     vdW  Elec       q    Type
REMARK                         _______ _______ _______ _____ _____    ______ ____
ROOT
ATOM      1  O   LIG A   1      -8.613   4.907 134.033  0.00  0.00    -0.244 OA
ATOM      2  C   LIG A   1      -8.848   5.521 132.997  0.00  0.00    +0.349 A 
ATOM      3  C   LIG A   1      -7.822   6.135 132.185  0.00  0.00    +0.113 A 
ATOM      4  C   LIG A   1      -8.171   6.805 131.042  0.00  0.00    +0.154 A 
ATOM      5  C   LIG A   1      -9.499   6.969 130.537  0.00  0.00    +0.061 A 
ATOM      6  C   LIG A   1     -10.505   6.379 131.310  0.00  0.00    +0.146 A 
ATOM      7  O   LIG A   1     -10.179   5.676 132.514  0.00  0.00    -0.421 OA
ATOM      8  C   LIG A   1     -11.841   6.458 130.933  0.00  0.00    +0.092 A 
ATOM      9  C   LIG A   1     -12.176   7.136 129.754  0.00  0.00    +0.124 A 
ATOM     10  C   LIG A   1     -11.169   7.730 128.981  0.00  0.00    +0.046 A 
ATOM     11  C   LIG A   1      -9.829   7.646 129.370  0.00  0.00    +0.019 A 
ATOM     12  O   LIG A   1      -7.105   7.323 130.400  0.00  0.00    -0.454 OA
ATOM     13  C   LIG A   1      -6.021   6.976 131.154  0.00  0.00    +0.140 A 
ATOM     14  C   LIG A   1      -6.410   6.236 132.271  0.00  0.00    +0.035 A 
ATOM     15  C   LIG A   1      -5.408   5.795 133.153  0.00  0.00    +0.016 A 
ATOM     16  C   LIG A   1      -4.074   6.129 132.869  0.00  0.00    +0.046 A 
ATOM     17  C   LIG A   1      -3.724   6.883 131.740  0.00  0.00    +0.124 A 
ATOM     18  C   LIG A   1      -4.706   7.320 130.849  0.00  0.00    +0.092 A 
ENDROOT
BRANCH   9  19
ATOM     19  O   LIG A   1     -13.513   7.151 129.460  0.00  0.00    -0.495 OA
ATOM     20  C   LIG A   1     -13.861   7.153 128.079  0.00  0.00    +0.277 C 
ENDBRANCH   9  19
BRANCH  17  21
ATOM     21  O   LIG A   1      -2.382   7.135 131.614  0.00  0.00    -0.495 OA
ATOM     22  C   LIG A   1      -1.498   6.181 132.194  0.00  0.00    +0.277 C 
ENDBRANCH  17  21
TORSDOF 2
ENDMDL
MODEL 2
REMARK VINA RESULT:      -7.8      0.855      7.055
REMARK  Name = NuBBE_2487
REMARK  4 active torsions:
REMARK  status: ('A' for Active; 'I' for Inactive)
REMARK    1  A    between atoms: C_9  and  O_12
REMARK    2  A    between atoms: O_12  and  C_13
REMARK    3  A    between atoms: C_19  and  O_21
REMARK    4  A    between atoms: O_21  and  C_22
REMARK                            x       y       z     vdW  Elec       q    Type
REMARK                         _______ _______ _______ _____ _____    ______ ____
ROOT
ATOM      1  O   LIG A   1      -9.400   4.682 133.523  0.00  0.00    -0.244 OA
ATOM      2  C   LIG A   1      -8.574   5.298 132.856  0.00  0.00    +0.349 A 
ATOM      3  C   LIG A   1      -8.926   6.145 131.740  0.00  0.00    +0.113 A 
ATOM      4  C   LIG A   1      -7.941   6.797 131.046  0.00  0.00    +0.154 A 
ATOM      5  C   LIG A   1      -6.538   6.733 131.318  0.00  0.00    +0.061 A 
ATOM      6  C   LIG A   1      -6.180   5.917 132.397  0.00  0.00    +0.146 A 
ATOM      7  O   LIG A   1      -7.181   5.216 133.143  0.00  0.00    -0.421 OA
ATOM      8  C   LIG A   1      -4.850   5.768 132.775  0.00  0.00    +0.092 A 
ATOM      9  C   LIG A   1      -3.859   6.453 132.061  0.00  0.00    +0.124 A 
ATOM     10  C   LIG A   1      -4.217   7.267 130.977  0.00  0.00    +0.046 A 
ATOM     11  C   LIG A   1      -5.557   7.410 130.605  0.00  0.00    +0.019 A 
ATOM     12  O   LIG A   1      -8.427   7.543 130.034  0.00  0.00    -0.454 OA
ATOM     13  C   LIG A   1      -9.781   7.369 130.071  0.00  0.00    +0.140 A 
ATOM     14  C   LIG A   1     -10.143   6.514 131.113  0.00  0.00    +0.035 A 
ATOM     15  C   LIG A   1     -11.508   6.233 131.293  0.00  0.00    +0.016 A 
ATOM     16  C   LIG A   1     -12.433   6.820 130.412  0.00  0.00    +0.046 A 
ATOM     17  C   LIG A   1     -12.029   7.667 129.371  0.00  0.00    +0.124 A 
ATOM     18  C   LIG A   1     -10.677   7.965 129.186  0.00  0.00    +0.092 A 
ENDROOT
BRANCH   9  19
ATOM     19  O   LIG A   1      -2.582   6.252 132.512  0.00  0.00    -0.495 OA
ATOM     20  C   LIG A   1      -1.532   6.494 131.582  0.00  0.00    +0.277 C 
ENDBRANCH   9  19
BRANCH  17  21
ATOM     21  O   LIG A   1     -13.051   8.146 128.594  0.00  0.00    -0.495 OA
ATOM     22  C   LIG A   1     -13.795   7.182 127.856  0.00  0.00    +0.277 C 
ENDBRANCH  17  21
TORSDOF 2
ENDMDL
MODEL 3
REMARK VINA RESULT:      -7.8      3.502      7.191
REMARK  Name = NuBBE_2487
REMARK  4 active torsions:
REMARK  status: ('A' for Active; 'I' for Inactive)
REMARK    1  A    between atoms: C_9  and  O_12
REMARK    2  A    between atoms: O_12  and  C_13
REMARK    3  A    between atoms: C_19  and  O_21
REMARK    4  A    between atoms: O_21  and  C_22
REMARK                            x       y       z     vdW  Elec       q    Type
REMARK                         _______ _______ _______ _____ _____    ______ ____
ROOT
ATOM      1  O   LIG A   1      -8.518   5.025 127.748  0.00  0.00    -0.244 OA
ATOM      2  C   LIG A   1      -8.777   4.968 128.946  0.00  0.00    +0.349 A 
ATOM      3  C   LIG A   1      -9.760   5.809 129.589  0.00  0.00    +0.113 A 
ATOM      4  C   LIG A   1      -9.987   5.682 130.934  0.00  0.00    +0.154 A 
ATOM      5  C   LIG A   1      -9.332   4.763 131.814  0.00  0.00    +0.061 A 
ATOM      6  C   LIG A   1      -8.378   3.939 131.207  0.00  0.00    +0.146 A 
ATOM      7  O   LIG A   1      -8.110   4.047 129.805  0.00  0.00    -0.421 OA
ATOM      8  C   LIG A   1      -7.670   2.996 131.944  0.00  0.00    +0.092 A 
ATOM      9  C   LIG A   1      -7.926   2.872 133.315  0.00  0.00    +0.124 A 
ATOM     10  C   LIG A   1      -8.879   3.700 133.924  0.00  0.00    +0.046 A 
ATOM     11  C   LIG A   1      -9.585   4.646 133.175  0.00  0.00    +0.019 A 
ATOM     12  O   LIG A   1     -10.926   6.537 131.384  0.00  0.00    -0.454 OA
ATOM     13  C   LIG A   1     -11.326   7.249 130.289  0.00  0.00    +0.140 A 
ATOM     14  C   LIG A   1     -10.635   6.834 129.149  0.00  0.00    +0.035 A 
ATOM     15  C   LIG A   1     -10.934   7.467 127.930  0.00  0.00    +0.016 A 
ATOM     16  C   LIG A   1     -11.901   8.485 127.925  0.00  0.00    +0.046 A 
ATOM     17  C   LIG A   1     -12.567   8.880 129.094  0.00  0.00    +0.124 A 
ATOM     18  C   LIG A   1     -12.290   8.254 130.311  0.00  0.00    +0.092 A 
ENDROOT
BRANCH   9  19
ATOM     19  O   LIG A   1      -7.189   1.911 133.953  0.00  0.00    -0.495 OA
ATOM     20  C   LIG A   1      -6.697   0.845 133.148  0.00  0.00    +0.277 C 
ENDBRANCH   9  19
BRANCH  17  21
ATOM     21  O   LIG A   1     -13.471   9.895 128.922  0.00  0.00    -0.495 OA
ATOM     22  C   LIG A   1     -13.470  10.924 129.906  0.00  0.00    +0.277 C 
ENDBRANCH  17  21
TORSDOF 2
ENDMDL
MODEL 4
REMARK VINA RESULT:      -7.5      7.304      9.865
REMARK  Name = NuBBE_2487
REMARK  4 active torsions:
REMARK  status: ('A' for Active; 'I' for Inactive)
REMARK    1  A    between atoms: C_9  and  O_12
REMARK    2  A    between atoms: O_12  and  C_13
REMARK    3  A    between atoms: C_19  and  O_21
REMARK    4  A    between atoms: O_21  and  C_22
REMARK                            x       y       z     vdW  Elec       q    Type
REMARK                         _______ _______ _______ _____ _____    ______ ____
ROOT
ATOM      1  O   LIG A   1      -8.778   5.056 125.609  0.00  0.00    -0.244 OA
ATOM      2  C   LIG A   1      -7.713   4.471 125.779  0.00  0.00    +0.349 A 
ATOM      3  C   LIG A   1      -7.471   3.115 125.342  0.00  0.00    +0.113 A 
ATOM      4  C   LIG A   1      -6.252   2.535 125.573  0.00  0.00    +0.154 A 
ATOM      5  C   LIG A   1      -5.138   3.152 126.226  0.00  0.00    +0.061 A 
ATOM      6  C   LIG A   1      -5.355   4.466 126.655  0.00  0.00    +0.146 A 
ATOM      7  O   LIG A   1      -6.618   5.103 126.435  0.00  0.00    -0.421 OA
ATOM      8  C   LIG A   1      -4.355   5.186 127.299  0.00  0.00    +0.092 A 
ATOM      9  C   LIG A   1      -3.111   4.580 127.514  0.00  0.00    +0.124 A 
ATOM     10  C   LIG A   1      -2.895   3.262 127.089  0.00  0.00    +0.046 A 
ATOM     11  C   LIG A   1      -3.907   2.546 126.442  0.00  0.00    +0.019 A 
ATOM     12  O   LIG A   1      -6.184   1.271 125.112  0.00  0.00    -0.454 OA
ATOM     13  C   LIG A   1      -7.407   1.018 124.559  0.00  0.00    +0.140 A 
ATOM     14  C   LIG A   1      -8.241   2.131 124.672  0.00  0.00    +0.035 A 
ATOM     15  C   LIG A   1      -9.541   2.038 124.146  0.00  0.00    +0.016 A 
ATOM     16  C   LIG A   1      -9.933   0.831 123.543  0.00  0.00    +0.046 A 
ATOM     17  C   LIG A   1      -9.068  -0.268 123.456  0.00  0.00    +0.124 A 
ATOM     18  C   LIG A   1      -7.769  -0.188 123.964  0.00  0.00    +0.092 A 
ENDROOT
BRANCH   9  19
ATOM     19  O   LIG A   1      -2.188   5.369 128.146  0.00  0.00    -0.495 OA
ATOM     20  C   LIG A   1      -2.463   6.765 128.185  0.00  0.00    +0.277 C 
ENDBRANCH   9  19
BRANCH  17  21
ATOM     21  O   LIG A   1      -9.607  -1.374 122.851  0.00  0.00    -0.495 OA
ATOM     22  C   LIG A   1      -9.141  -2.640 123.307  0.00  0.00    +0.277 C 
ENDBRANCH  17  21
TORSDOF 2
ENDMDL
MODEL 5
REMARK VINA RESULT:      -7.3      3.691      4.526
REMARK  Name = NuBBE_2487
REMARK  4 active torsions:
REMARK  status: ('A' for Active; 'I' for Inactive)
REMARK    1  A    between atoms: C_9  and  O_12
REMARK    2  A    between atoms: O_12  and  C_13
REMARK    3  A    between atoms: C_19  and  O_21
REMARK    4  A    between atoms: O_21  and  C_22
REMARK                            x       y       z     vdW  Elec       q    Type
REMARK                         _______ _______ _______ _____ _____    ______ ____
ROOT
ATOM      1  O   LIG A   1      -8.178   4.930 127.774  0.00  0.00    -0.244 OA
ATOM      2  C   LIG A   1      -8.999   5.366 128.575  0.00  0.00    +0.349 A 
ATOM      3  C   LIG A   1      -9.167   4.839 129.909  0.00  0.00    +0.113 A 
ATOM      4  C   LIG A   1     -10.110   5.383 130.741  0.00  0.00    +0.154 A 
ATOM      5  C   LIG A   1     -10.985   6.469 130.422  0.00  0.00    +0.061 A 
ATOM      6  C   LIG A   1     -10.834   6.994 129.133  0.00  0.00    +0.146 A 
ATOM      7  O   LIG A   1      -9.863   6.447 128.235  0.00  0.00    -0.421 OA
ATOM      8  C   LIG A   1     -11.617   8.055 128.693  0.00  0.00    +0.092 A 
ATOM      9  C   LIG A   1     -12.566   8.607 129.562  0.00  0.00    +0.124 A 
ATOM     10  C   LIG A   1     -12.720   8.079 130.852  0.00  0.00    +0.046 A 
ATOM     11  C   LIG A   1     -11.929   7.011 131.285  0.00  0.00    +0.019 A 
ATOM     12  O   LIG A   1     -10.149   4.781 131.946  0.00  0.00    -0.454 OA
ATOM     13  C   LIG A   1      -9.193   3.806 131.897  0.00  0.00    +0.140 A 
ATOM     14  C   LIG A   1      -8.553   3.802 130.656  0.00  0.00    +0.035 A 
ATOM     15  C   LIG A   1      -7.534   2.857 130.443  0.00  0.00    +0.016 A 
ATOM     16  C   LIG A   1      -7.222   1.965 131.482  0.00  0.00    +0.046 A 
ATOM     17  C   LIG A   1      -7.895   1.995 132.711  0.00  0.00    +0.124 A 
ATOM     18  C   LIG A   1      -8.901   2.935 132.944  0.00  0.00    +0.092 A 
ENDROOT
BRANCH   9  19
ATOM     19  O   LIG A   1     -13.281   9.653 129.044  0.00  0.00    -0.495 OA
ATOM     20  C   LIG A   1     -13.456  10.785 129.889  0.00  0.00    +0.277 C 
ENDBRANCH   9  19
BRANCH  17  21
ATOM     21  O   LIG A   1      -7.480   1.051 133.614  0.00  0.00    -0.495 OA
ATOM     22  C   LIG A   1      -6.078   0.966 133.849  0.00  0.00    +0.277 C 
ENDBRANCH  17  21
TORSDOF 2
ENDMDL
MODEL 6
REMARK VINA RESULT:      -7.3      9.485     10.192
REMARK  Name = NuBBE_2487
REMARK  4 active torsions:
REMARK  status: ('A' for Active; 'I' for Inactive)
REMARK    1  A    between atoms: C_9  and  O_12
REMARK    2  A    between atoms: O_12  and  C_13
REMARK    3  A    between atoms: C_19  and  O_21
REMARK    4  A    between atoms: O_21  and  C_22
REMARK                            x       y       z     vdW  Elec       q    Type
REMARK                         _______ _______ _______ _____ _____    ______ ____
ROOT
ATOM      1  O   LIG A   1      -9.794  -3.121 123.950  0.00  0.00    -0.244 OA
ATOM      2  C   LIG A   1      -9.413  -1.983 124.210  0.00  0.00    +0.349 A 
ATOM      3  C   LIG A   1      -8.854  -1.603 125.486  0.00  0.00    +0.113 A 
ATOM      4  C   LIG A   1      -8.456  -0.309 125.695  0.00  0.00    +0.154 A 
ATOM      5  C   LIG A   1      -8.532   0.757 124.744  0.00  0.00    +0.061 A 
ATOM      6  C   LIG A   1      -9.070   0.406 123.501  0.00  0.00    +0.146 A 
ATOM      7  O   LIG A   1      -9.502  -0.935 123.249  0.00  0.00    -0.421 OA
ATOM      8  C   LIG A   1      -9.197   1.344 122.483  0.00  0.00    +0.092 A 
ATOM      9  C   LIG A   1      -8.772   2.658 122.711  0.00  0.00    +0.124 A 
ATOM     10  C   LIG A   1      -8.236   3.012 123.958  0.00  0.00    +0.046 A 
ATOM     11  C   LIG A   1      -8.114   2.062 124.976  0.00  0.00    +0.019 A 
ATOM     12  O   LIG A   1      -7.961  -0.113 126.933  0.00  0.00    -0.454 OA
ATOM     13  C   LIG A   1      -8.041  -1.327 127.555  0.00  0.00    +0.140 A 
ATOM     14  C   LIG A   1      -8.585  -2.286 126.700  0.00  0.00    +0.035 A 
ATOM     15  C   LIG A   1      -8.731  -3.597 127.186  0.00  0.00    +0.016 A 
ATOM     16  C   LIG A   1      -8.332  -3.868 128.505  0.00  0.00    +0.046 A 
ATOM     17  C   LIG A   1      -7.798  -2.874 129.336  0.00  0.00    +0.124 A 
ATOM     18  C   LIG A   1      -7.635  -1.570 128.865  0.00  0.00    +0.092 A 
ENDROOT
BRANCH   9  19
ATOM     19  O   LIG A   1      -8.927   3.507 121.648  0.00  0.00    -0.495 OA
ATOM     20  C   LIG A   1      -7.777   3.733 120.840  0.00  0.00    +0.277 C 
ENDBRANCH   9  19
BRANCH  17  21
ATOM     21  O   LIG A   1      -7.471  -3.298 130.598  0.00  0.00    -0.495 OA
ATOM     22  C   LIG A   1      -6.196  -3.914 130.753  0.00  0.00    +0.277 C 
ENDBRANCH  17  21
TORSDOF 2
ENDMDL
MODEL 7
REMARK VINA RESULT:      -7.0      2.141      3.435
REMARK  Name = NuBBE_2487
REMARK  4 active torsions:
REMARK  status: ('A' for Active; 'I' for Inactive)
REMARK    1  A    between atoms: C_9  and  O_12
REMARK    2  A    between atoms: O_12  and  C_13
REMARK    3  A    between atoms: C_19  and  O_21
REMARK    4  A    between atoms: O_21  and  C_22
REMARK                            x       y       z     vdW  Elec       q    Type
REMARK                         _______ _______ _______ _____ _____    ______ ____
ROOT
ATOM      1  O   LIG A   1      -6.817   5.454 129.662  0.00  0.00    -0.244 OA
ATOM      2  C   LIG A   1      -7.896   5.752 130.164  0.00  0.00    +0.349 A 
ATOM      3  C   LIG A   1      -8.122   5.812 131.589  0.00  0.00    +0.113 A 
ATOM      4  C   LIG A   1      -9.360   6.151 132.067  0.00  0.00    +0.154 A 
ATOM      5  C   LIG A   1     -10.507   6.472 131.275  0.00  0.00    +0.061 A 
ATOM      6  C   LIG A   1     -10.306   6.420 129.891  0.00  0.00    +0.146 A 
ATOM      7  O   LIG A   1      -9.027   6.064 129.355  0.00  0.00    -0.421 OA
ATOM      8  C   LIG A   1     -11.335   6.714 129.004  0.00  0.00    +0.092 A 
ATOM      9  C   LIG A   1     -12.590   7.071 129.512  0.00  0.00    +0.124 A 
ATOM     10  C   LIG A   1     -12.794   7.119 130.898  0.00  0.00    +0.046 A 
ATOM     11  C   LIG A   1     -11.753   6.822 131.782  0.00  0.00    +0.019 A 
ATOM     12  O   LIG A   1      -9.411   6.159 133.413  0.00  0.00    -0.454 OA
ATOM     13  C   LIG A   1      -8.158   5.811 133.828  0.00  0.00    +0.140 A 
ATOM     14  C   LIG A   1      -7.318   5.588 132.736  0.00  0.00    +0.035 A 
ATOM     15  C   LIG A   1      -5.985   5.224 132.991  0.00  0.00    +0.016 A 
ATOM     16  C   LIG A   1      -5.571   5.096 134.328  0.00  0.00    +0.046 A 
ATOM     17  C   LIG A   1      -6.448   5.320 135.398  0.00  0.00    +0.124 A 
ATOM     18  C   LIG A   1      -7.773   5.693 135.162  0.00  0.00    +0.092 A 
ENDROOT
BRANCH   9  19
ATOM     19  O   LIG A   1     -13.537   7.352 128.563  0.00  0.00    -0.495 OA
ATOM     20  C   LIG A   1     -13.576   8.690 128.079  0.00  0.00    +0.277 C 
ENDBRANCH   9  19
BRANCH  17  21
ATOM     21  O   LIG A   1      -5.893   5.141 136.639  0.00  0.00    -0.495 OA
ATOM     22  C   LIG A   1      -6.298   6.051 137.656  0.00  0.00    +0.277 C 
ENDBRANCH  17  21
TORSDOF 2
ENDMDL
MODEL 8
REMARK VINA RESULT:      -6.5      9.680     11.544
REMARK  Name = NuBBE_2487
REMARK  4 active torsions:
REMARK  status: ('A' for Active; 'I' for Inactive)
REMARK    1  A    between atoms: C_9  and  O_12
REMARK    2  A    between atoms: O_12  and  C_13
REMARK    3  A    between atoms: C_19  and  O_21
REMARK    4  A    between atoms: O_21  and  C_22
REMARK                            x       y       z     vdW  Elec       q    Type
REMARK                         _______ _______ _______ _____ _____    ______ ____
ROOT
ATOM      1  O   LIG A   1      -9.221  -3.959 128.317  0.00  0.00    -0.244 OA
ATOM      2  C   LIG A   1      -8.084  -3.531 128.491  0.00  0.00    +0.349 A 
ATOM      3  C   LIG A   1      -7.481  -2.515 127.660  0.00  0.00    +0.113 A 
ATOM      4  C   LIG A   1      -6.204  -2.094 127.921  0.00  0.00    +0.154 A 
ATOM      5  C   LIG A   1      -5.364  -2.566 128.978  0.00  0.00    +0.061 A 
ATOM      6  C   LIG A   1      -5.933  -3.550 129.794  0.00  0.00    +0.146 A 
ATOM      7  O   LIG A   1      -7.263  -4.019 129.548  0.00  0.00    -0.421 OA
ATOM      8  C   LIG A   1      -5.228  -4.094 130.862  0.00  0.00    +0.092 A 
ATOM      9  C   LIG A   1      -3.929  -3.641 131.122  0.00  0.00    +0.124 A 
ATOM     10  C   LIG A   1      -3.356  -2.658 130.302  0.00  0.00    +0.046 A 
ATOM     11  C   LIG A   1      -4.073  -2.118 129.230  0.00  0.00    +0.019 A 
ATOM     12  O   LIG A   1      -5.783  -1.149 127.058  0.00  0.00    -0.454 OA
ATOM     13  C   LIG A   1      -6.827  -0.947 126.201  0.00  0.00    +0.140 A 
ATOM     14  C   LIG A   1      -7.906  -1.768 126.532  0.00  0.00    +0.035 A 
ATOM     15  C   LIG A   1      -9.068  -1.680 125.747  0.00  0.00    +0.016 A 
ATOM     16  C   LIG A   1      -9.079  -0.779 124.668  0.00  0.00    +0.046 A 
ATOM     17  C   LIG A   1      -7.971   0.022 124.362  0.00  0.00    +0.124 A 
ATOM     18  C   LIG A   1      -6.812  -0.046 125.139  0.00  0.00    +0.092 A 
ENDROOT
BRANCH   9  19
ATOM     19  O   LIG A   1      -3.319  -4.227 132.198  0.00  0.00    -0.495 OA
ATOM     20  C   LIG A   1      -4.157  -4.568 133.298  0.00  0.00    +0.277 C 
ENDBRANCH   9  19
BRANCH  17  21
ATOM     21  O   LIG A   1      -8.137   0.836 123.271  0.00  0.00    -0.495 OA
ATOM     22  C   LIG A   1      -9.175   1.808 123.354  0.00  0.00    +0.277 C 
ENDBRANCH  17  21
TORSDOF 2
ENDMDL
MODEL 9
REMARK VINA RESULT:      -6.5      1.976      7.291
REMARK  Name = NuBBE_2487
REMARK  4 active torsions:
REMARK  status: ('A' for Active; 'I' for Inactive)
REMARK    1  A    between atoms: C_9  and  O_12
REMARK    2  A    between atoms: O_12  and  C_13
REMARK    3  A    between atoms: C_19  and  O_21
REMARK    4  A    between atoms: O_21  and  C_22
REMARK                            x       y       z     vdW  Elec       q    Type
REMARK                         _______ _______ _______ _____ _____    ______ ____
ROOT
ATOM      1  O   LIG A   1      -7.001   2.446 130.680  0.00  0.00    -0.244 OA
ATOM      2  C   LIG A   1      -6.547   3.586 130.689  0.00  0.00    +0.349 A 
ATOM      3  C   LIG A   1      -7.371   4.771 130.628  0.00  0.00    +0.113 A 
ATOM      4  C   LIG A   1      -6.783   6.008 130.640  0.00  0.00    +0.154 A 
ATOM      5  C   LIG A   1      -5.378   6.270 130.714  0.00  0.00    +0.061 A 
ATOM      6  C   LIG A   1      -4.565   5.133 130.775  0.00  0.00    +0.146 A 
ATOM      7  O   LIG A   1      -5.144   3.824 130.759  0.00  0.00    -0.421 OA
ATOM      8  C   LIG A   1      -3.181   5.243 130.855  0.00  0.00    +0.092 A 
ATOM      9  C   LIG A   1      -2.600   6.516 130.880  0.00  0.00    +0.124 A 
ATOM     10  C   LIG A   1      -3.414   7.656 130.815  0.00  0.00    +0.046 A 
ATOM     11  C   LIG A   1      -4.804   7.535 130.734  0.00  0.00    +0.019 A 
ATOM     12  O   LIG A   1      -7.682   7.010 130.574  0.00  0.00    -0.454 OA
ATOM     13  C   LIG A   1      -8.903   6.401 130.516  0.00  0.00    +0.140 A 
ATOM     14  C   LIG A   1      -8.766   5.013 130.550  0.00  0.00    +0.035 A 
ATOM     15  C   LIG A   1      -9.934   4.233 130.503  0.00  0.00    +0.016 A 
ATOM     16  C   LIG A   1     -11.173   4.890 130.417  0.00  0.00    +0.046 A 
ATOM     17  C   LIG A   1     -11.268   6.288 130.376  0.00  0.00    +0.124 A 
ATOM     18  C   LIG A   1     -10.118   7.077 130.433  0.00  0.00    +0.092 A 
ENDROOT
BRANCH   9  19
ATOM     19  O   LIG A   1      -1.234   6.523 130.970  0.00  0.00    -0.495 OA
ATOM     20  C   LIG A   1      -0.682   6.590 132.280  0.00  0.00    +0.277 C 
ENDBRANCH   9  19
BRANCH  17  21
ATOM     21  O   LIG A   1     -12.547   6.771 130.278  0.00  0.00    -0.495 OA
ATOM     22  C   LIG A   1     -12.690   8.101 129.788  0.00  0.00    +0.277 C 
ENDBRANCH  17  21
TORSDOF 2
ENDMDL
