MODEL 1
REMARK VINA RESULT:      -8.6      0.000      0.000
REMARK  Name = NuBBE_2160
REMARK  9 active torsions:
REMARK  status: ('A' for Active; 'I' for Inactive)
REMARK    1  A    between atoms: O_1  and  C_2
REMARK    2  A    between atoms: C_7  and  C_8
REMARK    3  A    between atoms: C_18  and  C_19
REMARK    4  A    between atoms: C_24  and  C_26
REMARK    5  A    between atoms: C_26  and  C_28
REMARK    6  A    between atoms: C_26  and  C_29
REMARK    7  A    between atoms: C_30  and  C_31
REMARK    8  A    between atoms: C_31  and  C_32
REMARK    9  A    between atoms: C_31  and  C_33
REMARK                            x       y       z     vdW  Elec       q    Type
REMARK                         _______ _______ _______ _____ _____    ______ ____
ROOT
ATOM      1  C   LIG A   1      -5.553  -4.178 131.386  0.00  0.00    +0.119 C 
ATOM      2  C   LIG A   1      -6.939  -3.512 131.382  0.00  0.00    +0.062 C 
ATOM      3  C   LIG A   1      -4.441  -3.287 130.816  0.00  0.00    +0.032 C 
ATOM      4  C   LIG A   1      -4.834  -2.583 129.502  0.00  0.00    +0.013 C 
ATOM      5  C   LIG A   1      -6.202  -1.838 129.572  0.00  0.00    -0.008 C 
ATOM      6  C   LIG A   1      -6.088  -0.692 130.611  0.00  0.00    +0.016 C 
ATOM      7  C   LIG A   1      -7.209  -2.890 130.026  0.00  0.00    -0.065 C 
ATOM      8  C   LIG A   1      -8.183  -3.366 129.231  0.00  0.00    -0.027 C 
ATOM      9  C   LIG A   1      -8.372  -2.973 127.798  0.00  0.00    +0.031 C 
ATOM     10  C   LIG A   1      -7.139  -2.283 127.182  0.00  0.00    +0.000 C 
ATOM     11  C   LIG A   1      -6.547  -1.231 128.153  0.00  0.00    +0.003 C 
ATOM     12  C   LIG A   1      -7.475  -0.000 128.174  0.00  0.00    +0.005 C 
ATOM     13  C   LIG A   1      -7.584   0.625 126.785  0.00  0.00    +0.007 C 
ATOM     14  C   LIG A   1      -8.143  -0.319 125.701  0.00  0.00    -0.026 C 
ATOM     15  C   LIG A   1      -9.671  -0.480 125.856  0.00  0.00    +0.012 C 
ATOM     16  C   LIG A   1      -7.440  -1.708 125.768  0.00  0.00    -0.001 C 
ATOM     17  C   LIG A   1      -6.148  -1.494 124.973  0.00  0.00    +0.004 C 
ATOM     18  C   LIG A   1      -6.483  -0.504 123.870  0.00  0.00    +0.005 C 
ATOM     19  C   LIG A   1      -7.815   0.184 124.244  0.00  0.00    +0.002 C 
ENDROOT
BRANCH   1  20
ATOM     20  O   LIG A   1      -5.599  -5.397 130.638  0.00  0.00    -0.392 OA
ATOM     21  H   LIG A   1      -4.820  -5.922 130.893  0.00  0.00    +0.210 HD
ENDBRANCH   1  20
BRANCH  19  22
ATOM     22  C   LIG A   1      -7.760   1.725 123.986  0.00  0.00    +0.012 C 
ATOM     23  C   LIG A   1      -9.121   2.340 123.632  0.00  0.00    +0.012 C 
BRANCH  22  24
ATOM     24  C   LIG A   1      -6.790   2.073 122.861  0.00  0.00    -0.027 C 
ATOM     25  C   LIG A   1      -6.744   3.266 122.249  0.00  0.00    -0.028 C 
BRANCH  25  26
ATOM     26  C   LIG A   1      -5.815   3.612 121.105  0.00  0.00    +0.005 C 
ATOM     27  C   LIG A   1      -6.612   4.192 119.934  0.00  0.00    +0.011 C 
ATOM     28  C   LIG A   1      -4.726   4.596 121.534  0.00  0.00    +0.011 C 
ENDBRANCH  25  26
ENDBRANCH  22  24
ENDBRANCH  19  22
TORSDOF 4
ENDMDL
MODEL 2
REMARK VINA RESULT:      -8.2      3.391      6.070
REMARK  Name = NuBBE_2160
REMARK  9 active torsions:
REMARK  status: ('A' for Active; 'I' for Inactive)
REMARK    1  A    between atoms: O_1  and  C_2
REMARK    2  A    between atoms: C_7  and  C_8
REMARK    3  A    between atoms: C_18  and  C_19
REMARK    4  A    between atoms: C_24  and  C_26
REMARK    5  A    between atoms: C_26  and  C_28
REMARK    6  A    between atoms: C_26  and  C_29
REMARK    7  A    between atoms: C_30  and  C_31
REMARK    8  A    between atoms: C_31  and  C_32
REMARK    9  A    between atoms: C_31  and  C_33
REMARK                            x       y       z     vdW  Elec       q    Type
REMARK                         _______ _______ _______ _____ _____    ______ ____
ROOT
ATOM      1  C   LIG A   1      -8.824  -3.238 123.292  0.00  0.00    +0.119 C 
ATOM      2  C   LIG A   1      -8.117  -4.015 124.416  0.00  0.00    +0.062 C 
ATOM      3  C   LIG A   1      -8.134  -1.917 122.929  0.00  0.00    +0.032 C 
ATOM      4  C   LIG A   1      -7.728  -1.080 124.158  0.00  0.00    +0.013 C 
ATOM      5  C   LIG A   1      -6.928  -1.883 125.230  0.00  0.00    -0.008 C 
ATOM      6  C   LIG A   1      -5.583  -2.336 124.606  0.00  0.00    +0.016 C 
ATOM      7  C   LIG A   1      -7.806  -3.083 125.570  0.00  0.00    -0.065 C 
ATOM      8  C   LIG A   1      -8.408  -3.239 126.763  0.00  0.00    -0.027 C 
ATOM      9  C   LIG A   1      -8.341  -2.243 127.880  0.00  0.00    +0.031 C 
ATOM     10  C   LIG A   1      -7.862  -0.848 127.432  0.00  0.00    +0.000 C 
ATOM     11  C   LIG A   1      -6.643  -0.957 126.480  0.00  0.00    +0.003 C 
ATOM     12  C   LIG A   1      -5.401  -1.339 127.309  0.00  0.00    +0.005 C 
ATOM     13  C   LIG A   1      -5.102  -0.276 128.364  0.00  0.00    +0.007 C 
ATOM     14  C   LIG A   1      -6.241  -0.043 129.377  0.00  0.00    -0.026 C 
ATOM     15  C   LIG A   1      -6.297  -1.190 130.408  0.00  0.00    +0.012 C 
ATOM     16  C   LIG A   1      -7.609   0.096 128.642  0.00  0.00    -0.001 C 
ATOM     17  C   LIG A   1      -7.636   1.566 128.210  0.00  0.00    +0.004 C 
ATOM     18  C   LIG A   1      -6.907   2.344 129.293  0.00  0.00    +0.005 C 
ATOM     19  C   LIG A   1      -6.095   1.333 130.134  0.00  0.00    +0.002 C 
ENDROOT
BRANCH   1  20
ATOM     20  O   LIG A   1     -10.178  -2.966 123.668  0.00  0.00    -0.392 OA
ATOM     21  H   LIG A   1     -10.337  -2.019 123.508  0.00  0.00    +0.210 HD
ENDBRANCH   1  20
BRANCH  19  22
ATOM     22  C   LIG A   1      -4.656   1.861 130.440  0.00  0.00    +0.012 C 
ATOM     23  C   LIG A   1      -4.503   2.454 131.847  0.00  0.00    +0.012 C 
BRANCH  22  24
ATOM     24  C   LIG A   1      -4.225   2.930 129.440  0.00  0.00    -0.027 C 
ATOM     25  C   LIG A   1      -3.428   2.697 128.386  0.00  0.00    -0.028 C 
BRANCH  25  26
ATOM     26  C   LIG A   1      -2.959   3.754 127.410  0.00  0.00    +0.005 C 
ATOM     27  C   LIG A   1      -2.536   5.017 128.163  0.00  0.00    +0.011 C 
ATOM     28  C   LIG A   1      -1.806   3.254 126.539  0.00  0.00    +0.011 C 
ENDBRANCH  25  26
ENDBRANCH  22  24
ENDBRANCH  19  22
TORSDOF 4
ENDMDL
MODEL 3
REMARK VINA RESULT:      -8.2      2.948      4.265
REMARK  Name = NuBBE_2160
REMARK  9 active torsions:
REMARK  status: ('A' for Active; 'I' for Inactive)
REMARK    1  A    between atoms: O_1  and  C_2
REMARK    2  A    between atoms: C_7  and  C_8
REMARK    3  A    between atoms: C_18  and  C_19
REMARK    4  A    between atoms: C_24  and  C_26
REMARK    5  A    between atoms: C_26  and  C_28
REMARK    6  A    between atoms: C_26  and  C_29
REMARK    7  A    between atoms: C_30  and  C_31
REMARK    8  A    between atoms: C_31  and  C_32
REMARK    9  A    between atoms: C_31  and  C_33
REMARK                            x       y       z     vdW  Elec       q    Type
REMARK                         _______ _______ _______ _____ _____    ______ ____
ROOT
ATOM      1  C   LIG A   1      -5.221  -4.549 133.439  0.00  0.00    +0.119 C 
ATOM      2  C   LIG A   1      -5.068  -3.052 133.123  0.00  0.00    +0.062 C 
ATOM      3  C   LIG A   1      -4.917  -5.464 132.245  0.00  0.00    +0.032 C 
ATOM      4  C   LIG A   1      -5.572  -4.994 130.931  0.00  0.00    +0.013 C 
ATOM      5  C   LIG A   1      -5.310  -3.493 130.599  0.00  0.00    -0.008 C 
ATOM      6  C   LIG A   1      -3.789  -3.295 130.370  0.00  0.00    +0.016 C 
ATOM      7  C   LIG A   1      -5.783  -2.722 131.827  0.00  0.00    -0.065 C 
ATOM      8  C   LIG A   1      -6.863  -1.921 131.821  0.00  0.00    -0.027 C 
ATOM      9  C   LIG A   1      -7.764  -1.725 130.640  0.00  0.00    +0.031 C 
ATOM     10  C   LIG A   1      -7.595  -2.805 129.553  0.00  0.00    +0.000 C 
ATOM     11  C   LIG A   1      -6.097  -3.097 129.285  0.00  0.00    +0.003 C 
ATOM     12  C   LIG A   1      -5.498  -1.920 128.492  0.00  0.00    +0.005 C 
ATOM     13  C   LIG A   1      -6.208  -1.748 127.151  0.00  0.00    +0.007 C 
ATOM     14  C   LIG A   1      -7.721  -1.469 127.260  0.00  0.00    -0.026 C 
ATOM     15  C   LIG A   1      -7.975  -0.009 127.692  0.00  0.00    +0.012 C 
ATOM     16  C   LIG A   1      -8.390  -2.459 128.261  0.00  0.00    -0.001 C 
ATOM     17  C   LIG A   1      -8.639  -3.711 127.415  0.00  0.00    +0.004 C 
ATOM     18  C   LIG A   1      -8.947  -3.223 126.009  0.00  0.00    +0.005 C 
ATOM     19  C   LIG A   1      -8.480  -1.753 125.907  0.00  0.00    +0.002 C 
ENDROOT
BRANCH   1  20
ATOM     20  O   LIG A   1      -6.550  -4.814 133.899  0.00  0.00    -0.392 OA
ATOM     21  H   LIG A   1      -7.094  -4.040 133.672  0.00  0.00    +0.210 HD
ENDBRANCH   1  20
BRANCH  19  22
ATOM     22  C   LIG A   1      -7.728  -1.479 124.564  0.00  0.00    +0.012 C 
ATOM     23  C   LIG A   1      -8.659  -1.116 123.400  0.00  0.00    +0.012 C 
BRANCH  22  24
ATOM     24  C   LIG A   1      -6.894  -2.680 124.130  0.00  0.00    -0.027 C 
ATOM     25  C   LIG A   1      -5.635  -2.597 123.674  0.00  0.00    -0.028 C 
BRANCH  25  26
ATOM     26  C   LIG A   1      -4.810  -3.776 123.203  0.00  0.00    +0.005 C 
ATOM     27  C   LIG A   1      -3.320  -3.428 123.247  0.00  0.00    +0.011 C 
ATOM     28  C   LIG A   1      -5.079  -5.029 124.037  0.00  0.00    +0.011 C 
ENDBRANCH  25  26
ENDBRANCH  22  24
ENDBRANCH  19  22
TORSDOF 4
ENDMDL
MODEL 4
REMARK VINA RESULT:      -8.1      9.166     12.754
REMARK  Name = NuBBE_2160
REMARK  9 active torsions:
REMARK  status: ('A' for Active; 'I' for Inactive)
REMARK    1  A    between atoms: O_1  and  C_2
REMARK    2  A    between atoms: C_7  and  C_8
REMARK    3  A    between atoms: C_18  and  C_19
REMARK    4  A    between atoms: C_24  and  C_26
REMARK    5  A    between atoms: C_26  and  C_28
REMARK    6  A    between atoms: C_26  and  C_29
REMARK    7  A    between atoms: C_30  and  C_31
REMARK    8  A    between atoms: C_31  and  C_32
REMARK    9  A    between atoms: C_31  and  C_33
REMARK                            x       y       z     vdW  Elec       q    Type
REMARK                         _______ _______ _______ _____ _____    ______ ____
ROOT
ATOM      1  C   LIG A   1      -2.791   6.794 128.601  0.00  0.00    +0.119 C 
ATOM      2  C   LIG A   1      -1.883   6.267 129.725  0.00  0.00    +0.062 C 
ATOM      3  C   LIG A   1      -3.756   7.897 129.055  0.00  0.00    +0.032 C 
ATOM      4  C   LIG A   1      -4.465   7.580 130.386  0.00  0.00    +0.013 C 
ATOM      5  C   LIG A   1      -3.497   7.145 131.528  0.00  0.00    -0.008 C 
ATOM      6  C   LIG A   1      -2.557   8.332 131.860  0.00  0.00    +0.016 C 
ATOM      7  C   LIG A   1      -2.711   5.967 130.960  0.00  0.00    -0.065 C 
ATOM      8  C   LIG A   1      -2.851   4.706 131.405  0.00  0.00    -0.027 C 
ATOM      9  C   LIG A   1      -3.824   4.287 132.465  0.00  0.00    +0.031 C 
ATOM     10  C   LIG A   1      -4.927   5.330 132.733  0.00  0.00    +0.000 C 
ATOM     11  C   LIG A   1      -4.334   6.760 132.813  0.00  0.00    +0.003 C 
ATOM     12  C   LIG A   1      -3.586   6.910 134.152  0.00  0.00    +0.005 C 
ATOM     13  C   LIG A   1      -4.533   6.709 135.332  0.00  0.00    +0.007 C 
ATOM     14  C   LIG A   1      -5.218   5.327 135.374  0.00  0.00    -0.026 C 
ATOM     15  C   LIG A   1      -4.230   4.245 135.857  0.00  0.00    +0.012 C 
ATOM     16  C   LIG A   1      -5.791   4.957 133.973  0.00  0.00    -0.001 C 
ATOM     17  C   LIG A   1      -7.144   5.673 133.937  0.00  0.00    +0.004 C 
ATOM     18  C   LIG A   1      -7.676   5.654 135.361  0.00  0.00    +0.005 C 
ATOM     19  C   LIG A   1      -6.494   5.321 136.300  0.00  0.00    +0.002 C 
ENDROOT
BRANCH   1  20
ATOM     20  O   LIG A   1      -3.550   5.714 128.046  0.00  0.00    -0.392 OA
ATOM     21  H   LIG A   1      -4.434   5.743 128.453  0.00  0.00    +0.210 HD
ENDBRANCH   1  20
BRANCH  19  22
ATOM     22  C   LIG A   1      -6.493   6.232 137.571  0.00  0.00    +0.012 C 
ATOM     23  C   LIG A   1      -6.485   5.449 138.890  0.00  0.00    +0.012 C 
BRANCH  22  24
ATOM     24  C   LIG A   1      -7.700   7.165 137.595  0.00  0.00    -0.027 C 
ATOM     25  C   LIG A   1      -7.634   8.473 137.885  0.00  0.00    -0.028 C 
BRANCH  25  26
ATOM     26  C   LIG A   1      -8.828   9.402 137.953  0.00  0.00    +0.005 C 
ATOM     27  C   LIG A   1     -10.093   8.668 137.503  0.00  0.00    +0.011 C 
ATOM     28  C   LIG A   1      -9.026   9.972 139.358  0.00  0.00    +0.011 C 
ENDBRANCH  25  26
ENDBRANCH  22  24
ENDBRANCH  19  22
TORSDOF 4
ENDMDL
MODEL 5
REMARK VINA RESULT:      -8.1      2.929      4.689
REMARK  Name = NuBBE_2160
REMARK  9 active torsions:
REMARK  status: ('A' for Active; 'I' for Inactive)
REMARK    1  A    between atoms: O_1  and  C_2
REMARK    2  A    between atoms: C_7  and  C_8
REMARK    3  A    between atoms: C_18  and  C_19
REMARK    4  A    between atoms: C_24  and  C_26
REMARK    5  A    between atoms: C_26  and  C_28
REMARK    6  A    between atoms: C_26  and  C_29
REMARK    7  A    between atoms: C_30  and  C_31
REMARK    8  A    between atoms: C_31  and  C_32
REMARK    9  A    between atoms: C_31  and  C_33
REMARK                            x       y       z     vdW  Elec       q    Type
REMARK                         _______ _______ _______ _____ _____    ______ ____
ROOT
ATOM      1  C   LIG A   1      -5.226  -5.235 135.029  0.00  0.00    +0.119 C 
ATOM      2  C   LIG A   1      -5.215  -3.697 135.019  0.00  0.00    +0.062 C 
ATOM      3  C   LIG A   1      -4.675  -5.861 133.742  0.00  0.00    +0.032 C 
ATOM      4  C   LIG A   1      -5.218  -5.203 132.459  0.00  0.00    +0.013 C 
ATOM      5  C   LIG A   1      -5.097  -3.648 132.449  0.00  0.00    -0.008 C 
ATOM      6  C   LIG A   1      -3.594  -3.269 132.477  0.00  0.00    +0.016 C 
ATOM      7  C   LIG A   1      -5.803  -3.184 133.719  0.00  0.00    -0.065 C 
ATOM      8  C   LIG A   1      -6.961  -2.501 133.709  0.00  0.00    -0.027 C 
ATOM      9  C   LIG A   1      -7.729  -2.158 132.470  0.00  0.00    +0.031 C 
ATOM     10  C   LIG A   1      -7.305  -2.981 131.237  0.00  0.00    +0.000 C 
ATOM     11  C   LIG A   1      -5.761  -3.074 131.134  0.00  0.00    +0.003 C 
ATOM     12  C   LIG A   1      -5.214  -1.712 130.664  0.00  0.00    +0.005 C 
ATOM     13  C   LIG A   1      -5.773  -1.343 129.292  0.00  0.00    +0.007 C 
ATOM     14  C   LIG A   1      -7.310  -1.233 129.235  0.00  0.00    -0.026 C 
ATOM     15  C   LIG A   1      -7.786   0.081 129.890  0.00  0.00    +0.012 C 
ATOM     16  C   LIG A   1      -7.974  -2.460 129.932  0.00  0.00    -0.001 C 
ATOM     17  C   LIG A   1      -7.969  -3.536 128.843  0.00  0.00    +0.004 C 
ATOM     18  C   LIG A   1      -8.161  -2.809 127.522  0.00  0.00    +0.005 C 
ATOM     19  C   LIG A   1      -7.862  -1.312 127.760  0.00  0.00    +0.002 C 
ENDROOT
BRANCH   1  20
ATOM     20  O   LIG A   1      -6.561  -5.708 135.240  0.00  0.00    -0.392 OA
ATOM     21  H   LIG A   1      -7.150  -5.166 134.686  0.00  0.00    +0.210 HD
ENDBRANCH   1  20
BRANCH  19  22
ATOM     22  C   LIG A   1      -6.992  -0.708 126.610  0.00  0.00    +0.012 C 
ATOM     23  C   LIG A   1      -7.485   0.659 126.118  0.00  0.00    +0.012 C 
BRANCH  22  24
ATOM     24  C   LIG A   1      -6.930  -1.638 125.404  0.00  0.00    -0.027 C 
ATOM     25  C   LIG A   1      -5.789  -2.078 124.850  0.00  0.00    -0.028 C 
BRANCH  25  26
ATOM     26  C   LIG A   1      -5.712  -2.969 123.628  0.00  0.00    +0.005 C 
ATOM     27  C   LIG A   1      -5.899  -2.138 122.357  0.00  0.00    +0.011 C 
ATOM     28  C   LIG A   1      -4.389  -3.733 123.564  0.00  0.00    +0.011 C 
ENDBRANCH  25  26
ENDBRANCH  22  24
ENDBRANCH  19  22
TORSDOF 4
ENDMDL
MODEL 6
REMARK VINA RESULT:      -8.0      1.763      3.169
REMARK  Name = NuBBE_2160
REMARK  9 active torsions:
REMARK  status: ('A' for Active; 'I' for Inactive)
REMARK    1  A    between atoms: O_1  and  C_2
REMARK    2  A    between atoms: C_7  and  C_8
REMARK    3  A    between atoms: C_18  and  C_19
REMARK    4  A    between atoms: C_24  and  C_26
REMARK    5  A    between atoms: C_26  and  C_28
REMARK    6  A    between atoms: C_26  and  C_29
REMARK    7  A    between atoms: C_30  and  C_31
REMARK    8  A    between atoms: C_31  and  C_32
REMARK    9  A    between atoms: C_31  and  C_33
REMARK                            x       y       z     vdW  Elec       q    Type
REMARK                         _______ _______ _______ _____ _____    ______ ____
ROOT
ATOM      1  C   LIG A   1      -5.178  -4.218 133.329  0.00  0.00    +0.119 C 
ATOM      2  C   LIG A   1      -4.898  -2.787 132.840  0.00  0.00    +0.062 C 
ATOM      3  C   LIG A   1      -4.994  -5.286 132.243  0.00  0.00    +0.032 C 
ATOM      4  C   LIG A   1      -5.641  -4.908 130.897  0.00  0.00    +0.013 C 
ATOM      5  C   LIG A   1      -5.252  -3.486 130.389  0.00  0.00    -0.008 C 
ATOM      6  C   LIG A   1      -3.728  -3.460 130.110  0.00  0.00    +0.016 C 
ATOM      7  C   LIG A   1      -5.617  -2.540 131.528  0.00  0.00    -0.065 C 
ATOM      8  C   LIG A   1      -6.618  -1.646 131.450  0.00  0.00    -0.027 C 
ATOM      9  C   LIG A   1      -7.531  -1.501 130.271  0.00  0.00    +0.031 C 
ATOM     10  C   LIG A   1      -7.495  -2.708 129.313  0.00  0.00    +0.000 C 
ATOM     11  C   LIG A   1      -6.038  -3.169 129.053  0.00  0.00    +0.003 C 
ATOM     12  C   LIG A   1      -5.356  -2.150 128.118  0.00  0.00    +0.005 C 
ATOM     13  C   LIG A   1      -6.087  -2.065 126.780  0.00  0.00    +0.007 C 
ATOM     14  C   LIG A   1      -7.564  -1.634 126.884  0.00  0.00    -0.026 C 
ATOM     15  C   LIG A   1      -7.671  -0.117 127.150  0.00  0.00    +0.012 C 
ATOM     16  C   LIG A   1      -8.292  -2.436 128.005  0.00  0.00    -0.001 C 
ATOM     17  C   LIG A   1      -8.679  -3.747 127.313  0.00  0.00    +0.004 C 
ATOM     18  C   LIG A   1      -8.982  -3.394 125.866  0.00  0.00    +0.005 C 
ATOM     19  C   LIG A   1      -8.385  -1.996 125.587  0.00  0.00    +0.002 C 
ENDROOT
BRANCH   1  20
ATOM     20  O   LIG A   1      -6.512  -4.303 133.841  0.00  0.00    -0.392 OA
ATOM     21  H   LIG A   1      -6.578  -3.673 134.580  0.00  0.00    +0.210 HD
ENDBRANCH   1  20
BRANCH  19  22
ATOM     22  C   LIG A   1      -7.651  -1.947 124.208  0.00  0.00    +0.012 C 
ATOM     23  C   LIG A   1      -6.522  -2.978 124.073  0.00  0.00    +0.012 C 
BRANCH  22  24
ATOM     24  C   LIG A   1      -7.053  -0.570 123.937  0.00  0.00    -0.027 C 
ATOM     25  C   LIG A   1      -7.767   0.497 123.549  0.00  0.00    -0.028 C 
BRANCH  25  26
ATOM     26  C   LIG A   1      -7.182   1.858 123.238  0.00  0.00    +0.005 C 
ATOM     27  C   LIG A   1      -8.275   2.798 122.725  0.00  0.00    +0.011 C 
ATOM     28  C   LIG A   1      -6.493   2.474 124.457  0.00  0.00    +0.011 C 
ENDBRANCH  25  26
ENDBRANCH  22  24
ENDBRANCH  19  22
TORSDOF 4
ENDMDL
MODEL 7
REMARK VINA RESULT:      -7.9      3.169      7.608
REMARK  Name = NuBBE_2160
REMARK  9 active torsions:
REMARK  status: ('A' for Active; 'I' for Inactive)
REMARK    1  A    between atoms: O_1  and  C_2
REMARK    2  A    between atoms: C_7  and  C_8
REMARK    3  A    between atoms: C_18  and  C_19
REMARK    4  A    between atoms: C_24  and  C_26
REMARK    5  A    between atoms: C_26  and  C_28
REMARK    6  A    between atoms: C_26  and  C_29
REMARK    7  A    between atoms: C_30  and  C_31
REMARK    8  A    between atoms: C_31  and  C_32
REMARK    9  A    between atoms: C_31  and  C_33
REMARK                            x       y       z     vdW  Elec       q    Type
REMARK                         _______ _______ _______ _____ _____    ______ ____
ROOT
ATOM      1  C   LIG A   1      -8.404  -1.992 122.902  0.00  0.00    +0.119 C 
ATOM      2  C   LIG A   1      -7.933  -3.276 123.604  0.00  0.00    +0.062 C 
ATOM      3  C   LIG A   1      -7.545  -0.763 123.228  0.00  0.00    +0.032 C 
ATOM      4  C   LIG A   1      -7.228  -0.619 124.729  0.00  0.00    +0.013 C 
ATOM      5  C   LIG A   1      -6.660  -1.917 125.380  0.00  0.00    -0.008 C 
ATOM      6  C   LIG A   1      -5.295  -2.244 124.722  0.00  0.00    +0.016 C 
ATOM      7  C   LIG A   1      -7.689  -3.001 125.075  0.00  0.00    -0.065 C 
ATOM      8  C   LIG A   1      -8.456  -3.573 126.019  0.00  0.00    -0.027 C 
ATOM      9  C   LIG A   1      -8.442  -3.189 127.467  0.00  0.00    +0.031 C 
ATOM     10  C   LIG A   1      -7.773  -1.825 127.735  0.00  0.00    +0.000 C 
ATOM     11  C   LIG A   1      -6.455  -1.685 126.931  0.00  0.00    +0.003 C 
ATOM     12  C   LIG A   1      -5.378  -2.569 127.589  0.00  0.00    +0.005 C 
ATOM     13  C   LIG A   1      -5.120  -2.133 129.030  0.00  0.00    +0.007 C 
ATOM     14  C   LIG A   1      -6.356  -2.201 129.950  0.00  0.00    -0.026 C 
ATOM     15  C   LIG A   1      -6.660  -3.662 130.344  0.00  0.00    +0.012 C 
ATOM     16  C   LIG A   1      -7.593  -1.555 129.256  0.00  0.00    -0.001 C 
ATOM     17  C   LIG A   1      -7.417  -0.059 129.533  0.00  0.00    +0.004 C 
ATOM     18  C   LIG A   1      -6.767   0.050 130.902  0.00  0.00    +0.005 C 
ATOM     19  C   LIG A   1      -6.178  -1.334 131.255  0.00  0.00    +0.002 C 
ENDROOT
BRANCH   1  20
ATOM     20  O   LIG A   1      -9.763  -1.715 123.258  0.00  0.00    -0.392 OA
ATOM     21  H   LIG A   1     -10.320  -2.369 122.799  0.00  0.00    +0.210 HD
ENDBRANCH   1  20
BRANCH  19  22
ATOM     22  C   LIG A   1      -4.747  -1.211 131.874  0.00  0.00    +0.012 C 
ATOM     23  C   LIG A   1      -4.648  -1.748 133.308  0.00  0.00    +0.012 C 
BRANCH  22  24
ATOM     24  C   LIG A   1      -4.263   0.235 131.888  0.00  0.00    -0.027 C 
ATOM     25  C   LIG A   1      -3.643   0.811 132.930  0.00  0.00    -0.028 C 
BRANCH  25  26
ATOM     26  C   LIG A   1      -3.194   2.256 132.972  0.00  0.00    +0.005 C 
ATOM     27  C   LIG A   1      -3.763   3.022 131.776  0.00  0.00    +0.011 C 
ATOM     28  C   LIG A   1      -3.607   2.942 134.276  0.00  0.00    +0.011 C 
ENDBRANCH  25  26
ENDBRANCH  22  24
ENDBRANCH  19  22
TORSDOF 4
ENDMDL
MODEL 8
REMARK VINA RESULT:      -7.8      4.306      7.356
REMARK  Name = NuBBE_2160
REMARK  9 active torsions:
REMARK  status: ('A' for Active; 'I' for Inactive)
REMARK    1  A    between atoms: O_1  and  C_2
REMARK    2  A    between atoms: C_7  and  C_8
REMARK    3  A    between atoms: C_18  and  C_19
REMARK    4  A    between atoms: C_24  and  C_26
REMARK    5  A    between atoms: C_26  and  C_28
REMARK    6  A    between atoms: C_26  and  C_29
REMARK    7  A    between atoms: C_30  and  C_31
REMARK    8  A    between atoms: C_31  and  C_32
REMARK    9  A    between atoms: C_31  and  C_33
REMARK                            x       y       z     vdW  Elec       q    Type
REMARK                         _______ _______ _______ _____ _____    ______ ____
ROOT
ATOM      1  C   LIG A   1      -3.466   6.280 129.353  0.00  0.00    +0.119 C 
ATOM      2  C   LIG A   1      -3.092   5.946 127.899  0.00  0.00    +0.062 C 
ATOM      3  C   LIG A   1      -3.802   5.045 130.200  0.00  0.00    +0.032 C 
ATOM      4  C   LIG A   1      -4.737   4.049 129.487  0.00  0.00    +0.013 C 
ATOM      5  C   LIG A   1      -4.268   3.662 128.052  0.00  0.00    -0.008 C 
ATOM      6  C   LIG A   1      -2.912   2.917 128.159  0.00  0.00    +0.016 C 
ATOM      7  C   LIG A   1      -4.108   4.986 127.312  0.00  0.00    -0.065 C 
ATOM      8  C   LIG A   1      -4.912   5.367 126.304  0.00  0.00    -0.027 C 
ATOM      9  C   LIG A   1      -6.089   4.578 125.818  0.00  0.00    +0.031 C 
ATOM     10  C   LIG A   1      -6.551   3.490 126.807  0.00  0.00    +0.000 C 
ATOM     11  C   LIG A   1      -5.341   2.712 127.383  0.00  0.00    +0.003 C 
ATOM     12  C   LIG A   1      -4.793   1.771 126.292  0.00  0.00    +0.005 C 
ATOM     13  C   LIG A   1      -5.856   0.766 125.855  0.00  0.00    +0.007 C 
ATOM     14  C   LIG A   1      -7.137   1.400 125.274  0.00  0.00    -0.026 C 
ATOM     15  C   LIG A   1      -6.889   1.910 123.839  0.00  0.00    +0.012 C 
ATOM     16  C   LIG A   1      -7.635   2.562 126.187  0.00  0.00    -0.001 C 
ATOM     17  C   LIG A   1      -8.435   1.843 127.277  0.00  0.00    +0.004 C 
ATOM     18  C   LIG A   1      -9.081   0.639 126.612  0.00  0.00    +0.005 C 
ATOM     19  C   LIG A   1      -8.352   0.396 125.270  0.00  0.00    +0.002 C 
ENDROOT
BRANCH   1  20
ATOM     20  O   LIG A   1      -4.584   7.173 129.372  0.00  0.00    -0.392 OA
ATOM     21  H   LIG A   1      -4.423   7.852 128.694  0.00  0.00    +0.210 HD
ENDBRANCH   1  20
BRANCH  19  22
ATOM     22  C   LIG A   1      -8.059  -1.122 125.041  0.00  0.00    +0.012 C 
ATOM     23  C   LIG A   1      -8.782  -1.713 123.824  0.00  0.00    +0.012 C 
BRANCH  22  24
ATOM     24  C   LIG A   1      -8.443  -1.960 126.257  0.00  0.00    -0.027 C 
ATOM     25  C   LIG A   1      -7.557  -2.533 127.086  0.00  0.00    -0.028 C 
BRANCH  25  26
ATOM     26  C   LIG A   1      -7.923  -3.399 128.272  0.00  0.00    +0.005 C 
ATOM     27  C   LIG A   1      -8.049  -2.541 129.533  0.00  0.00    +0.011 C 
ATOM     28  C   LIG A   1      -9.222  -4.171 128.034  0.00  0.00    +0.011 C 
ENDBRANCH  25  26
ENDBRANCH  22  24
ENDBRANCH  19  22
TORSDOF 4
ENDMDL
MODEL 9
REMARK VINA RESULT:      -7.6      4.477      6.620
REMARK  Name = NuBBE_2160
REMARK  9 active torsions:
REMARK  status: ('A' for Active; 'I' for Inactive)
REMARK    1  A    between atoms: O_1  and  C_2
REMARK    2  A    between atoms: C_7  and  C_8
REMARK    3  A    between atoms: C_18  and  C_19
REMARK    4  A    between atoms: C_24  and  C_26
REMARK    5  A    between atoms: C_26  and  C_28
REMARK    6  A    between atoms: C_26  and  C_29
REMARK    7  A    between atoms: C_30  and  C_31
REMARK    8  A    between atoms: C_31  and  C_32
REMARK    9  A    between atoms: C_31  and  C_33
REMARK                            x       y       z     vdW  Elec       q    Type
REMARK                         _______ _______ _______ _____ _____    ______ ____
ROOT
ATOM      1  C   LIG A   1      -9.061  -2.749 123.318  0.00  0.00    +0.119 C 
ATOM      2  C   LIG A   1      -8.873  -2.657 124.841  0.00  0.00    +0.062 C 
ATOM      3  C   LIG A   1      -7.801  -2.389 122.520  0.00  0.00    +0.032 C 
ATOM      4  C   LIG A   1      -7.099  -1.114 123.025  0.00  0.00    +0.013 C 
ATOM      5  C   LIG A   1      -6.839  -1.105 124.563  0.00  0.00    -0.008 C 
ATOM      6  C   LIG A   1      -5.855  -2.254 124.905  0.00  0.00    +0.016 C 
ATOM      7  C   LIG A   1      -8.203  -1.345 125.201  0.00  0.00    -0.065 C 
ATOM      8  C   LIG A   1      -8.860  -0.407 125.906  0.00  0.00    -0.027 C 
ATOM      9  C   LIG A   1      -8.371   0.994 126.109  0.00  0.00    +0.031 C 
ATOM     10  C   LIG A   1      -7.255   1.404 125.127  0.00  0.00    +0.000 C 
ATOM     11  C   LIG A   1      -6.200   0.279 124.983  0.00  0.00    +0.003 C 
ATOM     12  C   LIG A   1      -5.339   0.242 126.261  0.00  0.00    +0.005 C 
ATOM     13  C   LIG A   1      -4.612   1.569 126.467  0.00  0.00    +0.007 C 
ATOM     14  C   LIG A   1      -5.541   2.792 126.609  0.00  0.00    -0.026 C 
ATOM     15  C   LIG A   1      -6.194   2.821 128.007  0.00  0.00    +0.012 C 
ATOM     16  C   LIG A   1      -6.633   2.782 125.497  0.00  0.00    -0.001 C 
ATOM     17  C   LIG A   1      -5.924   3.407 124.292  0.00  0.00    +0.004 C 
ATOM     18  C   LIG A   1      -4.961   4.441 124.851  0.00  0.00    +0.005 C 
ATOM     19  C   LIG A   1      -4.782   4.151 126.358  0.00  0.00    +0.002 C 
ENDROOT
BRANCH   1  20
ATOM     20  O   LIG A   1     -10.129  -1.888 122.909  0.00  0.00    -0.392 OA
ATOM     21  H   LIG A   1     -10.441  -2.205 122.044  0.00  0.00    +0.210 HD
ENDBRANCH   1  20
BRANCH  19  22
ATOM     22  C   LIG A   1      -3.283   4.254 126.791  0.00  0.00    +0.012 C 
ATOM     23  C   LIG A   1      -2.522   2.925 126.695  0.00  0.00    +0.012 C 
BRANCH  22  24
ATOM     24  C   LIG A   1      -3.144   4.763 128.222  0.00  0.00    -0.027 C 
ATOM     25  C   LIG A   1      -3.714   5.889 128.679  0.00  0.00    -0.028 C 
BRANCH  25  26
ATOM     26  C   LIG A   1      -3.551   6.427 130.085  0.00  0.00    +0.005 C 
ATOM     27  C   LIG A   1      -2.079   6.386 130.499  0.00  0.00    +0.011 C 
ATOM     28  C   LIG A   1      -4.091   7.852 130.214  0.00  0.00    +0.011 C 
ENDBRANCH  25  26
ENDBRANCH  22  24
ENDBRANCH  19  22
TORSDOF 4
ENDMDL
