MODEL 1
REMARK VINA RESULT:      -6.7      0.000      0.000
REMARK  Name = NuBBE_337
REMARK  18 active torsions:
REMARK  status: ('A' for Active; 'I' for Inactive)
REMARK    1  A    between atoms: C_2  and  O_3
REMARK    2  A    between atoms: C_2  and  C_5
REMARK    3  A    between atoms: O_3  and  C_4
REMARK    4  A    between atoms: C_8  and  O_10
REMARK    5  A    between atoms: O_10  and  C_11
REMARK    6  A    between atoms: C_14  and  C_16
REMARK    7  A    between atoms: C_16  and  O_17
REMARK    8  A    between atoms: C_18  and  O_20
REMARK    9  A    between atoms: C_21  and  O_23
REMARK   10  A    between atoms: C_24  and  O_26
REMARK   11  A    between atoms: C_27  and  C_28
REMARK   12  A    between atoms: C_28  and  O_30
REMARK   13  A    between atoms: C_28  and  C_34
REMARK   14  A    between atoms: O_30  and  C_31
REMARK   15  A    between atoms: C_31  and  C_32
REMARK   16  A    between atoms: C_35  and  C_37
REMARK   17  A    between atoms: C_37  and  C_38
REMARK   18  A    between atoms: C_38  and  O_39
REMARK                            x       y       z     vdW  Elec       q    Type
REMARK                         _______ _______ _______ _____ _____    ______ ____
ROOT
ATOM      1  C   LIG A   1      -5.302   4.747 130.654  0.00  0.00    +0.075 C 
ATOM      2  C   LIG A   1      -6.349   4.829 129.816  0.00  0.00    +0.201 C 
ATOM      3  O   LIG A   1      -7.402   5.698 129.911  0.00  0.00    -0.470 OA
ATOM      4  C   LIG A   1      -7.304   6.709 130.926  0.00  0.00    +0.316 C 
ATOM      5  C   LIG A   1      -6.607   6.203 132.202  0.00  0.00    +0.106 C 
ATOM      6  C   LIG A   1      -5.162   5.728 131.789  0.00  0.00    +0.052 C 
ENDROOT
BRANCH   1   8
ATOM      7  O   LIG A   1      -4.231   2.921 129.505  0.00  0.00    -0.245 OA
ATOM      8  C   LIG A   1      -4.404   3.556 130.534  0.00  0.00    +0.338 C 
BRANCH   8   9
ATOM      9  O   LIG A   1      -3.791   3.323 131.726  0.00  0.00    -0.465 OA
ATOM     10  C   LIG A   1      -3.732   1.969 132.175  0.00  0.00    +0.280 C 
ENDBRANCH   8   9
ENDBRANCH   1   8
BRANCH   5  11
ATOM     11  C   LIG A   1      -7.467   5.143 132.990  0.00  0.00    +0.183 C 
ATOM     12  C   LIG A   1      -8.064   5.593 134.340  0.00  0.00    +0.052 C 
BRANCH  11  13
ATOM     13  O   LIG A   1      -6.559   4.083 133.361  0.00  0.00    -0.461 OA
BRANCH  13  14
ATOM     14  C   LIG A   1      -7.083   2.822 133.349  0.00  0.00    +0.304 C 
ATOM     15  C   LIG A   1      -8.077   2.720 132.228  0.00  0.00    +0.136 C 
ATOM     16  O   LIG A   1      -6.888   1.971 134.176  0.00  0.00    -0.251 OA
ENDBRANCH  13  14
ENDBRANCH  11  13
ENDBRANCH   5  11
BRANCH   4  17
ATOM     17  O   LIG A   1      -8.587   7.275 131.142  0.00  0.00    -0.309 OA
BRANCH  17  18
ATOM     18  C   LIG A   1      -9.689   6.629 130.501  0.00  0.00    +0.286 C 
ATOM     19  O   LIG A   1      -9.783   7.233 129.223  0.00  0.00    -0.340 OA
ATOM     20  C   LIG A   1     -10.978   6.918 128.523  0.00  0.00    +0.178 C 
ATOM     21  C   LIG A   1     -12.147   7.499 129.334  0.00  0.00    +0.177 C 
ATOM     22  C   LIG A   1     -12.265   6.648 130.595  0.00  0.00    +0.179 C 
ATOM     23  C   LIG A   1     -10.961   6.614 131.355  0.00  0.00    +0.201 C 
BRANCH  21  24
ATOM     24  O   LIG A   1     -13.394   7.466 128.659  0.00  0.00    -0.387 OA
ATOM     25  H   LIG A   1     -13.480   8.309 128.169  0.00  0.00    +0.210 HD
ENDBRANCH  21  24
BRANCH  22  26
ATOM     26  O   LIG A   1     -13.259   7.115 131.523  0.00  0.00    -0.386 OA
ATOM     27  H   LIG A   1     -14.025   6.520 131.461  0.00  0.00    +0.210 HD
ENDBRANCH  22  26
BRANCH  23  28
ATOM     28  O   LIG A   1     -10.985   5.373 132.089  0.00  0.00    -0.384 OA
ATOM     29  H   LIG A   1     -10.637   4.684 131.486  0.00  0.00    +0.210 HD
ENDBRANCH  23  28
BRANCH  20  30
ATOM     30  C   LIG A   1     -10.836   7.509 127.122  0.00  0.00    +0.190 C 
BRANCH  30  31
ATOM     31  O   LIG A   1     -11.629   6.810 126.172  0.00  0.00    -0.392 OA
ATOM     32  H   LIG A   1     -12.539   6.778 126.519  0.00  0.00    +0.209 HD
ENDBRANCH  30  31
ENDBRANCH  20  30
ENDBRANCH  17  18
ENDBRANCH   4  17
BRANCH   6  33
ATOM     33  C   LIG A   1      -4.139   6.879 131.568  0.00  0.00    +0.129 C 
BRANCH  33  34
ATOM     34  C   LIG A   1      -3.721   7.176 130.170  0.00  0.00    +0.305 C 
ATOM     35  O   LIG A   1      -2.767   6.663 129.573  0.00  0.00    -0.251 OA
BRANCH  34  36
ATOM     36  O   LIG A   1      -4.536   7.996 129.505  0.00  0.00    -0.481 OA
ATOM     37  H   LIG A   1      -5.435   7.619 129.614  0.00  0.00    +0.295 HD
ENDBRANCH  34  36
ENDBRANCH  33  34
ENDBRANCH   6  33
TORSDOF 15
ENDMDL
MODEL 2
REMARK VINA RESULT:      -6.6      4.944      6.998
REMARK  Name = NuBBE_337
REMARK  18 active torsions:
REMARK  status: ('A' for Active; 'I' for Inactive)
REMARK    1  A    between atoms: C_2  and  O_3
REMARK    2  A    between atoms: C_2  and  C_5
REMARK    3  A    between atoms: O_3  and  C_4
REMARK    4  A    between atoms: C_8  and  O_10
REMARK    5  A    between atoms: O_10  and  C_11
REMARK    6  A    between atoms: C_14  and  C_16
REMARK    7  A    between atoms: C_16  and  O_17
REMARK    8  A    between atoms: C_18  and  O_20
REMARK    9  A    between atoms: C_21  and  O_23
REMARK   10  A    between atoms: C_24  and  O_26
REMARK   11  A    between atoms: C_27  and  C_28
REMARK   12  A    between atoms: C_28  and  O_30
REMARK   13  A    between atoms: C_28  and  C_34
REMARK   14  A    between atoms: O_30  and  C_31
REMARK   15  A    between atoms: C_31  and  C_32
REMARK   16  A    between atoms: C_35  and  C_37
REMARK   17  A    between atoms: C_37  and  C_38
REMARK   18  A    between atoms: C_38  and  O_39
REMARK                            x       y       z     vdW  Elec       q    Type
REMARK                         _______ _______ _______ _____ _____    ______ ____
ROOT
ATOM      1  C   LIG A   1      -6.723   3.401 124.391  0.00  0.00    +0.075 C 
ATOM      2  C   LIG A   1      -7.969   3.769 124.734  0.00  0.00    +0.201 C 
ATOM      3  O   LIG A   1      -8.588   3.530 125.931  0.00  0.00    -0.470 OA
ATOM      4  C   LIG A   1      -7.775   2.954 126.966  0.00  0.00    +0.316 C 
ATOM      5  C   LIG A   1      -6.745   1.948 126.418  0.00  0.00    +0.106 C 
ATOM      6  C   LIG A   1      -5.828   2.726 125.398  0.00  0.00    +0.052 C 
ENDROOT
BRANCH   1   8
ATOM      7  O   LIG A   1      -6.711   2.756 122.071  0.00  0.00    -0.245 OA
ATOM      8  C   LIG A   1      -6.334   3.514 122.951  0.00  0.00    +0.338 C 
BRANCH   8   9
ATOM      9  O   LIG A   1      -5.537   4.602 122.775  0.00  0.00    -0.465 OA
ATOM     10  C   LIG A   1      -4.756   4.654 121.581  0.00  0.00    +0.280 C 
ENDBRANCH   8   9
ENDBRANCH   1   8
BRANCH   5  11
ATOM     11  C   LIG A   1      -7.409   0.632 125.862  0.00  0.00    +0.183 C 
ATOM     12  C   LIG A   1      -7.391  -0.603 126.786  0.00  0.00    +0.052 C 
BRANCH  11  13
ATOM     13  O   LIG A   1      -6.605   0.220 124.735  0.00  0.00    -0.461 OA
BRANCH  13  14
ATOM     14  C   LIG A   1      -7.292  -0.301 123.676  0.00  0.00    +0.304 C 
ATOM     15  C   LIG A   1      -6.457  -1.371 123.035  0.00  0.00    +0.136 C 
ATOM     16  O   LIG A   1      -8.334   0.112 123.240  0.00  0.00    -0.251 OA
ENDBRANCH  13  14
ENDBRANCH  11  13
ENDBRANCH   5  11
BRANCH   4  17
ATOM     17  O   LIG A   1      -8.617   2.436 127.983  0.00  0.00    -0.309 OA
BRANCH  17  18
ATOM     18  C   LIG A   1      -8.559   3.084 129.255  0.00  0.00    +0.286 C 
ATOM     19  O   LIG A   1      -9.796   3.762 129.385  0.00  0.00    -0.340 OA
ATOM     20  C   LIG A   1      -9.838   4.683 130.466  0.00  0.00    +0.178 C 
ATOM     21  C   LIG A   1      -8.802   5.780 130.169  0.00  0.00    +0.177 C 
ATOM     22  C   LIG A   1      -7.429   5.135 130.333  0.00  0.00    +0.179 C 
ATOM     23  C   LIG A   1      -7.288   3.918 129.451  0.00  0.00    +0.201 C 
BRANCH  21  24
ATOM     24  O   LIG A   1      -8.874   6.897 131.040  0.00  0.00    -0.387 OA
ATOM     25  H   LIG A   1      -9.805   6.977 131.331  0.00  0.00    +0.210 HD
ENDBRANCH  21  24
BRANCH  22  26
ATOM     26  O   LIG A   1      -6.333   6.003 129.996  0.00  0.00    -0.386 OA
ATOM     27  H   LIG A   1      -5.628   5.857 130.650  0.00  0.00    +0.210 HD
ENDBRANCH  22  26
BRANCH  23  28
ATOM     28  O   LIG A   1      -6.312   3.086 130.111  0.00  0.00    -0.384 OA
ATOM     29  H   LIG A   1      -6.785   2.282 130.410  0.00  0.00    +0.210 HD
ENDBRANCH  23  28
BRANCH  20  30
ATOM     30  C   LIG A   1     -11.275   5.191 130.557  0.00  0.00    +0.190 C 
BRANCH  30  31
ATOM     31  O   LIG A   1     -11.546   5.785 131.819  0.00  0.00    -0.392 OA
ATOM     32  H   LIG A   1     -12.486   5.628 132.019  0.00  0.00    +0.209 HD
ENDBRANCH  30  31
ENDBRANCH  20  30
ENDBRANCH  17  18
ENDBRANCH   4  17
BRANCH   6  33
ATOM     33  C   LIG A   1      -4.746   3.628 126.056  0.00  0.00    +0.129 C 
BRANCH  33  34
ATOM     34  C   LIG A   1      -3.858   3.012 127.080  0.00  0.00    +0.305 C 
ATOM     35  O   LIG A   1      -3.985   3.112 128.306  0.00  0.00    -0.251 OA
BRANCH  34  36
ATOM     36  O   LIG A   1      -2.915   2.205 126.589  0.00  0.00    -0.481 OA
ATOM     37  H   LIG A   1      -2.123   2.770 126.468  0.00  0.00    +0.295 HD
ENDBRANCH  34  36
ENDBRANCH  33  34
ENDBRANCH   6  33
TORSDOF 15
ENDMDL
MODEL 3
REMARK VINA RESULT:      -6.5      2.188      2.983
REMARK  Name = NuBBE_337
REMARK  18 active torsions:
REMARK  status: ('A' for Active; 'I' for Inactive)
REMARK    1  A    between atoms: C_2  and  O_3
REMARK    2  A    between atoms: C_2  and  C_5
REMARK    3  A    between atoms: O_3  and  C_4
REMARK    4  A    between atoms: C_8  and  O_10
REMARK    5  A    between atoms: O_10  and  C_11
REMARK    6  A    between atoms: C_14  and  C_16
REMARK    7  A    between atoms: C_16  and  O_17
REMARK    8  A    between atoms: C_18  and  O_20
REMARK    9  A    between atoms: C_21  and  O_23
REMARK   10  A    between atoms: C_24  and  O_26
REMARK   11  A    between atoms: C_27  and  C_28
REMARK   12  A    between atoms: C_28  and  O_30
REMARK   13  A    between atoms: C_28  and  C_34
REMARK   14  A    between atoms: O_30  and  C_31
REMARK   15  A    between atoms: C_31  and  C_32
REMARK   16  A    between atoms: C_35  and  C_37
REMARK   17  A    between atoms: C_37  and  C_38
REMARK   18  A    between atoms: C_38  and  O_39
REMARK                            x       y       z     vdW  Elec       q    Type
REMARK                         _______ _______ _______ _____ _____    ______ ____
ROOT
ATOM      1  C   LIG A   1      -7.057   2.200 129.160  0.00  0.00    +0.075 C 
ATOM      2  C   LIG A   1      -8.248   1.938 128.596  0.00  0.00    +0.201 C 
ATOM      3  O   LIG A   1      -9.439   2.545 128.887  0.00  0.00    -0.470 OA
ATOM      4  C   LIG A   1      -9.380   3.667 129.782  0.00  0.00    +0.316 C 
ATOM      5  C   LIG A   1      -8.316   3.492 130.883  0.00  0.00    +0.106 C 
ATOM      6  C   LIG A   1      -6.924   3.316 130.164  0.00  0.00    +0.052 C 
ENDROOT
BRANCH   1   8
ATOM      7  O   LIG A   1      -5.797   0.602 127.872  0.00  0.00    -0.245 OA
ATOM      8  C   LIG A   1      -5.936   1.243 128.902  0.00  0.00    +0.338 C 
BRANCH   8   9
ATOM      9  O   LIG A   1      -5.089   1.232 129.967  0.00  0.00    -0.465 OA
ATOM     10  C   LIG A   1      -4.539  -0.029 130.350  0.00  0.00    +0.280 C 
ENDBRANCH   8   9
ENDBRANCH   1   8
BRANCH   5  11
ATOM     11  C   LIG A   1      -8.688   2.365 131.920  0.00  0.00    +0.183 C 
ATOM     12  C   LIG A   1      -9.258   2.826 133.277  0.00  0.00    +0.052 C 
BRANCH  11  13
ATOM     13  O   LIG A   1      -7.445   1.722 132.278  0.00  0.00    -0.461 OA
BRANCH  13  14
ATOM     14  C   LIG A   1      -7.535   0.400 132.610  0.00  0.00    +0.304 C 
ATOM     15  C   LIG A   1      -8.351  -0.307 131.567  0.00  0.00    +0.136 C 
ATOM     16  O   LIG A   1      -7.145  -0.097 133.633  0.00  0.00    -0.251 OA
ENDBRANCH  13  14
ENDBRANCH  11  13
ENDBRANCH   5  11
BRANCH   4  17
ATOM     17  O   LIG A   1     -10.685   3.943 130.266  0.00  0.00    -0.309 OA
BRANCH  17  18
ATOM     18  C   LIG A   1     -11.082   5.316 130.293  0.00  0.00    +0.286 C 
ATOM     19  O   LIG A   1     -11.853   5.503 129.119  0.00  0.00    -0.340 OA
ATOM     20  C   LIG A   1     -12.126   6.864 128.820  0.00  0.00    +0.178 C 
ATOM     21  C   LIG A   1     -10.778   7.547 128.535  0.00  0.00    +0.177 C 
ATOM     22  C   LIG A   1     -10.047   7.638 129.870  0.00  0.00    +0.179 C 
ATOM     23  C   LIG A   1      -9.911   6.279 130.513  0.00  0.00    +0.201 C 
BRANCH  21  24
ATOM     24  O   LIG A   1     -10.892   8.856 128.000  0.00  0.00    -0.387 OA
ATOM     25  H   LIG A   1     -10.453   9.464 128.629  0.00  0.00    +0.210 HD
ENDBRANCH  21  24
BRANCH  22  26
ATOM     26  O   LIG A   1      -8.715   8.170 129.772  0.00  0.00    -0.386 OA
ATOM     27  H   LIG A   1      -8.628   8.594 128.901  0.00  0.00    +0.210 HD
ENDBRANCH  22  26
BRANCH  23  28
ATOM     28  O   LIG A   1      -9.815   6.540 131.928  0.00  0.00    -0.384 OA
ATOM     29  H   LIG A   1      -8.887   6.361 132.184  0.00  0.00    +0.210 HD
ENDBRANCH  23  28
BRANCH  20  30
ATOM     30  C   LIG A   1     -13.091   6.871 127.637  0.00  0.00    +0.190 C 
BRANCH  30  31
ATOM     31  O   LIG A   1     -12.420   6.640 126.406  0.00  0.00    -0.392 OA
ATOM     32  H   LIG A   1     -13.039   6.868 125.690  0.00  0.00    +0.209 HD
ENDBRANCH  30  31
ENDBRANCH  20  30
ENDBRANCH  17  18
ENDBRANCH   4  17
BRANCH   6  33
ATOM     33  C   LIG A   1      -6.299   4.637 129.630  0.00  0.00    +0.129 C 
BRANCH  33  34
ATOM     34  C   LIG A   1      -5.873   5.655 130.629  0.00  0.00    +0.305 C 
ATOM     35  O   LIG A   1      -5.093   5.468 131.571  0.00  0.00    -0.251 OA
BRANCH  34  36
ATOM     36  O   LIG A   1      -6.315   6.891 130.389  0.00  0.00    -0.481 OA
ATOM     37  H   LIG A   1      -5.801   7.209 129.616  0.00  0.00    +0.295 HD
ENDBRANCH  34  36
ENDBRANCH  33  34
ENDBRANCH   6  33
TORSDOF 15
ENDMDL
MODEL 4
REMARK VINA RESULT:      -6.4      4.841      6.870
REMARK  Name = NuBBE_337
REMARK  18 active torsions:
REMARK  status: ('A' for Active; 'I' for Inactive)
REMARK    1  A    between atoms: C_2  and  O_3
REMARK    2  A    between atoms: C_2  and  C_5
REMARK    3  A    between atoms: O_3  and  C_4
REMARK    4  A    between atoms: C_8  and  O_10
REMARK    5  A    between atoms: O_10  and  C_11
REMARK    6  A    between atoms: C_14  and  C_16
REMARK    7  A    between atoms: C_16  and  O_17
REMARK    8  A    between atoms: C_18  and  O_20
REMARK    9  A    between atoms: C_21  and  O_23
REMARK   10  A    between atoms: C_24  and  O_26
REMARK   11  A    between atoms: C_27  and  C_28
REMARK   12  A    between atoms: C_28  and  O_30
REMARK   13  A    between atoms: C_28  and  C_34
REMARK   14  A    between atoms: O_30  and  C_31
REMARK   15  A    between atoms: C_31  and  C_32
REMARK   16  A    between atoms: C_35  and  C_37
REMARK   17  A    between atoms: C_37  and  C_38
REMARK   18  A    between atoms: C_38  and  O_39
REMARK                            x       y       z     vdW  Elec       q    Type
REMARK                         _______ _______ _______ _____ _____    ______ ____
ROOT
ATOM      1  C   LIG A   1      -8.207   0.676 125.590  0.00  0.00    +0.075 C 
ATOM      2  C   LIG A   1      -9.149   0.999 126.493  0.00  0.00    +0.201 C 
ATOM      3  O   LIG A   1      -9.023   1.902 127.513  0.00  0.00    -0.470 OA
ATOM      4  C   LIG A   1      -7.815   2.679 127.532  0.00  0.00    +0.316 C 
ATOM      5  C   LIG A   1      -6.588   1.877 127.059  0.00  0.00    +0.106 C 
ATOM      6  C   LIG A   1      -6.883   1.395 125.587  0.00  0.00    +0.052 C 
ENDROOT
BRANCH   1   8
ATOM      7  O   LIG A   1      -7.834  -0.775 123.705  0.00  0.00    -0.245 OA
ATOM      8  C   LIG A   1      -8.447  -0.525 124.731  0.00  0.00    +0.338 C 
BRANCH   8   9
ATOM      9  O   LIG A   1      -9.415  -1.302 125.289  0.00  0.00    -0.465 OA
ATOM     10  C   LIG A   1      -9.235  -2.717 125.224  0.00  0.00    +0.280 C 
ENDBRANCH   8   9
ENDBRANCH   1   8
BRANCH   5  11
ATOM     11  C   LIG A   1      -6.170   0.743 128.070  0.00  0.00    +0.183 C 
ATOM     12  C   LIG A   1      -5.009   1.060 129.034  0.00  0.00    +0.052 C 
BRANCH  11  13
ATOM     13  O   LIG A   1      -5.654  -0.342 127.267  0.00  0.00    -0.461 OA
BRANCH  13  14
ATOM     14  C   LIG A   1      -5.843  -1.596 127.774  0.00  0.00    +0.304 C 
ATOM     15  C   LIG A   1      -7.269  -1.728 128.224  0.00  0.00    +0.136 C 
ATOM     16  O   LIG A   1      -4.984  -2.418 127.957  0.00  0.00    -0.251 OA
ENDBRANCH  13  14
ENDBRANCH  11  13
ENDBRANCH   5  11
BRANCH   4  17
ATOM     17  O   LIG A   1      -7.668   3.277 128.810  0.00  0.00    -0.309 OA
BRANCH  17  18
ATOM     18  C   LIG A   1      -8.727   3.061 129.745  0.00  0.00    +0.286 C 
ATOM     19  O   LIG A   1      -9.204   4.354 130.072  0.00  0.00    -0.340 OA
ATOM     20  C   LIG A   1     -10.085   4.379 131.186  0.00  0.00    +0.178 C 
ATOM     21  C   LIG A   1      -9.281   3.919 132.413  0.00  0.00    +0.177 C 
ATOM     22  C   LIG A   1      -9.020   2.428 132.226  0.00  0.00    +0.179 C 
ATOM     23  C   LIG A   1      -8.328   2.154 130.913  0.00  0.00    +0.201 C 
BRANCH  21  24
ATOM     24  O   LIG A   1      -9.953   4.101 133.648  0.00  0.00    -0.387 OA
ATOM     25  H   LIG A   1      -9.409   3.673 134.340  0.00  0.00    +0.210 HD
ENDBRANCH  21  24
BRANCH  22  26
ATOM     26  O   LIG A   1      -8.190   1.848 133.246  0.00  0.00    -0.386 OA
ATOM     27  H   LIG A   1      -8.621   1.033 133.553  0.00  0.00    +0.210 HD
ENDBRANCH  22  26
BRANCH  23  28
ATOM     28  O   LIG A   1      -8.694   0.803 130.568  0.00  0.00    -0.384 OA
ATOM     29  H   LIG A   1      -8.922   0.809 129.615  0.00  0.00    +0.210 HD
ENDBRANCH  23  28
BRANCH  20  30
ATOM     30  C   LIG A   1     -10.623   5.804 131.291  0.00  0.00    +0.190 C 
BRANCH  30  31
ATOM     31  O   LIG A   1     -11.767   5.876 132.131  0.00  0.00    -0.392 OA
ATOM     32  H   LIG A   1     -11.639   6.630 132.734  0.00  0.00    +0.209 HD
ENDBRANCH  30  31
ENDBRANCH  20  30
ENDBRANCH  17  18
ENDBRANCH   4  17
BRANCH   6  33
ATOM     33  C   LIG A   1      -6.710   2.493 124.498  0.00  0.00    +0.129 C 
BRANCH  33  34
ATOM     34  C   LIG A   1      -7.943   3.076 123.900  0.00  0.00    +0.305 C 
ATOM     35  O   LIG A   1      -8.592   2.596 122.963  0.00  0.00    -0.251 OA
BRANCH  34  36
ATOM     36  O   LIG A   1      -8.410   4.157 124.527  0.00  0.00    -0.481 OA
ATOM     37  H   LIG A   1      -9.321   3.925 124.806  0.00  0.00    +0.295 HD
ENDBRANCH  34  36
ENDBRANCH  33  34
ENDBRANCH   6  33
TORSDOF 15
ENDMDL
MODEL 5
REMARK VINA RESULT:      -6.4      5.443      7.615
REMARK  Name = NuBBE_337
REMARK  18 active torsions:
REMARK  status: ('A' for Active; 'I' for Inactive)
REMARK    1  A    between atoms: C_2  and  O_3
REMARK    2  A    between atoms: C_2  and  C_5
REMARK    3  A    between atoms: O_3  and  C_4
REMARK    4  A    between atoms: C_8  and  O_10
REMARK    5  A    between atoms: O_10  and  C_11
REMARK    6  A    between atoms: C_14  and  C_16
REMARK    7  A    between atoms: C_16  and  O_17
REMARK    8  A    between atoms: C_18  and  O_20
REMARK    9  A    between atoms: C_21  and  O_23
REMARK   10  A    between atoms: C_24  and  O_26
REMARK   11  A    between atoms: C_27  and  C_28
REMARK   12  A    between atoms: C_28  and  O_30
REMARK   13  A    between atoms: C_28  and  C_34
REMARK   14  A    between atoms: O_30  and  C_31
REMARK   15  A    between atoms: C_31  and  C_32
REMARK   16  A    between atoms: C_35  and  C_37
REMARK   17  A    between atoms: C_37  and  C_38
REMARK   18  A    between atoms: C_38  and  O_39
REMARK                            x       y       z     vdW  Elec       q    Type
REMARK                         _______ _______ _______ _____ _____    ______ ____
ROOT
ATOM      1  C   LIG A   1      -8.609   0.810 125.051  0.00  0.00    +0.075 C 
ATOM      2  C   LIG A   1      -9.386   0.820 126.148  0.00  0.00    +0.201 C 
ATOM      3  O   LIG A   1      -8.994   1.134 127.420  0.00  0.00    -0.470 OA
ATOM      4  C   LIG A   1      -7.657   1.636 127.570  0.00  0.00    +0.316 C 
ATOM      5  C   LIG A   1      -6.662   0.971 126.602  0.00  0.00    +0.106 C 
ATOM      6  C   LIG A   1      -7.172   1.256 125.138  0.00  0.00    +0.052 C 
ENDROOT
BRANCH   1   8
ATOM      7  O   LIG A   1      -9.373   0.771 122.768  0.00  0.00    -0.245 OA
ATOM      8  C   LIG A   1      -9.158   0.177 123.812  0.00  0.00    +0.338 C 
BRANCH   8   9
ATOM      9  O   LIG A   1      -9.340  -1.156 124.021  0.00  0.00    -0.465 OA
ATOM     10  C   LIG A   1      -8.973  -2.039 122.961  0.00  0.00    +0.280 C 
ENDBRANCH   8   9
ENDBRANCH   1   8
BRANCH   5  11
ATOM     11  C   LIG A   1      -6.397  -0.545 126.942  0.00  0.00    +0.183 C 
ATOM     12  C   LIG A   1      -5.294  -0.846 127.977  0.00  0.00    +0.052 C 
BRANCH  11  13
ATOM     13  O   LIG A   1      -5.894  -1.148 125.729  0.00  0.00    -0.461 OA
BRANCH  13  14
ATOM     14  C   LIG A   1      -6.310  -2.426 125.486  0.00  0.00    +0.304 C 
ATOM     15  C   LIG A   1      -5.432  -3.029 124.427  0.00  0.00    +0.136 C 
ATOM     16  O   LIG A   1      -7.296  -2.944 125.940  0.00  0.00    -0.251 OA
ENDBRANCH  13  14
ENDBRANCH  11  13
ENDBRANCH   5  11
BRANCH   4  17
ATOM     17  O   LIG A   1      -7.285   1.563 128.937  0.00  0.00    -0.309 OA
BRANCH  17  18
ATOM     18  C   LIG A   1      -7.428   2.759 129.706  0.00  0.00    +0.286 C 
ATOM     19  O   LIG A   1      -8.248   2.399 130.804  0.00  0.00    -0.340 OA
ATOM     20  C   LIG A   1      -8.728   3.507 131.552  0.00  0.00    +0.178 C 
ATOM     21  C   LIG A   1      -9.633   4.329 130.619  0.00  0.00    +0.177 C 
ATOM     22  C   LIG A   1      -8.715   4.989 129.595  0.00  0.00    +0.179 C 
ATOM     23  C   LIG A   1      -7.875   3.964 128.873  0.00  0.00    +0.201 C 
BRANCH  21  24
ATOM     24  O   LIG A   1     -10.371   5.347 131.275  0.00  0.00    -0.387 OA
ATOM     25  H   LIG A   1      -9.747   6.073 131.477  0.00  0.00    +0.210 HD
ENDBRANCH  21  24
BRANCH  22  26
ATOM     26  O   LIG A   1      -9.411   5.727 128.577  0.00  0.00    -0.386 OA
ATOM     27  H   LIG A   1      -8.855   6.483 128.325  0.00  0.00    +0.210 HD
ENDBRANCH  22  26
BRANCH  23  28
ATOM     28  O   LIG A   1      -6.691   4.674 128.454  0.00  0.00    -0.384 OA
ATOM     29  H   LIG A   1      -6.456   4.327 127.569  0.00  0.00    +0.210 HD
ENDBRANCH  23  28
BRANCH  20  30
ATOM     30  C   LIG A   1      -9.445   2.937 132.773  0.00  0.00    +0.190 C 
BRANCH  30  31
ATOM     31  O   LIG A   1      -9.808   3.956 133.695  0.00  0.00    -0.392 OA
ATOM     32  H   LIG A   1      -9.949   4.774 133.185  0.00  0.00    +0.209 HD
ENDBRANCH  30  31
ENDBRANCH  20  30
ENDBRANCH  17  18
ENDBRANCH   4  17
BRANCH   6  33
ATOM     33  C   LIG A   1      -6.874   2.690 124.615  0.00  0.00    +0.129 C 
BRANCH  33  34
ATOM     34  C   LIG A   1      -8.032   3.599 124.386  0.00  0.00    +0.305 C 
ATOM     35  O   LIG A   1      -8.601   4.280 125.246  0.00  0.00    -0.251 OA
BRANCH  34  36
ATOM     36  O   LIG A   1      -8.388   3.738 123.107  0.00  0.00    -0.481 OA
ATOM     37  H   LIG A   1      -8.235   4.683 122.894  0.00  0.00    +0.295 HD
ENDBRANCH  34  36
ENDBRANCH  33  34
ENDBRANCH   6  33
TORSDOF 15
ENDMDL
MODEL 6
REMARK VINA RESULT:      -6.3      5.578      7.988
REMARK  Name = NuBBE_337
REMARK  18 active torsions:
REMARK  status: ('A' for Active; 'I' for Inactive)
REMARK    1  A    between atoms: C_2  and  O_3
REMARK    2  A    between atoms: C_2  and  C_5
REMARK    3  A    between atoms: O_3  and  C_4
REMARK    4  A    between atoms: C_8  and  O_10
REMARK    5  A    between atoms: O_10  and  C_11
REMARK    6  A    between atoms: C_14  and  C_16
REMARK    7  A    between atoms: C_16  and  O_17
REMARK    8  A    between atoms: C_18  and  O_20
REMARK    9  A    between atoms: C_21  and  O_23
REMARK   10  A    between atoms: C_24  and  O_26
REMARK   11  A    between atoms: C_27  and  C_28
REMARK   12  A    between atoms: C_28  and  O_30
REMARK   13  A    between atoms: C_28  and  C_34
REMARK   14  A    between atoms: O_30  and  C_31
REMARK   15  A    between atoms: C_31  and  C_32
REMARK   16  A    between atoms: C_35  and  C_37
REMARK   17  A    between atoms: C_37  and  C_38
REMARK   18  A    between atoms: C_38  and  O_39
REMARK                            x       y       z     vdW  Elec       q    Type
REMARK                         _______ _______ _______ _____ _____    ______ ____
ROOT
ATOM      1  C   LIG A   1      -7.596   2.695 123.928  0.00  0.00    +0.075 C 
ATOM      2  C   LIG A   1      -8.805   2.770 124.509  0.00  0.00    +0.201 C 
ATOM      3  O   LIG A   1      -9.104   2.456 125.807  0.00  0.00    -0.470 OA
ATOM      4  C   LIG A   1      -7.992   2.150 126.662  0.00  0.00    +0.316 C 
ATOM      5  C   LIG A   1      -6.870   1.393 125.927  0.00  0.00    +0.106 C 
ATOM      6  C   LIG A   1      -6.386   2.311 124.740  0.00  0.00    +0.052 C 
ENDROOT
BRANCH   1   8
ATOM      7  O   LIG A   1      -6.503   2.737 121.781  0.00  0.00    -0.245 OA
ATOM      8  C   LIG A   1      -7.530   2.819 122.438  0.00  0.00    +0.338 C 
BRANCH   8   9
ATOM      9  O   LIG A   1      -8.782   2.996 121.937  0.00  0.00    -0.465 OA
ATOM     10  C   LIG A   1      -8.898   3.711 120.706  0.00  0.00    +0.280 C 
ENDBRANCH   8   9
ENDBRANCH   1   8
BRANCH   5  11
ATOM     11  C   LIG A   1      -7.283  -0.073 125.522  0.00  0.00    +0.183 C 
ATOM     12  C   LIG A   1      -6.878  -1.204 126.489  0.00  0.00    +0.052 C 
BRANCH  11  13
ATOM     13  O   LIG A   1      -6.546  -0.380 124.318  0.00  0.00    -0.461 OA
BRANCH  13  14
ATOM     14  C   LIG A   1      -7.267  -0.965 123.316  0.00  0.00    +0.304 C 
ATOM     15  C   LIG A   1      -6.359  -1.862 122.525  0.00  0.00    +0.136 C 
ATOM     16  O   LIG A   1      -8.405  -0.707 123.024  0.00  0.00    -0.251 OA
ENDBRANCH  13  14
ENDBRANCH  11  13
ENDBRANCH   5  11
BRANCH   4  17
ATOM     17  O   LIG A   1      -8.470   1.501 127.830  0.00  0.00    -0.309 OA
BRANCH  17  18
ATOM     18  C   LIG A   1      -8.304   2.200 129.065  0.00  0.00    +0.286 C 
ATOM     19  O   LIG A   1      -8.063   1.194 130.033  0.00  0.00    -0.340 OA
ATOM     20  C   LIG A   1      -8.130   1.657 131.374  0.00  0.00    +0.178 C 
ATOM     21  C   LIG A   1      -9.573   2.124 131.623  0.00  0.00    +0.177 C 
ATOM     22  C   LIG A   1      -9.759   3.406 130.818  0.00  0.00    +0.179 C 
ATOM     23  C   LIG A   1      -9.438   3.187 129.359  0.00  0.00    +0.201 C 
BRANCH  21  24
ATOM     24  O   LIG A   1      -9.866   2.407 132.982  0.00  0.00    -0.387 OA
ATOM     25  H   LIG A   1      -9.019   2.376 133.472  0.00  0.00    +0.210 HD
ENDBRANCH  21  24
BRANCH  22  26
ATOM     26  O   LIG A   1     -11.095   3.934 130.860  0.00  0.00    -0.386 OA
ATOM     27  H   LIG A   1     -11.613   3.382 131.470  0.00  0.00    +0.210 HD
ENDBRANCH  22  26
BRANCH  23  28
ATOM     28  O   LIG A   1      -9.038   4.480 128.863  0.00  0.00    -0.384 OA
ATOM     29  H   LIG A   1      -9.800   5.080 128.997  0.00  0.00    +0.210 HD
ENDBRANCH  23  28
BRANCH  20  30
ATOM     30  C   LIG A   1      -7.688   0.497 132.263  0.00  0.00    +0.190 C 
BRANCH  30  31
ATOM     31  O   LIG A   1      -8.759  -0.396 132.538  0.00  0.00    -0.392 OA
ATOM     32  H   LIG A   1      -9.249  -0.527 131.707  0.00  0.00    +0.209 HD
ENDBRANCH  30  31
ENDBRANCH  20  30
ENDBRANCH  17  18
ENDBRANCH   4  17
BRANCH   6  33
ATOM     33  C   LIG A   1      -5.455   3.482 125.164  0.00  0.00    +0.129 C 
BRANCH  33  34
ATOM     34  C   LIG A   1      -5.837   4.859 124.745  0.00  0.00    +0.305 C 
ATOM     35  O   LIG A   1      -6.336   5.727 125.471  0.00  0.00    -0.251 OA
BRANCH  34  36
ATOM     36  O   LIG A   1      -5.500   5.176 123.493  0.00  0.00    -0.481 OA
ATOM     37  H   LIG A   1      -4.527   5.292 123.505  0.00  0.00    +0.295 HD
ENDBRANCH  34  36
ENDBRANCH  33  34
ENDBRANCH   6  33
TORSDOF 15
ENDMDL
MODEL 7
REMARK VINA RESULT:      -6.3      4.245      6.195
REMARK  Name = NuBBE_337
REMARK  18 active torsions:
REMARK  status: ('A' for Active; 'I' for Inactive)
REMARK    1  A    between atoms: C_2  and  O_3
REMARK    2  A    between atoms: C_2  and  C_5
REMARK    3  A    between atoms: O_3  and  C_4
REMARK    4  A    between atoms: C_8  and  O_10
REMARK    5  A    between atoms: O_10  and  C_11
REMARK    6  A    between atoms: C_14  and  C_16
REMARK    7  A    between atoms: C_16  and  O_17
REMARK    8  A    between atoms: C_18  and  O_20
REMARK    9  A    between atoms: C_21  and  O_23
REMARK   10  A    between atoms: C_24  and  O_26
REMARK   11  A    between atoms: C_27  and  C_28
REMARK   12  A    between atoms: C_28  and  O_30
REMARK   13  A    between atoms: C_28  and  C_34
REMARK   14  A    between atoms: O_30  and  C_31
REMARK   15  A    between atoms: C_31  and  C_32
REMARK   16  A    between atoms: C_35  and  C_37
REMARK   17  A    between atoms: C_37  and  C_38
REMARK   18  A    between atoms: C_38  and  O_39
REMARK                            x       y       z     vdW  Elec       q    Type
REMARK                         _______ _______ _______ _____ _____    ______ ____
ROOT
ATOM      1  C   LIG A   1      -6.621   4.002 125.091  0.00  0.00    +0.075 C 
ATOM      2  C   LIG A   1      -7.734   4.657 125.462  0.00  0.00    +0.201 C 
ATOM      3  O   LIG A   1      -8.238   4.751 126.731  0.00  0.00    -0.470 OA
ATOM      4  C   LIG A   1      -7.421   4.215 127.783  0.00  0.00    +0.316 C 
ATOM      5  C   LIG A   1      -6.654   2.951 127.352  0.00  0.00    +0.106 C 
ATOM      6  C   LIG A   1      -5.744   3.350 126.129  0.00  0.00    +0.052 C 
ENDROOT
BRANCH   1   8
ATOM      7  O   LIG A   1      -6.985   2.966 122.948  0.00  0.00    -0.245 OA
ATOM      8  C   LIG A   1      -6.392   3.788 123.628  0.00  0.00    +0.338 C 
BRANCH   8   9
ATOM      9  O   LIG A   1      -5.459   4.670 123.176  0.00  0.00    -0.465 OA
ATOM     10  C   LIG A   1      -4.969   4.480 121.849  0.00  0.00    +0.280 C 
ENDBRANCH   8   9
ENDBRANCH   1   8
BRANCH   5  11
ATOM     11  C   LIG A   1      -7.599   1.712 127.116  0.00  0.00    +0.183 C 
ATOM     12  C   LIG A   1      -7.771   0.731 128.293  0.00  0.00    +0.052 C 
BRANCH  11  13
ATOM     13  O   LIG A   1      -6.962   0.908 126.099  0.00  0.00    -0.461 OA
BRANCH  13  14
ATOM     14  C   LIG A   1      -7.790   0.413 125.131  0.00  0.00    +0.304 C 
ATOM     15  C   LIG A   1      -7.094  -0.717 124.430  0.00  0.00    +0.136 C 
ATOM     16  O   LIG A   1      -8.845   0.884 124.799  0.00  0.00    -0.251 OA
ENDBRANCH  13  14
ENDBRANCH  11  13
ENDBRANCH   5  11
BRANCH   4  17
ATOM     17  O   LIG A   1      -8.213   4.053 128.949  0.00  0.00    -0.309 OA
BRANCH  17  18
ATOM     18  C   LIG A   1      -8.443   5.223 129.736  0.00  0.00    +0.286 C 
ATOM     19  O   LIG A   1      -8.145   4.840 131.067  0.00  0.00    -0.340 OA
ATOM     20  C   LIG A   1      -8.559   5.783 132.045  0.00  0.00    +0.178 C 
ATOM     21  C   LIG A   1     -10.093   5.864 131.978  0.00  0.00    +0.177 C 
ATOM     22  C   LIG A   1     -10.433   6.569 130.669  0.00  0.00    +0.179 C 
ATOM     23  C   LIG A   1      -9.814   5.859 129.490  0.00  0.00    +0.201 C 
BRANCH  21  24
ATOM     24  O   LIG A   1     -10.682   6.594 133.042  0.00  0.00    -0.387 OA
ATOM     25  H   LIG A   1     -11.652   6.554 132.918  0.00  0.00    +0.210 HD
ENDBRANCH  21  24
BRANCH  22  26
ATOM     26  O   LIG A   1     -11.842   6.646 130.397  0.00  0.00    -0.386 OA
ATOM     27  H   LIG A   1     -12.315   6.482 131.230  0.00  0.00    +0.210 HD
ENDBRANCH  22  26
BRANCH  23  28
ATOM     28  O   LIG A   1      -9.653   6.876 128.479  0.00  0.00    -0.384 OA
ATOM     29  H   LIG A   1      -9.448   6.410 127.643  0.00  0.00    +0.210 HD
ENDBRANCH  23  28
BRANCH  20  30
ATOM     30  C   LIG A   1      -8.018   5.294 133.387  0.00  0.00    +0.190 C 
BRANCH  30  31
ATOM     31  O   LIG A   1      -9.011   4.612 134.140  0.00  0.00    -0.392 OA
ATOM     32  H   LIG A   1      -9.878   4.949 133.851  0.00  0.00    +0.209 HD
ENDBRANCH  30  31
ENDBRANCH  20  30
ENDBRANCH  17  18
ENDBRANCH   4  17
BRANCH   6  33
ATOM     33  C   LIG A   1      -4.450   4.125 126.508  0.00  0.00    +0.129 C 
BRANCH  33  34
ATOM     34  C   LIG A   1      -3.206   3.336 126.721  0.00  0.00    +0.305 C 
ATOM     35  O   LIG A   1      -2.135   3.774 127.158  0.00  0.00    -0.251 OA
BRANCH  34  36
ATOM     36  O   LIG A   1      -3.332   2.026 126.506  0.00  0.00    -0.481 OA
ATOM     37  H   LIG A   1      -3.683   1.654 127.343  0.00  0.00    +0.295 HD
ENDBRANCH  34  36
ENDBRANCH  33  34
ENDBRANCH   6  33
TORSDOF 15
ENDMDL
MODEL 8
REMARK VINA RESULT:      -6.3      2.516      3.333
REMARK  Name = NuBBE_337
REMARK  18 active torsions:
REMARK  status: ('A' for Active; 'I' for Inactive)
REMARK    1  A    between atoms: C_2  and  O_3
REMARK    2  A    between atoms: C_2  and  C_5
REMARK    3  A    between atoms: O_3  and  C_4
REMARK    4  A    between atoms: C_8  and  O_10
REMARK    5  A    between atoms: O_10  and  C_11
REMARK    6  A    between atoms: C_14  and  C_16
REMARK    7  A    between atoms: C_16  and  O_17
REMARK    8  A    between atoms: C_18  and  O_20
REMARK    9  A    between atoms: C_21  and  O_23
REMARK   10  A    between atoms: C_24  and  O_26
REMARK   11  A    between atoms: C_27  and  C_28
REMARK   12  A    between atoms: C_28  and  O_30
REMARK   13  A    between atoms: C_28  and  C_34
REMARK   14  A    between atoms: O_30  and  C_31
REMARK   15  A    between atoms: C_31  and  C_32
REMARK   16  A    between atoms: C_35  and  C_37
REMARK   17  A    between atoms: C_37  and  C_38
REMARK   18  A    between atoms: C_38  and  O_39
REMARK                            x       y       z     vdW  Elec       q    Type
REMARK                         _______ _______ _______ _____ _____    ______ ____
ROOT
ATOM      1  C   LIG A   1      -6.766   1.645 128.483  0.00  0.00    +0.075 C 
ATOM      2  C   LIG A   1      -7.901   2.226 128.058  0.00  0.00    +0.201 C 
ATOM      3  O   LIG A   1      -8.342   3.482 128.375  0.00  0.00    -0.470 OA
ATOM      4  C   LIG A   1      -7.433   4.307 129.121  0.00  0.00    +0.316 C 
ATOM      5  C   LIG A   1      -6.602   3.503 130.139  0.00  0.00    +0.106 C 
ATOM      6  C   LIG A   1      -5.791   2.420 129.331  0.00  0.00    +0.052 C 
ENDROOT
BRANCH   1   8
ATOM      7  O   LIG A   1      -5.915  -0.309 127.364  0.00  0.00    -0.245 OA
ATOM      8  C   LIG A   1      -6.602   0.177 128.247  0.00  0.00    +0.338 C 
BRANCH   8   9
ATOM      9  O   LIG A   1      -7.301  -0.519 129.185  0.00  0.00    -0.465 OA
ATOM     10  C   LIG A   1      -6.609  -1.558 129.877  0.00  0.00    +0.280 C 
ENDBRANCH   8   9
ENDBRANCH   1   8
BRANCH   5  11
ATOM     11  C   LIG A   1      -7.469   2.947 131.332  0.00  0.00    +0.183 C 
ATOM     12  C   LIG A   1      -7.460   3.762 132.641  0.00  0.00    +0.052 C 
BRANCH  11  13
ATOM     13  O   LIG A   1      -6.866   1.691 131.715  0.00  0.00    -0.461 OA
BRANCH  13  14
ATOM     14  C   LIG A   1      -7.665   0.843 132.429  0.00  0.00    +0.304 C 
ATOM     15  C   LIG A   1      -9.032   0.826 131.808  0.00  0.00    +0.136 C 
ATOM     16  O   LIG A   1      -7.372   0.302 133.462  0.00  0.00    -0.251 OA
ENDBRANCH  13  14
ENDBRANCH  11  13
ENDBRANCH   5  11
BRANCH   4  17
ATOM     17  O   LIG A   1      -8.147   5.399 129.677  0.00  0.00    -0.309 OA
BRANCH  17  18
ATOM     18  C   LIG A   1      -9.545   5.464 129.388  0.00  0.00    +0.286 C 
ATOM     19  O   LIG A   1      -9.704   6.618 128.580  0.00  0.00    -0.340 OA
ATOM     20  C   LIG A   1     -11.057   7.012 128.398  0.00  0.00    +0.178 C 
ATOM     21  C   LIG A   1     -11.606   7.403 129.780  0.00  0.00    +0.177 C 
ATOM     22  C   LIG A   1     -11.740   6.109 130.576  0.00  0.00    +0.179 C 
ATOM     23  C   LIG A   1     -10.427   5.367 130.637  0.00  0.00    +0.201 C 
BRANCH  21  24
ATOM     24  O   LIG A   1     -12.876   8.034 129.742  0.00  0.00    -0.387 OA
ATOM     25  H   LIG A   1     -13.278   7.823 128.875  0.00  0.00    +0.210 HD
ENDBRANCH  21  24
BRANCH  22  26
ATOM     26  O   LIG A   1     -12.155   6.302 131.939  0.00  0.00    -0.386 OA
ATOM     27  H   LIG A   1     -11.357   6.307 132.494  0.00  0.00    +0.210 HD
ENDBRANCH  22  26
BRANCH  23  28
ATOM     28  O   LIG A   1     -10.785   3.981 130.816  0.00  0.00    -0.384 OA
ATOM     29  H   LIG A   1     -11.417   3.761 130.102  0.00  0.00    +0.210 HD
ENDBRANCH  23  28
BRANCH  20  30
ATOM     30  C   LIG A   1     -11.051   8.153 127.384  0.00  0.00    +0.190 C 
BRANCH  30  31
ATOM     31  O   LIG A   1     -10.819   7.683 126.063  0.00  0.00    -0.392 OA
ATOM     32  H   LIG A   1     -11.245   8.311 125.451  0.00  0.00    +0.209 HD
ENDBRANCH  30  31
ENDBRANCH  20  30
ENDBRANCH  17  18
ENDBRANCH   4  17
BRANCH   6  33
ATOM     33  C   LIG A   1      -4.537   2.968 128.591  0.00  0.00    +0.129 C 
BRANCH  33  34
ATOM     34  C   LIG A   1      -4.514   2.880 127.105  0.00  0.00    +0.305 C 
ATOM     35  O   LIG A   1      -4.957   3.727 126.320  0.00  0.00    -0.251 OA
BRANCH  34  36
ATOM     36  O   LIG A   1      -3.857   1.826 126.618  0.00  0.00    -0.481 OA
ATOM     37  H   LIG A   1      -2.953   2.149 126.419  0.00  0.00    +0.295 HD
ENDBRANCH  34  36
ENDBRANCH  33  34
ENDBRANCH   6  33
TORSDOF 15
ENDMDL
MODEL 9
REMARK VINA RESULT:      -6.2      2.413      3.852
REMARK  Name = NuBBE_337
REMARK  18 active torsions:
REMARK  status: ('A' for Active; 'I' for Inactive)
REMARK    1  A    between atoms: C_2  and  O_3
REMARK    2  A    between atoms: C_2  and  C_5
REMARK    3  A    between atoms: O_3  and  C_4
REMARK    4  A    between atoms: C_8  and  O_10
REMARK    5  A    between atoms: O_10  and  C_11
REMARK    6  A    between atoms: C_14  and  C_16
REMARK    7  A    between atoms: C_16  and  O_17
REMARK    8  A    between atoms: C_18  and  O_20
REMARK    9  A    between atoms: C_21  and  O_23
REMARK   10  A    between atoms: C_24  and  O_26
REMARK   11  A    between atoms: C_27  and  C_28
REMARK   12  A    between atoms: C_28  and  O_30
REMARK   13  A    between atoms: C_28  and  C_34
REMARK   14  A    between atoms: O_30  and  C_31
REMARK   15  A    between atoms: C_31  and  C_32
REMARK   16  A    between atoms: C_35  and  C_37
REMARK   17  A    between atoms: C_37  and  C_38
REMARK   18  A    between atoms: C_38  and  O_39
REMARK                            x       y       z     vdW  Elec       q    Type
REMARK                         _______ _______ _______ _____ _____    ______ ____
ROOT
ATOM      1  C   LIG A   1      -7.628   2.259 129.303  0.00  0.00    +0.075 C 
ATOM      2  C   LIG A   1      -8.641   2.374 130.178  0.00  0.00    +0.201 C 
ATOM      3  O   LIG A   1      -9.389   3.495 130.414  0.00  0.00    -0.470 OA
ATOM      4  C   LIG A   1      -9.158   4.612 129.541  0.00  0.00    +0.316 C 
ATOM      5  C   LIG A   1      -7.679   4.746 129.130  0.00  0.00    +0.106 C 
ATOM      6  C   LIG A   1      -7.274   3.410 128.398  0.00  0.00    +0.052 C 
ENDROOT
BRANCH   1   8
ATOM      7  O   LIG A   1      -5.688   0.994 129.963  0.00  0.00    -0.245 OA
ATOM      8  C   LIG A   1      -6.765   1.039 129.391  0.00  0.00    +0.338 C 
BRANCH   8   9
ATOM      9  O   LIG A   1      -7.383  -0.005 128.775  0.00  0.00    -0.465 OA
ATOM     10  C   LIG A   1      -7.494  -1.224 129.510  0.00  0.00    +0.280 C 
ENDBRANCH   8   9
ENDBRANCH   1   8
BRANCH   5  11
ATOM     11  C   LIG A   1      -6.747   5.170 130.328  0.00  0.00    +0.183 C 
ATOM     12  C   LIG A   1      -7.276   6.272 131.268  0.00  0.00    +0.052 C 
BRANCH  11  13
ATOM     13  O   LIG A   1      -5.575   5.769 129.733  0.00  0.00    -0.461 OA
BRANCH  13  14
ATOM     14  C   LIG A   1      -4.393   5.520 130.371  0.00  0.00    +0.304 C 
ATOM     15  C   LIG A   1      -4.096   4.051 130.287  0.00  0.00    +0.136 C 
ATOM     16  O   LIG A   1      -3.758   6.315 131.011  0.00  0.00    -0.251 OA
ENDBRANCH  13  14
ENDBRANCH  11  13
ENDBRANCH   5  11
BRANCH   4  17
ATOM     17  O   LIG A   1      -9.713   5.780 130.124  0.00  0.00    -0.309 OA
BRANCH  17  18
ATOM     18  C   LIG A   1     -11.090   6.042 129.847  0.00  0.00    +0.286 C 
ATOM     19  O   LIG A   1     -11.133   6.392 128.475  0.00  0.00    -0.340 OA
ATOM     20  C   LIG A   1     -12.374   6.945 128.060  0.00  0.00    +0.178 C 
ATOM     21  C   LIG A   1     -12.563   8.266 128.824  0.00  0.00    +0.177 C 
ATOM     22  C   LIG A   1     -12.833   7.891 130.277  0.00  0.00    +0.179 C 
ATOM     23  C   LIG A   1     -11.729   7.025 130.833  0.00  0.00    +0.201 C 
BRANCH  21  24
ATOM     24  O   LIG A   1     -13.646   9.055 128.359  0.00  0.00    -0.387 OA
ATOM     25  H   LIG A   1     -13.466   9.979 128.626  0.00  0.00    +0.210 HD
ENDBRANCH  21  24
BRANCH  22  26
ATOM     26  O   LIG A   1     -12.940   9.020 131.161  0.00  0.00    -0.386 OA
ATOM     27  H   LIG A   1     -12.111   9.083 131.665  0.00  0.00    +0.210 HD
ENDBRANCH  22  26
BRANCH  23  28
ATOM     28  O   LIG A   1     -12.347   6.255 131.885  0.00  0.00    -0.384 OA
ATOM     29  H   LIG A   1     -11.749   6.308 132.658  0.00  0.00    +0.210 HD
ENDBRANCH  23  28
BRANCH  20  30
ATOM     30  C   LIG A   1     -12.300   7.106 126.543  0.00  0.00    +0.190 C 
BRANCH  30  31
ATOM     31  O   LIG A   1     -11.025   6.739 126.035  0.00  0.00    -0.392 OA
ATOM     32  H   LIG A   1     -10.372   6.904 126.739  0.00  0.00    +0.209 HD
ENDBRANCH  30  31
ENDBRANCH  20  30
ENDBRANCH  17  18
ENDBRANCH   4  17
BRANCH   6  33
ATOM     33  C   LIG A   1      -7.775   3.297 126.930  0.00  0.00    +0.129 C 
BRANCH  33  34
ATOM     34  C   LIG A   1      -7.852   4.548 126.125  0.00  0.00    +0.305 C 
ATOM     35  O   LIG A   1      -6.891   5.228 125.746  0.00  0.00    -0.251 OA
BRANCH  34  36
ATOM     36  O   LIG A   1      -9.079   4.871 125.711  0.00  0.00    -0.481 OA
ATOM     37  H   LIG A   1      -9.217   5.799 125.997  0.00  0.00    +0.295 HD
ENDBRANCH  34  36
ENDBRANCH  33  34
ENDBRANCH   6  33
TORSDOF 15
ENDMDL
