MODEL 1
REMARK VINA RESULT:      -6.8      0.000      0.000
REMARK  Name = NuBBE_1940
REMARK  4 active torsions:
REMARK  status: ('A' for Active; 'I' for Inactive)
REMARK    1  A    between atoms: C_1  and  C_2
REMARK    2  A    between atoms: C_6  and  C_17
REMARK    3  A    between atoms: C_10  and  C_16
REMARK    4  A    between atoms: C_17  and  C_19
REMARK                            x       y       z     vdW  Elec       q    Type
REMARK                         _______ _______ _______ _____ _____    ______ ____
ROOT
ATOM      1  C   LIG A   1      -6.559  -1.024 127.851  0.00  0.00    +0.012 C 
ATOM      2  C   LIG A   1      -7.933  -1.606 127.536  0.00  0.00    +0.012 C 
ATOM      3  C   LIG A   1      -8.386  -1.570 126.085  0.00  0.00    -0.067 C 
ATOM      4  C   LIG A   1      -8.035  -0.609 125.214  0.00  0.00    -0.019 C 
ATOM      5  C   LIG A   1      -8.357  -0.451 123.748  0.00  0.00    +0.037 C 
ATOM      6  C   LIG A   1      -8.389  -1.715 122.867  0.00  0.00    +0.012 C 
ATOM      7  C   LIG A   1      -9.281  -2.887 123.267  0.00  0.00    +0.005 C 
ATOM      8  C   LIG A   1      -8.923  -3.617 124.570  0.00  0.00    -0.007 C 
ATOM      9  C   LIG A   1      -9.269  -2.769 125.807  0.00  0.00    +0.018 C 
ATOM     10  C   LIG A   1      -9.227  -3.576 127.118  0.00  0.00    +0.009 C 
ATOM     11  C   LIG A   1      -7.985  -3.097 127.853  0.00  0.00    +0.008 C 
ATOM     12  C   LIG A   1      -7.490  -4.160 124.556  0.00  0.00    +0.008 C 
ENDROOT
BRANCH   5  13
ATOM     13  C   LIG A   1      -9.515   0.523 123.528  0.00  0.00    -0.073 C 
ATOM     14  C   LIG A   1     -10.240   0.493 122.394  0.00  0.00    +0.008 C 
ATOM     15  C   LIG A   1      -9.828   1.543 124.587  0.00  0.00    +0.039 C 
ENDBRANCH   5  13
TORSDOF 1
ENDMDL
MODEL 2
REMARK VINA RESULT:      -6.5      1.636      4.729
REMARK  Name = NuBBE_1940
REMARK  4 active torsions:
REMARK  status: ('A' for Active; 'I' for Inactive)
REMARK    1  A    between atoms: C_1  and  C_2
REMARK    2  A    between atoms: C_6  and  C_17
REMARK    3  A    between atoms: C_10  and  C_16
REMARK    4  A    between atoms: C_17  and  C_19
REMARK                            x       y       z     vdW  Elec       q    Type
REMARK                         _______ _______ _______ _____ _____    ______ ____
ROOT
ATOM      1  C   LIG A   1      -4.622  -3.147 123.792  0.00  0.00    +0.012 C 
ATOM      2  C   LIG A   1      -6.127  -2.986 123.603  0.00  0.00    +0.012 C 
ATOM      3  C   LIG A   1      -6.910  -2.380 124.756  0.00  0.00    -0.067 C 
ATOM      4  C   LIG A   1      -6.580  -2.534 126.049  0.00  0.00    -0.019 C 
ATOM      5  C   LIG A   1      -7.216  -1.971 127.297  0.00  0.00    +0.037 C 
ATOM      6  C   LIG A   1      -7.759  -0.530 127.252  0.00  0.00    +0.012 C 
ATOM      7  C   LIG A   1      -8.766  -0.139 126.174  0.00  0.00    +0.005 C 
ATOM      8  C   LIG A   1      -8.268  -0.161 124.721  0.00  0.00    -0.007 C 
ATOM      9  C   LIG A   1      -8.087  -1.600 124.206  0.00  0.00    +0.018 C 
ATOM     10  C   LIG A   1      -7.901  -1.672 122.679  0.00  0.00    +0.009 C 
ATOM     11  C   LIG A   1      -6.439  -2.024 122.461  0.00  0.00    +0.008 C 
ATOM     12  C   LIG A   1      -7.049   0.745 124.512  0.00  0.00    +0.008 C 
ENDROOT
BRANCH   5  13
ATOM     13  C   LIG A   1      -8.136  -2.991 127.968  0.00  0.00    -0.073 C 
ATOM     14  C   LIG A   1      -9.040  -3.687 127.253  0.00  0.00    +0.008 C 
ATOM     15  C   LIG A   1      -8.044  -3.196 129.455  0.00  0.00    +0.039 C 
ENDBRANCH   5  13
TORSDOF 1
ENDMDL
MODEL 3
REMARK VINA RESULT:      -6.4      1.180      4.391
REMARK  Name = NuBBE_1940
REMARK  4 active torsions:
REMARK  status: ('A' for Active; 'I' for Inactive)
REMARK    1  A    between atoms: C_1  and  C_2
REMARK    2  A    between atoms: C_6  and  C_17
REMARK    3  A    between atoms: C_10  and  C_16
REMARK    4  A    between atoms: C_17  and  C_19
REMARK                            x       y       z     vdW  Elec       q    Type
REMARK                         _______ _______ _______ _____ _____    ______ ____
ROOT
ATOM      1  C   LIG A   1     -10.164   1.192 124.666  0.00  0.00    +0.012 C 
ATOM      2  C   LIG A   1      -8.695   0.810 124.807  0.00  0.00    +0.012 C 
ATOM      3  C   LIG A   1      -8.378  -0.659 125.039  0.00  0.00    -0.067 C 
ATOM      4  C   LIG A   1      -9.182  -1.502 125.708  0.00  0.00    -0.019 C 
ATOM      5  C   LIG A   1      -9.040  -2.978 125.986  0.00  0.00    +0.037 C 
ATOM      6  C   LIG A   1      -8.447  -3.874 124.881  0.00  0.00    +0.012 C 
ATOM      7  C   LIG A   1      -7.088  -3.528 124.280  0.00  0.00    +0.005 C 
ATOM      8  C   LIG A   1      -6.997  -2.219 123.481  0.00  0.00    -0.007 C 
ATOM      9  C   LIG A   1      -7.043  -0.989 124.404  0.00  0.00    +0.018 C 
ATOM     10  C   LIG A   1      -6.638   0.313 123.688  0.00  0.00    +0.009 C 
ATOM     11  C   LIG A   1      -7.923   1.107 123.524  0.00  0.00    +0.008 C 
ATOM     12  C   LIG A   1      -7.997  -2.178 122.320  0.00  0.00    +0.008 C 
ENDROOT
BRANCH   5  13
ATOM     13  C   LIG A   1      -8.497  -3.236 127.391  0.00  0.00    -0.073 C 
ATOM     14  C   LIG A   1      -9.123  -4.081 128.232  0.00  0.00    +0.008 C 
ATOM     15  C   LIG A   1      -7.258  -2.514 127.845  0.00  0.00    +0.039 C 
ENDBRANCH   5  13
TORSDOF 1
ENDMDL
MODEL 4
REMARK VINA RESULT:      -6.1      2.094      3.123
REMARK  Name = NuBBE_1940
REMARK  4 active torsions:
REMARK  status: ('A' for Active; 'I' for Inactive)
REMARK    1  A    between atoms: C_1  and  C_2
REMARK    2  A    between atoms: C_6  and  C_17
REMARK    3  A    between atoms: C_10  and  C_16
REMARK    4  A    between atoms: C_17  and  C_19
REMARK                            x       y       z     vdW  Elec       q    Type
REMARK                         _______ _______ _______ _____ _____    ______ ____
ROOT
ATOM      1  C   LIG A   1      -4.331  -2.909 128.629  0.00  0.00    +0.012 C 
ATOM      2  C   LIG A   1      -5.518  -1.972 128.433  0.00  0.00    +0.012 C 
ATOM      3  C   LIG A   1      -6.367  -2.177 127.189  0.00  0.00    -0.067 C 
ATOM      4  C   LIG A   1      -5.886  -2.629 126.019  0.00  0.00    -0.019 C 
ATOM      5  C   LIG A   1      -6.591  -2.927 124.718  0.00  0.00    +0.037 C 
ATOM      6  C   LIG A   1      -7.994  -3.562 124.779  0.00  0.00    +0.012 C 
ATOM      7  C   LIG A   1      -9.092  -2.883 125.591  0.00  0.00    +0.005 C 
ATOM      8  C   LIG A   1      -8.889  -2.818 127.113  0.00  0.00    -0.007 C 
ATOM      9  C   LIG A   1      -7.802  -1.797 127.494  0.00  0.00    +0.018 C 
ATOM     10  C   LIG A   1      -7.789  -1.469 128.999  0.00  0.00    +0.009 C 
ATOM     11  C   LIG A   1      -6.542  -2.138 129.552  0.00  0.00    +0.008 C 
ATOM     12  C   LIG A   1      -8.698  -4.207 127.732  0.00  0.00    +0.008 C 
ENDROOT
BRANCH   5  13
ATOM     13  C   LIG A   1      -6.441  -1.778 123.721  0.00  0.00    -0.073 C 
ATOM     14  C   LIG A   1      -6.185  -2.017 122.421  0.00  0.00    +0.008 C 
ATOM     15  C   LIG A   1      -6.556  -0.360 124.210  0.00  0.00    +0.039 C 
ENDBRANCH   5  13
TORSDOF 1
ENDMDL
MODEL 5
REMARK VINA RESULT:      -6.1      2.280      5.264
REMARK  Name = NuBBE_1940
REMARK  4 active torsions:
REMARK  status: ('A' for Active; 'I' for Inactive)
REMARK    1  A    between atoms: C_1  and  C_2
REMARK    2  A    between atoms: C_6  and  C_17
REMARK    3  A    between atoms: C_10  and  C_16
REMARK    4  A    between atoms: C_17  and  C_19
REMARK                            x       y       z     vdW  Elec       q    Type
REMARK                         _______ _______ _______ _____ _____    ______ ____
ROOT
ATOM      1  C   LIG A   1      -5.522   0.701 125.841  0.00  0.00    +0.012 C 
ATOM      2  C   LIG A   1      -5.603  -0.768 125.440  0.00  0.00    +0.012 C 
ATOM      3  C   LIG A   1      -6.248  -1.723 126.431  0.00  0.00    -0.067 C 
ATOM      4  C   LIG A   1      -6.194  -1.569 127.765  0.00  0.00    -0.019 C 
ATOM      5  C   LIG A   1      -6.809  -2.390 128.872  0.00  0.00    +0.037 C 
ATOM      6  C   LIG A   1      -8.219  -2.971 128.651  0.00  0.00    +0.012 C 
ATOM      7  C   LIG A   1      -8.493  -3.833 127.423  0.00  0.00    +0.005 C 
ATOM      8  C   LIG A   1      -8.398  -3.140 126.055  0.00  0.00    -0.007 C 
ATOM      9  C   LIG A   1      -6.938  -2.839 125.674  0.00  0.00    +0.018 C 
ATOM     10  C   LIG A   1      -6.774  -2.443 124.194  0.00  0.00    +0.009 C 
ATOM     11  C   LIG A   1      -6.473  -0.953 124.201  0.00  0.00    +0.008 C 
ATOM     12  C   LIG A   1      -9.341  -1.936 125.949  0.00  0.00    +0.008 C 
ENDROOT
BRANCH   5  13
ATOM     13  C   LIG A   1      -5.796  -3.357 129.484  0.00  0.00    -0.073 C 
ATOM     14  C   LIG A   1      -6.179  -4.290 130.376  0.00  0.00    +0.008 C 
ATOM     15  C   LIG A   1      -4.347  -3.244 129.099  0.00  0.00    +0.039 C 
ENDBRANCH   5  13
TORSDOF 1
ENDMDL
MODEL 6
REMARK VINA RESULT:      -6.1      2.125      4.371
REMARK  Name = NuBBE_1940
REMARK  4 active torsions:
REMARK  status: ('A' for Active; 'I' for Inactive)
REMARK    1  A    between atoms: C_1  and  C_2
REMARK    2  A    between atoms: C_6  and  C_17
REMARK    3  A    between atoms: C_10  and  C_16
REMARK    4  A    between atoms: C_17  and  C_19
REMARK                            x       y       z     vdW  Elec       q    Type
REMARK                         _______ _______ _______ _____ _____    ______ ____
ROOT
ATOM      1  C   LIG A   1      -5.548   0.929 126.804  0.00  0.00    +0.012 C 
ATOM      2  C   LIG A   1      -6.167   0.845 125.413  0.00  0.00    +0.012 C 
ATOM      3  C   LIG A   1      -6.470  -0.543 124.870  0.00  0.00    -0.067 C 
ATOM      4  C   LIG A   1      -5.749  -1.637 125.166  0.00  0.00    -0.019 C 
ATOM      5  C   LIG A   1      -5.938  -3.076 124.753  0.00  0.00    +0.037 C 
ATOM      6  C   LIG A   1      -7.374  -3.627 124.666  0.00  0.00    +0.012 C 
ATOM      7  C   LIG A   1      -8.404  -2.908 123.801  0.00  0.00    +0.005 C 
ATOM      8  C   LIG A   1      -8.810  -1.492 124.240  0.00  0.00    -0.007 C 
ATOM      9  C   LIG A   1      -7.688  -0.474 123.971  0.00  0.00    +0.018 C 
ATOM     10  C   LIG A   1      -8.161   0.986 124.096  0.00  0.00    +0.009 C 
ATOM     11  C   LIG A   1      -7.540   1.509 125.380  0.00  0.00    +0.008 C 
ATOM     12  C   LIG A   1      -9.362  -1.464 125.670  0.00  0.00    +0.008 C 
ENDROOT
BRANCH   5  13
ATOM     13  C   LIG A   1      -5.027  -3.451 123.584  0.00  0.00    -0.073 C 
ATOM     14  C   LIG A   1      -4.950  -2.672 122.488  0.00  0.00    +0.008 C 
ATOM     15  C   LIG A   1      -4.228  -4.722 123.653  0.00  0.00    +0.039 C 
ENDBRANCH   5  13
TORSDOF 1
ENDMDL
MODEL 7
REMARK VINA RESULT:      -6.0      1.799      3.938
REMARK  Name = NuBBE_1940
REMARK  4 active torsions:
REMARK  status: ('A' for Active; 'I' for Inactive)
REMARK    1  A    between atoms: C_1  and  C_2
REMARK    2  A    between atoms: C_6  and  C_17
REMARK    3  A    between atoms: C_10  and  C_16
REMARK    4  A    between atoms: C_17  and  C_19
REMARK                            x       y       z     vdW  Elec       q    Type
REMARK                         _______ _______ _______ _____ _____    ______ ____
ROOT
ATOM      1  C   LIG A   1      -8.201  -2.944 129.901  0.00  0.00    +0.012 C 
ATOM      2  C   LIG A   1      -6.956  -3.104 129.035  0.00  0.00    +0.012 C 
ATOM      3  C   LIG A   1      -7.019  -2.549 127.621  0.00  0.00    -0.067 C 
ATOM      4  C   LIG A   1      -8.141  -2.501 126.884  0.00  0.00    -0.019 C 
ATOM      5  C   LIG A   1      -8.382  -1.950 125.500  0.00  0.00    +0.037 C 
ATOM      6  C   LIG A   1      -7.650  -0.656 125.093  0.00  0.00    +0.012 C 
ATOM      7  C   LIG A   1      -6.130  -0.585 125.207  0.00  0.00    +0.005 C 
ATOM      8  C   LIG A   1      -5.538  -0.656 126.623  0.00  0.00    -0.007 C 
ATOM      9  C   LIG A   1      -5.640  -2.077 127.207  0.00  0.00    +0.018 C 
ATOM     10  C   LIG A   1      -4.785  -2.267 128.474  0.00  0.00    +0.009 C 
ATOM     11  C   LIG A   1      -5.772  -2.344 129.626  0.00  0.00    +0.008 C 
ATOM     12  C   LIG A   1      -6.085   0.446 127.537  0.00  0.00    +0.008 C 
ENDROOT
BRANCH   5  13
ATOM     13  C   LIG A   1      -8.379  -3.056 124.445  0.00  0.00    -0.073 C 
ATOM     14  C   LIG A   1      -7.359  -3.932 124.361  0.00  0.00    +0.008 C 
ATOM     15  C   LIG A   1      -9.522  -3.148 123.473  0.00  0.00    +0.039 C 
ENDBRANCH   5  13
TORSDOF 1
ENDMDL
MODEL 8
REMARK VINA RESULT:      -5.9      1.406      2.564
REMARK  Name = NuBBE_1940
REMARK  4 active torsions:
REMARK  status: ('A' for Active; 'I' for Inactive)
REMARK    1  A    between atoms: C_1  and  C_2
REMARK    2  A    between atoms: C_6  and  C_17
REMARK    3  A    between atoms: C_10  and  C_16
REMARK    4  A    between atoms: C_17  and  C_19
REMARK                            x       y       z     vdW  Elec       q    Type
REMARK                         _______ _______ _______ _____ _____    ______ ____
ROOT
ATOM      1  C   LIG A   1      -8.531  -2.918 127.527  0.00  0.00    +0.012 C 
ATOM      2  C   LIG A   1      -8.987  -2.794 126.077  0.00  0.00    +0.012 C 
ATOM      3  C   LIG A   1      -8.496  -1.586 125.296  0.00  0.00    -0.067 C 
ATOM      4  C   LIG A   1      -8.247  -0.387 125.848  0.00  0.00    -0.019 C 
ATOM      5  C   LIG A   1      -7.720   0.886 125.231  0.00  0.00    +0.037 C 
ATOM      6  C   LIG A   1      -6.630   0.774 124.149  0.00  0.00    +0.012 C 
ATOM      7  C   LIG A   1      -6.874  -0.100 122.922  0.00  0.00    +0.005 C 
ATOM      8  C   LIG A   1      -7.004  -1.611 123.164  0.00  0.00    -0.007 C 
ATOM      9  C   LIG A   1      -8.343  -1.963 123.836  0.00  0.00    +0.018 C 
ATOM     10  C   LIG A   1      -8.652  -3.471 123.806  0.00  0.00    +0.009 C 
ATOM     11  C   LIG A   1      -8.467  -3.955 125.234  0.00  0.00    +0.008 C 
ATOM     12  C   LIG A   1      -5.772  -2.195 123.863  0.00  0.00    +0.008 C 
ENDROOT
BRANCH   5  13
ATOM     13  C   LIG A   1      -8.849   1.867 124.916  0.00  0.00    -0.073 C 
ATOM     14  C   LIG A   1     -10.070   1.428 124.556  0.00  0.00    +0.008 C 
ATOM     15  C   LIG A   1      -8.580   3.345 124.987  0.00  0.00    +0.039 C 
ENDBRANCH   5  13
TORSDOF 1
ENDMDL
MODEL 9
REMARK VINA RESULT:      -5.9      3.520      6.072
REMARK  Name = NuBBE_1940
REMARK  4 active torsions:
REMARK  status: ('A' for Active; 'I' for Inactive)
REMARK    1  A    between atoms: C_1  and  C_2
REMARK    2  A    between atoms: C_6  and  C_17
REMARK    3  A    between atoms: C_10  and  C_16
REMARK    4  A    between atoms: C_17  and  C_19
REMARK                            x       y       z     vdW  Elec       q    Type
REMARK                         _______ _______ _______ _____ _____    ______ ____
ROOT
ATOM      1  C   LIG A   1      -7.674  -2.609 133.186  0.00  0.00    +0.012 C 
ATOM      2  C   LIG A   1      -6.999  -3.695 132.356  0.00  0.00    +0.012 C 
ATOM      3  C   LIG A   1      -6.673  -3.362 130.909  0.00  0.00    -0.067 C 
ATOM      4  C   LIG A   1      -7.406  -2.531 130.148  0.00  0.00    -0.019 C 
ATOM      5  C   LIG A   1      -7.200  -2.065 128.728  0.00  0.00    +0.037 C 
ATOM      6  C   LIG A   1      -5.761  -1.782 128.255  0.00  0.00    +0.012 C 
ATOM      7  C   LIG A   1      -4.697  -2.867 128.395  0.00  0.00    +0.005 C 
ATOM      8  C   LIG A   1      -4.310  -3.278 129.823  0.00  0.00    -0.007 C 
ATOM      9  C   LIG A   1      -5.421  -4.106 130.493  0.00  0.00    +0.018 C 
ATOM     10  C   LIG A   1      -4.953  -4.801 131.786  0.00  0.00    +0.009 C 
ATOM     11  C   LIG A   1      -5.626  -4.047 132.922  0.00  0.00    +0.008 C 
ATOM     12  C   LIG A   1      -3.817  -2.089 130.655  0.00  0.00    +0.008 C 
ENDROOT
BRANCH   5  13
ATOM     13  C   LIG A   1      -8.062  -2.857 127.745  0.00  0.00    -0.073 C 
ATOM     14  C   LIG A   1      -8.038  -2.586 126.426  0.00  0.00    +0.008 C 
ATOM     15  C   LIG A   1      -8.968  -3.938 128.268  0.00  0.00    +0.039 C 
ENDBRANCH   5  13
TORSDOF 1
ENDMDL
