MODEL 1
REMARK VINA RESULT:      -6.3      0.000      0.000
REMARK  Name = NuBBE_421
REMARK  12 active torsions:
REMARK  status: ('A' for Active; 'I' for Inactive)
REMARK    1  A    between atoms: C_1  and  C_2
REMARK    2  A    between atoms: C_2  and  C_3
REMARK    3  A    between atoms: C_3  and  C_4
REMARK    4  A    between atoms: C_4  and  C_5
REMARK    5  A    between atoms: C_6  and  C_7
REMARK    6  A    between atoms: C_6  and  C_8
REMARK    7  A    between atoms: C_9  and  C_10
REMARK    8  A    between atoms: C_10  and  C_11
REMARK    9  A    between atoms: C_12  and  O_13
REMARK   10  A    between atoms: O_13  and  C_14
REMARK   11  A    between atoms: C_17  and  C_18
REMARK   12  A    between atoms: C_18  and  O_19
REMARK                            x       y       z     vdW  Elec       q    Type
REMARK                         _______ _______ _______ _____ _____    ______ ____
ROOT
ATOM      1  C   LIG A   1      -7.297   1.875 124.753  0.00  0.00    -0.001 A 
ATOM      2  C   LIG A   1      -6.885   2.913 123.895  0.00  0.00    +0.124 A 
ATOM      3  C   LIG A   1      -7.661   3.242 122.778  0.00  0.00    +0.046 A 
ATOM      4  C   LIG A   1      -8.859   2.571 122.525  0.00  0.00    +0.018 A 
ATOM      5  C   LIG A   1      -9.291   1.563 123.387  0.00  0.00    +0.059 A 
ATOM      6  C   LIG A   1      -8.518   1.219 124.500  0.00  0.00    +0.022 A 
ENDROOT
BRANCH   2   7
ATOM      7  O   LIG A   1      -5.690   3.521 124.186  0.00  0.00    -0.495 OA
ATOM      8  C   LIG A   1      -5.773   4.865 124.654  0.00  0.00    +0.277 C 
ENDBRANCH   2   7
BRANCH   5   9
ATOM      9  C   LIG A   1     -10.574   0.859 123.160  0.00  0.00    +0.337 C 
ATOM     10  O   LIG A   1     -10.772  -0.029 122.361  0.00  0.00    -0.245 OA
BRANCH   9  11
ATOM     11  O   LIG A   1     -11.560   1.353 123.933  0.00  0.00    -0.477 OA
ATOM     12  H   LIG A   1     -12.215   1.697 123.291  0.00  0.00    +0.295 HD
ENDBRANCH   9  11
ENDBRANCH   5   9
BRANCH   1  13
ATOM     13  C   LIG A   1      -6.507   1.489 125.988  0.00  0.00    +0.066 C 
BRANCH  13  16
ATOM     14  C   LIG A   1      -7.608  -1.144 127.357  0.00  0.00    +0.038 C 
ATOM     15  C   LIG A   1      -6.403  -1.041 126.460  0.00  0.00    -0.076 C 
ATOM     16  C   LIG A   1      -5.963   0.090 125.874  0.00  0.00    -0.023 C 
BRANCH  15  17
ATOM     17  C   LIG A   1      -5.655  -2.345 126.238  0.00  0.00    +0.034 C 
BRANCH  17  18
ATOM     18  C   LIG A   1      -5.852  -2.903 124.823  0.00  0.00    +0.031 C 
BRANCH  18  19
ATOM     19  C   LIG A   1      -7.287  -3.269 124.576  0.00  0.00    -0.028 C 
ATOM     20  C   LIG A   1      -8.086  -2.801 123.598  0.00  0.00    -0.080 C 
ATOM     21  C   LIG A   1      -7.676  -1.784 122.569  0.00  0.00    +0.038 C 
ATOM     22  C   LIG A   1      -9.513  -3.267 123.484  0.00  0.00    +0.038 C 
ENDBRANCH  18  19
ENDBRANCH  17  18
ENDBRANCH  15  17
ENDBRANCH  13  16
ENDBRANCH   1  13
TORSDOF 8
ENDMDL
MODEL 2
REMARK VINA RESULT:      -6.3      3.284      5.954
REMARK  Name = NuBBE_421
REMARK  12 active torsions:
REMARK  status: ('A' for Active; 'I' for Inactive)
REMARK    1  A    between atoms: C_1  and  C_2
REMARK    2  A    between atoms: C_2  and  C_3
REMARK    3  A    between atoms: C_3  and  C_4
REMARK    4  A    between atoms: C_4  and  C_5
REMARK    5  A    between atoms: C_6  and  C_7
REMARK    6  A    between atoms: C_6  and  C_8
REMARK    7  A    between atoms: C_9  and  C_10
REMARK    8  A    between atoms: C_10  and  C_11
REMARK    9  A    between atoms: C_12  and  O_13
REMARK   10  A    between atoms: O_13  and  C_14
REMARK   11  A    between atoms: C_17  and  C_18
REMARK   12  A    between atoms: C_18  and  O_19
REMARK                            x       y       z     vdW  Elec       q    Type
REMARK                         _______ _______ _______ _____ _____    ______ ____
ROOT
ATOM      1  C   LIG A   1      -7.932  -2.784 124.436  0.00  0.00    -0.001 A 
ATOM      2  C   LIG A   1      -7.870  -1.580 123.707  0.00  0.00    +0.124 A 
ATOM      3  C   LIG A   1      -6.714  -1.264 122.984  0.00  0.00    +0.046 A 
ATOM      4  C   LIG A   1      -5.633  -2.147 122.953  0.00  0.00    +0.018 A 
ATOM      5  C   LIG A   1      -5.698  -3.356 123.646  0.00  0.00    +0.059 A 
ATOM      6  C   LIG A   1      -6.844  -3.677 124.380  0.00  0.00    +0.022 A 
ENDROOT
BRANCH   2   7
ATOM      7  O   LIG A   1      -8.955  -0.746 123.793  0.00  0.00    -0.495 OA
ATOM      8  C   LIG A   1      -9.671  -0.528 122.579  0.00  0.00    +0.277 C 
ENDBRANCH   2   7
BRANCH   5   9
ATOM      9  C   LIG A   1      -4.579  -4.325 123.602  0.00  0.00    +0.337 C 
ATOM     10  O   LIG A   1      -3.409  -4.061 123.441  0.00  0.00    -0.245 OA
BRANCH   9  11
ATOM     11  O   LIG A   1      -5.012  -5.595 123.719  0.00  0.00    -0.477 OA
ATOM     12  H   LIG A   1      -4.252  -6.070 124.112  0.00  0.00    +0.295 HD
ENDBRANCH   9  11
ENDBRANCH   5   9
BRANCH   1  13
ATOM     13  C   LIG A   1      -9.166  -3.189 125.219  0.00  0.00    +0.066 C 
BRANCH  13  16
ATOM     14  C   LIG A   1      -8.217  -1.387 127.643  0.00  0.00    +0.038 C 
ATOM     15  C   LIG A   1      -8.385  -2.884 127.656  0.00  0.00    -0.076 C 
ATOM     16  C   LIG A   1      -8.807  -3.628 126.614  0.00  0.00    -0.023 C 
BRANCH  15  17
ATOM     17  C   LIG A   1      -8.028  -3.560 128.968  0.00  0.00    +0.034 C 
BRANCH  17  18
ATOM     18  C   LIG A   1      -7.117  -2.694 129.847  0.00  0.00    +0.031 C 
BRANCH  18  19
ATOM     19  C   LIG A   1      -5.727  -3.257 129.913  0.00  0.00    -0.028 C 
ATOM     20  C   LIG A   1      -4.742  -3.092 129.009  0.00  0.00    -0.080 C 
ATOM     21  C   LIG A   1      -4.874  -2.313 127.730  0.00  0.00    +0.038 C 
ATOM     22  C   LIG A   1      -3.394  -3.728 129.218  0.00  0.00    +0.038 C 
ENDBRANCH  18  19
ENDBRANCH  17  18
ENDBRANCH  15  17
ENDBRANCH  13  16
ENDBRANCH   1  13
TORSDOF 8
ENDMDL
MODEL 3
REMARK VINA RESULT:      -6.1      2.439      3.949
REMARK  Name = NuBBE_421
REMARK  12 active torsions:
REMARK  status: ('A' for Active; 'I' for Inactive)
REMARK    1  A    between atoms: C_1  and  C_2
REMARK    2  A    between atoms: C_2  and  C_3
REMARK    3  A    between atoms: C_3  and  C_4
REMARK    4  A    between atoms: C_4  and  C_5
REMARK    5  A    between atoms: C_6  and  C_7
REMARK    6  A    between atoms: C_6  and  C_8
REMARK    7  A    between atoms: C_9  and  C_10
REMARK    8  A    between atoms: C_10  and  C_11
REMARK    9  A    between atoms: C_12  and  O_13
REMARK   10  A    between atoms: O_13  and  C_14
REMARK   11  A    between atoms: C_17  and  C_18
REMARK   12  A    between atoms: C_18  and  O_19
REMARK                            x       y       z     vdW  Elec       q    Type
REMARK                         _______ _______ _______ _____ _____    ______ ____
ROOT
ATOM      1  C   LIG A   1      -8.127   2.898 124.281  0.00  0.00    -0.001 A 
ATOM      2  C   LIG A   1      -7.717   3.667 125.387  0.00  0.00    +0.124 A 
ATOM      3  C   LIG A   1      -6.575   4.471 125.291  0.00  0.00    +0.046 A 
ATOM      4  C   LIG A   1      -5.857   4.541 124.096  0.00  0.00    +0.018 A 
ATOM      5  C   LIG A   1      -6.273   3.807 122.986  0.00  0.00    +0.059 A 
ATOM      6  C   LIG A   1      -7.407   2.993 123.074  0.00  0.00    +0.022 A 
ENDROOT
BRANCH   2   7
ATOM      7  O   LIG A   1      -8.453   3.542 126.538  0.00  0.00    -0.495 OA
ATOM      8  C   LIG A   1      -7.724   3.179 127.708  0.00  0.00    +0.277 C 
ENDBRANCH   2   7
BRANCH   5   9
ATOM      9  C   LIG A   1      -5.548   3.889 121.697  0.00  0.00    +0.337 C 
ATOM     10  O   LIG A   1      -5.519   3.039 120.836  0.00  0.00    -0.245 OA
BRANCH   9  11
ATOM     11  O   LIG A   1      -4.854   5.039 121.585  0.00  0.00    -0.477 OA
ATOM     12  H   LIG A   1      -4.082   4.908 122.173  0.00  0.00    +0.295 HD
ENDBRANCH   9  11
ENDBRANCH   5   9
BRANCH   1  13
ATOM     13  C   LIG A   1      -9.367   2.026 124.321  0.00  0.00    +0.066 C 
BRANCH  13  16
ATOM     14  C   LIG A   1      -9.418  -0.767 122.832  0.00  0.00    +0.038 C 
ATOM     15  C   LIG A   1      -9.093  -0.535 124.283  0.00  0.00    -0.076 C 
ATOM     16  C   LIG A   1      -9.061   0.667 124.892  0.00  0.00    -0.023 C 
BRANCH  15  17
ATOM     17  C   LIG A   1      -8.793  -1.792 125.082  0.00  0.00    +0.034 C 
BRANCH  17  18
ATOM     18  C   LIG A   1      -8.577  -3.020 124.190  0.00  0.00    +0.031 C 
BRANCH  18  19
ATOM     19  C   LIG A   1      -7.188  -3.569 124.343  0.00  0.00    -0.028 C 
ATOM     20  C   LIG A   1      -6.078  -3.156 123.700  0.00  0.00    -0.080 C 
ATOM     21  C   LIG A   1      -6.040  -2.061 122.671  0.00  0.00    +0.038 C 
ATOM     22  C   LIG A   1      -4.750  -3.815 123.962  0.00  0.00    +0.038 C 
ENDBRANCH  18  19
ENDBRANCH  17  18
ENDBRANCH  15  17
ENDBRANCH  13  16
ENDBRANCH   1  13
TORSDOF 8
ENDMDL
MODEL 4
REMARK VINA RESULT:      -6.1      7.384      9.678
REMARK  Name = NuBBE_421
REMARK  12 active torsions:
REMARK  status: ('A' for Active; 'I' for Inactive)
REMARK    1  A    between atoms: C_1  and  C_2
REMARK    2  A    between atoms: C_2  and  C_3
REMARK    3  A    between atoms: C_3  and  C_4
REMARK    4  A    between atoms: C_4  and  C_5
REMARK    5  A    between atoms: C_6  and  C_7
REMARK    6  A    between atoms: C_6  and  C_8
REMARK    7  A    between atoms: C_9  and  C_10
REMARK    8  A    between atoms: C_10  and  C_11
REMARK    9  A    between atoms: C_12  and  O_13
REMARK   10  A    between atoms: O_13  and  C_14
REMARK   11  A    between atoms: C_17  and  C_18
REMARK   12  A    between atoms: C_18  and  O_19
REMARK                            x       y       z     vdW  Elec       q    Type
REMARK                         _______ _______ _______ _____ _____    ______ ____
ROOT
ATOM      1  C   LIG A   1      -7.978   6.426 131.845  0.00  0.00    -0.001 A 
ATOM      2  C   LIG A   1      -8.872   5.791 132.729  0.00  0.00    +0.124 A 
ATOM      3  C   LIG A   1     -10.247   5.828 132.474  0.00  0.00    +0.046 A 
ATOM      4  C   LIG A   1     -10.739   6.463 131.331  0.00  0.00    +0.018 A 
ATOM      5  C   LIG A   1      -9.859   7.067 130.434  0.00  0.00    +0.059 A 
ATOM      6  C   LIG A   1      -8.483   7.044 130.685  0.00  0.00    +0.022 A 
ENDROOT
BRANCH   2   7
ATOM      7  O   LIG A   1      -8.330   5.202 133.843  0.00  0.00    -0.495 OA
ATOM      8  C   LIG A   1      -8.846   3.917 134.182  0.00  0.00    +0.277 C 
ENDBRANCH   2   7
BRANCH   5   9
ATOM      9  C   LIG A   1     -10.351   7.717 129.197  0.00  0.00    +0.337 C 
ATOM     10  O   LIG A   1      -9.737   8.497 128.505  0.00  0.00    -0.245 OA
BRANCH   9  11
ATOM     11  O   LIG A   1     -11.626   7.376 128.926  0.00  0.00    -0.477 OA
ATOM     12  H   LIG A   1     -11.892   6.825 129.691  0.00  0.00    +0.295 HD
ENDBRANCH   9  11
ENDBRANCH   5   9
BRANCH   1  13
ATOM     13  C   LIG A   1      -6.477   6.400 132.061  0.00  0.00    +0.066 C 
BRANCH  13  16
ATOM     14  C   LIG A   1      -3.524   7.494 131.740  0.00  0.00    +0.038 C 
ATOM     15  C   LIG A   1      -4.488   7.188 130.625  0.00  0.00    -0.076 C 
ATOM     16  C   LIG A   1      -5.737   6.706 130.786  0.00  0.00    -0.023 C 
BRANCH  15  17
ATOM     17  C   LIG A   1      -3.964   7.471 129.227  0.00  0.00    +0.034 C 
BRANCH  17  18
ATOM     18  C   LIG A   1      -2.536   6.954 129.018  0.00  0.00    +0.031 C 
BRANCH  18  19
ATOM     19  C   LIG A   1      -2.497   5.865 127.984  0.00  0.00    -0.028 C 
ATOM     20  C   LIG A   1      -2.815   4.569 128.161  0.00  0.00    -0.080 C 
ATOM     21  C   LIG A   1      -3.255   3.963 129.465  0.00  0.00    +0.038 C 
ATOM     22  C   LIG A   1      -2.720   3.593 127.018  0.00  0.00    +0.038 C 
ENDBRANCH  18  19
ENDBRANCH  17  18
ENDBRANCH  15  17
ENDBRANCH  13  16
ENDBRANCH   1  13
TORSDOF 8
ENDMDL
MODEL 5
REMARK VINA RESULT:      -6.1      1.865      2.959
REMARK  Name = NuBBE_421
REMARK  12 active torsions:
REMARK  status: ('A' for Active; 'I' for Inactive)
REMARK    1  A    between atoms: C_1  and  C_2
REMARK    2  A    between atoms: C_2  and  C_3
REMARK    3  A    between atoms: C_3  and  C_4
REMARK    4  A    between atoms: C_4  and  C_5
REMARK    5  A    between atoms: C_6  and  C_7
REMARK    6  A    between atoms: C_6  and  C_8
REMARK    7  A    between atoms: C_9  and  C_10
REMARK    8  A    between atoms: C_10  and  C_11
REMARK    9  A    between atoms: C_12  and  O_13
REMARK   10  A    between atoms: O_13  and  C_14
REMARK   11  A    between atoms: C_17  and  C_18
REMARK   12  A    between atoms: C_18  and  O_19
REMARK                            x       y       z     vdW  Elec       q    Type
REMARK                         _______ _______ _______ _____ _____    ______ ____
ROOT
ATOM      1  C   LIG A   1      -7.920   1.550 125.503  0.00  0.00    -0.001 A 
ATOM      2  C   LIG A   1      -6.623   1.966 125.862  0.00  0.00    +0.124 A 
ATOM      3  C   LIG A   1      -5.856   2.711 124.958  0.00  0.00    +0.046 A 
ATOM      4  C   LIG A   1      -6.379   3.072 123.715  0.00  0.00    +0.018 A 
ATOM      5  C   LIG A   1      -7.674   2.691 123.364  0.00  0.00    +0.059 A 
ATOM      6  C   LIG A   1      -8.445   1.939 124.255  0.00  0.00    +0.022 A 
ENDROOT
BRANCH   2   7
ATOM      7  O   LIG A   1      -6.159   1.564 127.088  0.00  0.00    -0.495 OA
ATOM      8  C   LIG A   1      -4.827   1.957 127.411  0.00  0.00    +0.277 C 
ENDBRANCH   2   7
BRANCH   5   9
ATOM      9  C   LIG A   1      -8.264   3.090 122.066  0.00  0.00    +0.337 C 
ATOM     10  O   LIG A   1      -9.333   2.731 121.624  0.00  0.00    -0.245 OA
BRANCH   9  11
ATOM     11  O   LIG A   1      -7.441   3.896 121.368  0.00  0.00    -0.477 OA
ATOM     12  H   LIG A   1      -6.591   3.411 121.352  0.00  0.00    +0.295 HD
ENDBRANCH   9  11
ENDBRANCH   5   9
BRANCH   1  13
ATOM     13  C   LIG A   1      -8.803   0.760 126.450  0.00  0.00    +0.066 C 
BRANCH  13  16
ATOM     14  C   LIG A   1      -8.016  -2.153 127.408  0.00  0.00    +0.038 C 
ATOM     15  C   LIG A   1      -8.878  -1.805 126.223  0.00  0.00    -0.076 C 
ATOM     16  C   LIG A   1      -9.213  -0.555 125.844  0.00  0.00    -0.023 C 
BRANCH  15  17
ATOM     17  C   LIG A   1      -9.375  -2.995 125.419  0.00  0.00    +0.034 C 
BRANCH  17  18
ATOM     18  C   LIG A   1      -8.834  -3.003 123.985  0.00  0.00    +0.031 C 
BRANCH  18  19
ATOM     19  C   LIG A   1      -7.371  -3.341 123.956  0.00  0.00    -0.028 C 
ATOM     20  C   LIG A   1      -6.357  -2.521 123.618  0.00  0.00    -0.080 C 
ATOM     21  C   LIG A   1      -6.520  -1.093 123.176  0.00  0.00    +0.038 C 
ATOM     22  C   LIG A   1      -4.934  -3.012 123.635  0.00  0.00    +0.038 C 
ENDBRANCH  18  19
ENDBRANCH  17  18
ENDBRANCH  15  17
ENDBRANCH  13  16
ENDBRANCH   1  13
TORSDOF 8
ENDMDL
MODEL 6
REMARK VINA RESULT:      -6.0      2.932      5.118
REMARK  Name = NuBBE_421
REMARK  12 active torsions:
REMARK  status: ('A' for Active; 'I' for Inactive)
REMARK    1  A    between atoms: C_1  and  C_2
REMARK    2  A    between atoms: C_2  and  C_3
REMARK    3  A    between atoms: C_3  and  C_4
REMARK    4  A    between atoms: C_4  and  C_5
REMARK    5  A    between atoms: C_6  and  C_7
REMARK    6  A    between atoms: C_6  and  C_8
REMARK    7  A    between atoms: C_9  and  C_10
REMARK    8  A    between atoms: C_10  and  C_11
REMARK    9  A    between atoms: C_12  and  O_13
REMARK   10  A    between atoms: O_13  and  C_14
REMARK   11  A    between atoms: C_17  and  C_18
REMARK   12  A    between atoms: C_18  and  O_19
REMARK                            x       y       z     vdW  Elec       q    Type
REMARK                         _______ _______ _______ _____ _____    ______ ____
ROOT
ATOM      1  C   LIG A   1      -8.350  -1.984 124.465  0.00  0.00    -0.001 A 
ATOM      2  C   LIG A   1      -7.160  -1.819 123.731  0.00  0.00    +0.124 A 
ATOM      3  C   LIG A   1      -6.823  -0.559 123.225  0.00  0.00    +0.046 A 
ATOM      4  C   LIG A   1      -7.642   0.545 123.470  0.00  0.00    +0.018 A 
ATOM      5  C   LIG A   1      -8.807   0.398 124.222  0.00  0.00    +0.059 A 
ATOM      6  C   LIG A   1      -9.158  -0.859 124.724  0.00  0.00    +0.022 A 
ENDROOT
BRANCH   2   7
ATOM      7  O   LIG A   1      -6.408  -2.944 123.508  0.00  0.00    -0.495 OA
ATOM      8  C   LIG A   1      -5.020  -2.838 123.818  0.00  0.00    +0.277 C 
ENDBRANCH   2   7
BRANCH   5   9
ATOM      9  C   LIG A   1      -9.675   1.559 124.525  0.00  0.00    +0.337 C 
ATOM     10  O   LIG A   1      -9.341   2.574 125.095  0.00  0.00    -0.245 OA
BRANCH   9  11
ATOM     11  O   LIG A   1     -10.945   1.352 124.126  0.00  0.00    -0.477 OA
ATOM     12  H   LIG A   1     -11.235   0.577 124.649  0.00  0.00    +0.295 HD
ENDBRANCH   9  11
ENDBRANCH   5   9
BRANCH   1  13
ATOM     13  C   LIG A   1      -8.755  -3.321 125.055  0.00  0.00    +0.066 C 
BRANCH  13  16
ATOM     14  C   LIG A   1      -6.605  -2.440 127.205  0.00  0.00    +0.038 C 
ATOM     15  C   LIG A   1      -8.019  -2.876 127.484  0.00  0.00    -0.076 C 
ATOM     16  C   LIG A   1      -8.923  -3.231 126.548  0.00  0.00    -0.023 C 
BRANCH  15  17
ATOM     17  C   LIG A   1      -8.403  -2.909 128.953  0.00  0.00    +0.034 C 
BRANCH  17  18
ATOM     18  C   LIG A   1      -7.275  -2.415 129.867  0.00  0.00    +0.031 C 
BRANCH  18  19
ATOM     19  C   LIG A   1      -6.827  -3.492 130.812  0.00  0.00    -0.028 C 
ATOM     20  C   LIG A   1      -5.632  -4.113 130.824  0.00  0.00    -0.080 C 
ATOM     21  C   LIG A   1      -4.517  -3.846 129.851  0.00  0.00    +0.038 C 
ATOM     22  C   LIG A   1      -5.333  -5.183 131.840  0.00  0.00    +0.038 C 
ENDBRANCH  18  19
ENDBRANCH  17  18
ENDBRANCH  15  17
ENDBRANCH  13  16
ENDBRANCH   1  13
TORSDOF 8
ENDMDL
MODEL 7
REMARK VINA RESULT:      -5.9      2.364      3.848
REMARK  Name = NuBBE_421
REMARK  12 active torsions:
REMARK  status: ('A' for Active; 'I' for Inactive)
REMARK    1  A    between atoms: C_1  and  C_2
REMARK    2  A    between atoms: C_2  and  C_3
REMARK    3  A    between atoms: C_3  and  C_4
REMARK    4  A    between atoms: C_4  and  C_5
REMARK    5  A    between atoms: C_6  and  C_7
REMARK    6  A    between atoms: C_6  and  C_8
REMARK    7  A    between atoms: C_9  and  C_10
REMARK    8  A    between atoms: C_10  and  C_11
REMARK    9  A    between atoms: C_12  and  O_13
REMARK   10  A    between atoms: O_13  and  C_14
REMARK   11  A    between atoms: C_17  and  C_18
REMARK   12  A    between atoms: C_18  and  O_19
REMARK                            x       y       z     vdW  Elec       q    Type
REMARK                         _______ _______ _______ _____ _____    ______ ____
ROOT
ATOM      1  C   LIG A   1      -6.788   2.422 123.841  0.00  0.00    -0.001 A 
ATOM      2  C   LIG A   1      -5.928   3.156 124.680  0.00  0.00    +0.124 A 
ATOM      3  C   LIG A   1      -5.154   4.193 124.147  0.00  0.00    +0.046 A 
ATOM      4  C   LIG A   1      -5.251   4.526 122.794  0.00  0.00    +0.018 A 
ATOM      5  C   LIG A   1      -6.123   3.825 121.962  0.00  0.00    +0.059 A 
ATOM      6  C   LIG A   1      -6.894   2.781 122.483  0.00  0.00    +0.022 A 
ENDROOT
BRANCH   2   7
ATOM      7  O   LIG A   1      -5.863   2.769 125.994  0.00  0.00    -0.495 OA
ATOM      8  C   LIG A   1      -4.623   2.207 126.418  0.00  0.00    +0.277 C 
ENDBRANCH   2   7
BRANCH   5   9
ATOM      9  C   LIG A   1      -6.270   4.180 120.532  0.00  0.00    +0.337 C 
ATOM     10  O   LIG A   1      -7.198   3.887 119.813  0.00  0.00    -0.245 OA
BRANCH   9  11
ATOM     11  O   LIG A   1      -5.199   4.857 120.072  0.00  0.00    -0.477 OA
ATOM     12  H   LIG A   1      -4.994   4.423 119.218  0.00  0.00    +0.295 HD
ENDBRANCH   9  11
ENDBRANCH   5   9
BRANCH   1  13
ATOM     13  C   LIG A   1      -7.666   1.303 124.368  0.00  0.00    +0.066 C 
BRANCH  13  16
ATOM     14  C   LIG A   1      -9.378  -0.865 122.822  0.00  0.00    +0.038 C 
ATOM     15  C   LIG A   1      -7.927  -0.981 123.206  0.00  0.00    -0.076 C 
ATOM     16  C   LIG A   1      -7.213  -0.036 123.851  0.00  0.00    -0.023 C 
BRANCH  15  17
ATOM     17  C   LIG A   1      -7.264  -2.293 122.821  0.00  0.00    +0.034 C 
BRANCH  17  18
ATOM     18  C   LIG A   1      -6.691  -3.041 124.031  0.00  0.00    +0.031 C 
BRANCH  18  19
ATOM     19  C   LIG A   1      -7.781  -3.480 124.966  0.00  0.00    -0.028 C 
ATOM     20  C   LIG A   1      -7.995  -3.041 126.222  0.00  0.00    -0.080 C 
ATOM     21  C   LIG A   1      -7.145  -2.026 126.933  0.00  0.00    +0.038 C 
ATOM     22  C   LIG A   1      -9.136  -3.585 127.039  0.00  0.00    +0.038 C 
ENDBRANCH  18  19
ENDBRANCH  17  18
ENDBRANCH  15  17
ENDBRANCH  13  16
ENDBRANCH   1  13
TORSDOF 8
ENDMDL
MODEL 8
REMARK VINA RESULT:      -5.8      4.092      6.109
REMARK  Name = NuBBE_421
REMARK  12 active torsions:
REMARK  status: ('A' for Active; 'I' for Inactive)
REMARK    1  A    between atoms: C_1  and  C_2
REMARK    2  A    between atoms: C_2  and  C_3
REMARK    3  A    between atoms: C_3  and  C_4
REMARK    4  A    between atoms: C_4  and  C_5
REMARK    5  A    between atoms: C_6  and  C_7
REMARK    6  A    between atoms: C_6  and  C_8
REMARK    7  A    between atoms: C_9  and  C_10
REMARK    8  A    between atoms: C_10  and  C_11
REMARK    9  A    between atoms: C_12  and  O_13
REMARK   10  A    between atoms: O_13  and  C_14
REMARK   11  A    between atoms: C_17  and  C_18
REMARK   12  A    between atoms: C_18  and  O_19
REMARK                            x       y       z     vdW  Elec       q    Type
REMARK                         _______ _______ _______ _____ _____    ______ ____
ROOT
ATOM      1  C   LIG A   1      -7.529  -0.640 129.590  0.00  0.00    -0.001 A 
ATOM      2  C   LIG A   1      -7.873  -1.128 130.865  0.00  0.00    +0.124 A 
ATOM      3  C   LIG A   1      -8.577  -0.310 131.757  0.00  0.00    +0.046 A 
ATOM      4  C   LIG A   1      -8.968   0.976 131.380  0.00  0.00    +0.018 A 
ATOM      5  C   LIG A   1      -8.659   1.457 130.108  0.00  0.00    +0.059 A 
ATOM      6  C   LIG A   1      -7.948   0.651 129.213  0.00  0.00    +0.022 A 
ENDROOT
BRANCH   2   7
ATOM      7  O   LIG A   1      -7.444  -2.391 131.183  0.00  0.00    -0.495 OA
ATOM      8  C   LIG A   1      -6.472  -2.477 132.223  0.00  0.00    +0.277 C 
ENDBRANCH   2   7
BRANCH   5   9
ATOM      9  C   LIG A   1      -9.093   2.804 129.672  0.00  0.00    +0.337 C 
ATOM     10  O   LIG A   1      -8.736   3.382 128.670  0.00  0.00    -0.245 OA
BRANCH   9  11
ATOM     11  O   LIG A   1      -9.929   3.373 130.561  0.00  0.00    -0.477 OA
ATOM     12  H   LIG A   1      -9.389   3.459 131.374  0.00  0.00    +0.295 HD
ENDBRANCH   9  11
ENDBRANCH   5   9
BRANCH   1  13
ATOM     13  C   LIG A   1      -6.786  -1.488 128.576  0.00  0.00    +0.066 C 
BRANCH  13  16
ATOM     14  C   LIG A   1      -8.783  -3.926 128.275  0.00  0.00    +0.038 C 
ATOM     15  C   LIG A   1      -8.507  -2.866 127.242  0.00  0.00    -0.076 C 
ATOM     16  C   LIG A   1      -7.663  -1.826 127.400  0.00  0.00    -0.023 C 
BRANCH  15  17
ATOM     17  C   LIG A   1      -9.258  -3.034 125.932  0.00  0.00    +0.034 C 
BRANCH  17  18
ATOM     18  C   LIG A   1      -8.475  -3.863 124.907  0.00  0.00    +0.031 C 
BRANCH  18  19
ATOM     19  C   LIG A   1      -7.937  -2.999 123.803  0.00  0.00    -0.028 C 
ATOM     20  C   LIG A   1      -6.657  -2.620 123.622  0.00  0.00    -0.080 C 
ATOM     21  C   LIG A   1      -5.517  -2.987 124.531  0.00  0.00    +0.038 C 
ATOM     22  C   LIG A   1      -6.274  -1.742 122.460  0.00  0.00    +0.038 C 
ENDBRANCH  18  19
ENDBRANCH  17  18
ENDBRANCH  15  17
ENDBRANCH  13  16
ENDBRANCH   1  13
TORSDOF 8
ENDMDL
MODEL 9
REMARK VINA RESULT:      -5.8      4.572      7.178
REMARK  Name = NuBBE_421
REMARK  12 active torsions:
REMARK  status: ('A' for Active; 'I' for Inactive)
REMARK    1  A    between atoms: C_1  and  C_2
REMARK    2  A    between atoms: C_2  and  C_3
REMARK    3  A    between atoms: C_3  and  C_4
REMARK    4  A    between atoms: C_4  and  C_5
REMARK    5  A    between atoms: C_6  and  C_7
REMARK    6  A    between atoms: C_6  and  C_8
REMARK    7  A    between atoms: C_9  and  C_10
REMARK    8  A    between atoms: C_10  and  C_11
REMARK    9  A    between atoms: C_12  and  O_13
REMARK   10  A    between atoms: O_13  and  C_14
REMARK   11  A    between atoms: C_17  and  C_18
REMARK   12  A    between atoms: C_18  and  O_19
REMARK                            x       y       z     vdW  Elec       q    Type
REMARK                         _______ _______ _______ _____ _____    ______ ____
ROOT
ATOM      1  C   LIG A   1      -7.005  -1.953 129.996  0.00  0.00    -0.001 A 
ATOM      2  C   LIG A   1      -6.926  -3.066 130.855  0.00  0.00    +0.124 A 
ATOM      3  C   LIG A   1      -7.400  -2.965 132.169  0.00  0.00    +0.046 A 
ATOM      4  C   LIG A   1      -7.979  -1.780 132.624  0.00  0.00    +0.018 A 
ATOM      5  C   LIG A   1      -8.089  -0.682 131.770  0.00  0.00    +0.059 A 
ATOM      6  C   LIG A   1      -7.610  -0.769 130.459  0.00  0.00    +0.022 A 
ENDROOT
BRANCH   2   7
ATOM      7  O   LIG A   1      -6.330  -4.196 130.355  0.00  0.00    -0.495 OA
ATOM      8  C   LIG A   1      -5.250  -4.722 131.122  0.00  0.00    +0.277 C 
ENDBRANCH   2   7
BRANCH   5   9
ATOM      9  C   LIG A   1      -8.730   0.576 132.218  0.00  0.00    +0.337 C 
ATOM     10  O   LIG A   1      -8.219   1.436 132.900  0.00  0.00    -0.245 OA
BRANCH   9  11
ATOM     11  O   LIG A   1     -10.012   0.657 131.813  0.00  0.00    -0.477 OA
ATOM     12  H   LIG A   1     -10.506   0.874 132.630  0.00  0.00    +0.295 HD
ENDBRANCH   9  11
ENDBRANCH   5   9
BRANCH   1  13
ATOM     13  C   LIG A   1      -6.528  -2.011 128.558  0.00  0.00    +0.066 C 
BRANCH  13  16
ATOM     14  C   LIG A   1      -8.378  -0.656 126.375  0.00  0.00    +0.038 C 
ATOM     15  C   LIG A   1      -8.358  -2.115 126.747  0.00  0.00    -0.076 C 
ATOM     16  C   LIG A   1      -7.548  -2.673 127.670  0.00  0.00    -0.023 C 
BRANCH  15  17
ATOM     17  C   LIG A   1      -9.357  -2.983 126.000  0.00  0.00    +0.034 C 
BRANCH  17  18
ATOM     18  C   LIG A   1      -8.955  -3.216 124.538  0.00  0.00    +0.031 C 
BRANCH  18  19
ATOM     19  C   LIG A   1      -7.560  -3.761 124.436  0.00  0.00    -0.028 C 
ATOM     20  C   LIG A   1      -6.480  -3.132 123.933  0.00  0.00    -0.080 C 
ATOM     21  C   LIG A   1      -6.489  -1.747 123.348  0.00  0.00    +0.038 C 
ATOM     22  C   LIG A   1      -5.140  -3.818 123.897  0.00  0.00    +0.038 C 
ENDBRANCH  18  19
ENDBRANCH  17  18
ENDBRANCH  15  17
ENDBRANCH  13  16
ENDBRANCH   1  13
TORSDOF 8
ENDMDL
