MODEL 1
REMARK VINA RESULT:      -8.0      0.000      0.000
REMARK  Name = NuBBE_538
REMARK  12 active torsions:
REMARK  status: ('A' for Active; 'I' for Inactive)
REMARK    1  A    between atoms: O_1  and  C_2
REMARK    2  A    between atoms: C_2  and  C_4
REMARK    3  A    between atoms: C_2  and  C_23
REMARK    4  A    between atoms: C_4  and  C_5
REMARK    5  A    between atoms: C_5  and  O_7
REMARK    6  A    between atoms: C_5  and  C_8
REMARK    7  A    between atoms: C_8  and  C_9
REMARK    8  A    between atoms: C_9  and  O_11
REMARK    9  A    between atoms: C_9  and  C_12
REMARK   10  A    between atoms: C_12  and  C_13
REMARK   11  A    between atoms: C_14  and  C_15
REMARK   12  A    between atoms: C_24  and  C_25
REMARK                            x       y       z     vdW  Elec       q    Type
REMARK                         _______ _______ _______ _____ _____    ______ ____
ROOT
ATOM      1  C   LIG A   1      -8.941  -0.563 122.934  0.00  0.00    +0.120 C 
ENDROOT
BRANCH   1   2
ATOM      2  O   LIG A   1     -10.301  -0.742 122.518  0.00  0.00    -0.392 OA
ATOM      3  H   LIG A   1     -10.865  -0.407 123.238  0.00  0.00    +0.210 HD
ENDBRANCH   1   2
BRANCH   1   4
ATOM      4  C   LIG A   1      -8.968   0.405 124.109  0.00  0.00    +0.067 C 
BRANCH   4   5
ATOM      5  C   LIG A   1      -9.598   1.772 123.815  0.00  0.00    +0.140 C 
BRANCH   5   6
ATOM      6  O   LIG A   1      -9.530   2.592 124.976  0.00  0.00    -0.388 OA
ATOM      7  H   LIG A   1     -10.346   3.121 125.003  0.00  0.00    +0.210 HD
ENDBRANCH   5   6
BRANCH   5   8
ATOM      8  C   LIG A   1      -8.951   2.525 122.682  0.00  0.00    +0.004 C 
ATOM      9  C   LIG A   1      -7.681   2.963 122.683  0.00  0.00    +0.006 C 
BRANCH   9  10
ATOM     10  C   LIG A   1      -6.982   3.627 121.583  0.00  0.00    -0.025 A 
ATOM     11  C   LIG A   1      -5.668   4.059 121.818  0.00  0.00    +0.008 A 
ATOM     12  C   LIG A   1      -4.953   4.730 120.829  0.00  0.00    +0.001 A 
ATOM     13  C   LIG A   1      -5.551   4.984 119.598  0.00  0.00    +0.000 A 
ATOM     14  C   LIG A   1      -6.864   4.577 119.362  0.00  0.00    +0.001 A 
ATOM     15  C   LIG A   1      -7.581   3.904 120.352  0.00  0.00    +0.008 A 
ENDBRANCH   9  10
ENDBRANCH   5   8
ENDBRANCH   4   5
ENDBRANCH   1   4
BRANCH   1  16
ATOM     16  C   LIG A   1      -8.366  -1.928 123.316  0.00  0.00    +0.063 C 
BRANCH  16  17
ATOM     17  C   LIG A   1      -9.329  -2.693 124.221  0.00  0.00    +0.121 C 
BRANCH  17  18
ATOM     18  O   LIG A   1     -10.167  -3.519 123.402  0.00  0.00    -0.391 OA
ATOM     19  H   LIG A   1     -10.037  -3.247 122.476  0.00  0.00    +0.210 HD
ENDBRANCH  17  18
BRANCH  17  20
ATOM     20  C   LIG A   1      -8.571  -3.559 125.242  0.00  0.00    +0.058 C 
BRANCH  20  21
ATOM     21  C   LIG A   1      -8.302  -2.890 126.568  0.00  0.00    -0.025 C 
ATOM     22  C   LIG A   1      -7.092  -2.522 127.022  0.00  0.00    +0.013 C 
BRANCH  22  23
ATOM     23  C   LIG A   1      -6.777  -1.759 128.295  0.00  0.00    +0.203 C 
ATOM     24  O   LIG A   1      -5.432  -1.978 128.715  0.00  0.00    -0.454 OA
ATOM     25  C   LIG A   1      -5.123  -3.127 129.380  0.00  0.00    +0.332 C 
ATOM     26  C   LIG A   1      -6.218  -3.871 130.016  0.00  0.00    +0.087 C 
ATOM     27  C   LIG A   1      -7.450  -3.362 130.082  0.00  0.00    -0.016 C 
ATOM     28  C   LIG A   1      -7.780  -2.064 129.421  0.00  0.00    +0.076 C 
ATOM     29  O   LIG A   1      -3.976  -3.542 129.455  0.00  0.00    -0.246 OA
ENDBRANCH  22  23
ENDBRANCH  20  21
ENDBRANCH  17  20
ENDBRANCH  16  17
ENDBRANCH   1  16
TORSDOF 12
ENDMDL
MODEL 2
REMARK VINA RESULT:      -7.3      2.996      4.946
REMARK  Name = NuBBE_538
REMARK  12 active torsions:
REMARK  status: ('A' for Active; 'I' for Inactive)
REMARK    1  A    between atoms: O_1  and  C_2
REMARK    2  A    between atoms: C_2  and  C_4
REMARK    3  A    between atoms: C_2  and  C_23
REMARK    4  A    between atoms: C_4  and  C_5
REMARK    5  A    between atoms: C_5  and  O_7
REMARK    6  A    between atoms: C_5  and  C_8
REMARK    7  A    between atoms: C_8  and  C_9
REMARK    8  A    between atoms: C_9  and  O_11
REMARK    9  A    between atoms: C_9  and  C_12
REMARK   10  A    between atoms: C_12  and  C_13
REMARK   11  A    between atoms: C_14  and  C_15
REMARK   12  A    between atoms: C_24  and  C_25
REMARK                            x       y       z     vdW  Elec       q    Type
REMARK                         _______ _______ _______ _____ _____    ______ ____
ROOT
ATOM      1  C   LIG A   1      -7.503   3.802 126.651  0.00  0.00    +0.120 C 
ENDROOT
BRANCH   1   2
ATOM      2  O   LIG A   1      -8.344   4.957 126.765  0.00  0.00    -0.392 OA
ATOM      3  H   LIG A   1      -9.179   4.662 127.170  0.00  0.00    +0.210 HD
ENDBRANCH   1   2
BRANCH   1   4
ATOM      4  C   LIG A   1      -6.066   4.296 126.744  0.00  0.00    +0.067 C 
BRANCH   4   5
ATOM      5  C   LIG A   1      -5.155   3.876 125.583  0.00  0.00    +0.140 C 
BRANCH   5   6
ATOM      6  O   LIG A   1      -4.917   2.475 125.644  0.00  0.00    -0.388 OA
ATOM      7  H   LIG A   1      -5.778   2.032 125.554  0.00  0.00    +0.210 HD
ENDBRANCH   5   6
BRANCH   5   8
ATOM      8  C   LIG A   1      -5.703   4.191 124.217  0.00  0.00    +0.004 C 
ATOM      9  C   LIG A   1      -6.229   3.284 123.377  0.00  0.00    +0.006 C 
BRANCH   9  10
ATOM     10  C   LIG A   1      -6.844   3.547 122.076  0.00  0.00    -0.025 A 
ATOM     11  C   LIG A   1      -6.010   4.010 121.047  0.00  0.00    +0.008 A 
ATOM     12  C   LIG A   1      -6.532   4.315 119.792  0.00  0.00    +0.001 A 
ATOM     13  C   LIG A   1      -7.896   4.169 119.559  0.00  0.00    +0.000 A 
ATOM     14  C   LIG A   1      -8.737   3.731 120.582  0.00  0.00    +0.001 A 
ATOM     15  C   LIG A   1      -8.215   3.424 121.840  0.00  0.00    +0.008 A 
ENDBRANCH   9  10
ENDBRANCH   5   8
ENDBRANCH   4   5
ENDBRANCH   1   4
BRANCH   1  16
ATOM     16  C   LIG A   1      -7.859   2.829 127.776  0.00  0.00    +0.063 C 
BRANCH  16  17
ATOM     17  C   LIG A   1      -8.545   1.581 127.222  0.00  0.00    +0.121 C 
BRANCH  17  18
ATOM     18  O   LIG A   1      -9.227   1.933 126.012  0.00  0.00    -0.391 OA
ATOM     19  H   LIG A   1     -10.155   1.651 126.103  0.00  0.00    +0.210 HD
ENDBRANCH  17  18
BRANCH  17  20
ATOM     20  C   LIG A   1      -7.528   0.459 126.948  0.00  0.00    +0.058 C 
BRANCH  20  21
ATOM     21  C   LIG A   1      -7.630  -0.172 125.580  0.00  0.00    -0.025 C 
ATOM     22  C   LIG A   1      -6.588  -0.527 124.809  0.00  0.00    +0.013 C 
BRANCH  22  23
ATOM     23  C   LIG A   1      -6.631  -1.254 123.478  0.00  0.00    +0.203 C 
ATOM     24  O   LIG A   1      -7.962  -1.625 123.129  0.00  0.00    -0.454 OA
ATOM     25  C   LIG A   1      -8.514  -2.732 123.700  0.00  0.00    +0.332 C 
ATOM     26  C   LIG A   1      -7.609  -3.726 124.292  0.00  0.00    +0.087 C 
ATOM     27  C   LIG A   1      -6.288  -3.634 124.135  0.00  0.00    -0.016 C 
ATOM     28  C   LIG A   1      -5.677  -2.460 123.442  0.00  0.00    +0.076 C 
ATOM     29  O   LIG A   1      -9.723  -2.909 123.731  0.00  0.00    -0.246 OA
ENDBRANCH  22  23
ENDBRANCH  20  21
ENDBRANCH  17  20
ENDBRANCH  16  17
ENDBRANCH   1  16
TORSDOF 12
ENDMDL
MODEL 3
REMARK VINA RESULT:      -7.3      2.417      4.816
REMARK  Name = NuBBE_538
REMARK  12 active torsions:
REMARK  status: ('A' for Active; 'I' for Inactive)
REMARK    1  A    between atoms: O_1  and  C_2
REMARK    2  A    between atoms: C_2  and  C_4
REMARK    3  A    between atoms: C_2  and  C_23
REMARK    4  A    between atoms: C_4  and  C_5
REMARK    5  A    between atoms: C_5  and  O_7
REMARK    6  A    between atoms: C_5  and  C_8
REMARK    7  A    between atoms: C_8  and  C_9
REMARK    8  A    between atoms: C_9  and  O_11
REMARK    9  A    between atoms: C_9  and  C_12
REMARK   10  A    between atoms: C_12  and  C_13
REMARK   11  A    between atoms: C_14  and  C_15
REMARK   12  A    between atoms: C_24  and  C_25
REMARK                            x       y       z     vdW  Elec       q    Type
REMARK                         _______ _______ _______ _____ _____    ______ ____
ROOT
ATOM      1  C   LIG A   1      -8.722  -1.156 123.883  0.00  0.00    +0.120 C 
ENDROOT
BRANCH   1   2
ATOM      2  O   LIG A   1      -9.696  -1.987 123.238  0.00  0.00    -0.392 OA
ATOM      3  H   LIG A   1      -9.496  -2.907 123.488  0.00  0.00    +0.210 HD
ENDBRANCH   1   2
BRANCH   1   4
ATOM      4  C   LIG A   1      -9.473  -0.320 124.911  0.00  0.00    +0.067 C 
BRANCH   4   5
ATOM      5  C   LIG A   1      -9.637   1.162 124.552  0.00  0.00    +0.140 C 
BRANCH   5   6
ATOM      6  O   LIG A   1      -9.436   1.962 125.711  0.00  0.00    -0.388 OA
ATOM      7  H   LIG A   1      -9.637   1.405 126.483  0.00  0.00    +0.210 HD
ENDBRANCH   5   6
BRANCH   5   8
ATOM      8  C   LIG A   1      -8.694   1.653 123.485  0.00  0.00    +0.004 C 
ATOM      9  C   LIG A   1      -8.931   2.701 122.680  0.00  0.00    +0.006 C 
BRANCH   9  10
ATOM     10  C   LIG A   1      -8.019   3.266 121.685  0.00  0.00    -0.025 A 
ATOM     11  C   LIG A   1      -8.586   3.822 120.528  0.00  0.00    +0.008 A 
ATOM     12  C   LIG A   1      -7.779   4.346 119.522  0.00  0.00    +0.001 A 
ATOM     13  C   LIG A   1      -6.395   4.308 119.659  0.00  0.00    +0.000 A 
ATOM     14  C   LIG A   1      -5.820   3.738 120.796  0.00  0.00    +0.001 A 
ATOM     15  C   LIG A   1      -6.629   3.213 121.805  0.00  0.00    +0.008 A 
ENDBRANCH   9  10
ENDBRANCH   5   8
ENDBRANCH   4   5
ENDBRANCH   1   4
BRANCH   1  16
ATOM     16  C   LIG A   1      -7.664  -2.056 124.524  0.00  0.00    +0.063 C 
BRANCH  16  17
ATOM     17  C   LIG A   1      -7.005  -1.361 125.713  0.00  0.00    +0.121 C 
BRANCH  17  18
ATOM     18  O   LIG A   1      -6.840  -2.316 126.768  0.00  0.00    -0.391 OA
ATOM     19  H   LIG A   1      -6.328  -3.065 126.413  0.00  0.00    +0.210 HD
ENDBRANCH  17  18
BRANCH  17  20
ATOM     20  C   LIG A   1      -5.641  -0.761 125.327  0.00  0.00    +0.058 C 
BRANCH  20  21
ATOM     21  C   LIG A   1      -5.348   0.593 125.924  0.00  0.00    -0.025 C 
ATOM     22  C   LIG A   1      -6.273   1.483 126.325  0.00  0.00    +0.013 C 
BRANCH  22  23
ATOM     23  C   LIG A   1      -6.037   2.809 127.022  0.00  0.00    +0.203 C 
ATOM     24  O   LIG A   1      -7.198   3.636 126.978  0.00  0.00    -0.454 OA
ATOM     25  C   LIG A   1      -7.473   4.333 125.840  0.00  0.00    +0.332 C 
ATOM     26  C   LIG A   1      -6.378   4.560 124.889  0.00  0.00    +0.087 C 
ATOM     27  C   LIG A   1      -5.121   4.238 125.196  0.00  0.00    -0.016 C 
ATOM     28  C   LIG A   1      -4.799   3.541 126.478  0.00  0.00    +0.076 C 
ATOM     29  O   LIG A   1      -8.593   4.763 125.601  0.00  0.00    -0.246 OA
ENDBRANCH  22  23
ENDBRANCH  20  21
ENDBRANCH  17  20
ENDBRANCH  16  17
ENDBRANCH   1  16
TORSDOF 12
ENDMDL
MODEL 4
REMARK VINA RESULT:      -7.3      2.590      7.015
REMARK  Name = NuBBE_538
REMARK  12 active torsions:
REMARK  status: ('A' for Active; 'I' for Inactive)
REMARK    1  A    between atoms: O_1  and  C_2
REMARK    2  A    between atoms: C_2  and  C_4
REMARK    3  A    between atoms: C_2  and  C_23
REMARK    4  A    between atoms: C_4  and  C_5
REMARK    5  A    between atoms: C_5  and  O_7
REMARK    6  A    between atoms: C_5  and  C_8
REMARK    7  A    between atoms: C_8  and  C_9
REMARK    8  A    between atoms: C_9  and  O_11
REMARK    9  A    between atoms: C_9  and  C_12
REMARK   10  A    between atoms: C_12  and  C_13
REMARK   11  A    between atoms: C_14  and  C_15
REMARK   12  A    between atoms: C_24  and  C_25
REMARK                            x       y       z     vdW  Elec       q    Type
REMARK                         _______ _______ _______ _____ _____    ______ ____
ROOT
ATOM      1  C   LIG A   1      -8.849  -2.552 125.465  0.00  0.00    +0.120 C 
ENDROOT
BRANCH   1   2
ATOM      2  O   LIG A   1     -10.229  -2.912 125.606  0.00  0.00    -0.392 OA
ATOM      3  H   LIG A   1     -10.462  -2.783 126.543  0.00  0.00    +0.210 HD
ENDBRANCH   1   2
BRANCH   1   4
ATOM      4  C   LIG A   1      -8.113  -3.165 126.648  0.00  0.00    +0.067 C 
BRANCH   4   5
ATOM      5  C   LIG A   1      -7.773  -2.190 127.782  0.00  0.00    +0.140 C 
BRANCH   5   6
ATOM      6  O   LIG A   1      -7.164  -2.897 128.856  0.00  0.00    -0.388 OA
ATOM      7  H   LIG A   1      -6.240  -2.597 128.910  0.00  0.00    +0.210 HD
ENDBRANCH   5   6
BRANCH   5   8
ATOM      8  C   LIG A   1      -6.848  -1.071 127.384  0.00  0.00    +0.004 C 
ATOM      9  C   LIG A   1      -7.192   0.227 127.347  0.00  0.00    +0.006 C 
BRANCH   9  10
ATOM     10  C   LIG A   1      -6.315   1.358 127.045  0.00  0.00    -0.025 A 
ATOM     11  C   LIG A   1      -6.835   2.648 127.230  0.00  0.00    +0.008 A 
ATOM     12  C   LIG A   1      -6.070   3.773 126.930  0.00  0.00    +0.001 A 
ATOM     13  C   LIG A   1      -4.781   3.616 126.431  0.00  0.00    +0.000 A 
ATOM     14  C   LIG A   1      -4.262   2.338 126.223  0.00  0.00    +0.001 A 
ATOM     15  C   LIG A   1      -5.028   1.211 126.524  0.00  0.00    +0.008 A 
ENDBRANCH   9  10
ENDBRANCH   5   8
ENDBRANCH   4   5
ENDBRANCH   1   4
BRANCH   1  16
ATOM     16  C   LIG A   1      -8.343  -3.084 124.123  0.00  0.00    +0.063 C 
BRANCH  16  17
ATOM     17  C   LIG A   1      -8.363  -1.989 123.059  0.00  0.00    +0.121 C 
BRANCH  17  18
ATOM     18  O   LIG A   1      -9.597  -1.269 123.166  0.00  0.00    -0.391 OA
ATOM     19  H   LIG A   1     -10.118  -1.679 123.880  0.00  0.00    +0.210 HD
ENDBRANCH  17  18
BRANCH  17  20
ATOM     20  C   LIG A   1      -7.174  -1.026 123.223  0.00  0.00    +0.058 C 
BRANCH  20  21
ATOM     21  C   LIG A   1      -7.550   0.408 123.503  0.00  0.00    -0.025 C 
ATOM     22  C   LIG A   1      -6.762   1.475 123.286  0.00  0.00    +0.013 C 
BRANCH  22  23
ATOM     23  C   LIG A   1      -7.125   2.939 123.453  0.00  0.00    +0.203 C 
ATOM     24  O   LIG A   1      -8.275   3.283 122.683  0.00  0.00    -0.454 OA
ATOM     25  C   LIG A   1      -8.135   3.515 121.348  0.00  0.00    +0.332 C 
ATOM     26  C   LIG A   1      -6.794   3.833 120.840  0.00  0.00    +0.087 C 
ATOM     27  C   LIG A   1      -5.775   4.048 121.673  0.00  0.00    -0.016 C 
ATOM     28  C   LIG A   1      -5.939   3.871 123.148  0.00  0.00    +0.076 C 
ATOM     29  O   LIG A   1      -9.085   3.462 120.580  0.00  0.00    -0.246 OA
ENDBRANCH  22  23
ENDBRANCH  20  21
ENDBRANCH  17  20
ENDBRANCH  16  17
ENDBRANCH   1  16
TORSDOF 12
ENDMDL
MODEL 5
REMARK VINA RESULT:      -7.2      2.071      4.840
REMARK  Name = NuBBE_538
REMARK  12 active torsions:
REMARK  status: ('A' for Active; 'I' for Inactive)
REMARK    1  A    between atoms: O_1  and  C_2
REMARK    2  A    between atoms: C_2  and  C_4
REMARK    3  A    between atoms: C_2  and  C_23
REMARK    4  A    between atoms: C_4  and  C_5
REMARK    5  A    between atoms: C_5  and  O_7
REMARK    6  A    between atoms: C_5  and  C_8
REMARK    7  A    between atoms: C_8  and  C_9
REMARK    8  A    between atoms: C_9  and  O_11
REMARK    9  A    between atoms: C_9  and  C_12
REMARK   10  A    between atoms: C_12  and  C_13
REMARK   11  A    between atoms: C_14  and  C_15
REMARK   12  A    between atoms: C_24  and  C_25
REMARK                            x       y       z     vdW  Elec       q    Type
REMARK                         _______ _______ _______ _____ _____    ______ ____
ROOT
ATOM      1  C   LIG A   1      -6.362  -0.763 128.107  0.00  0.00    +0.120 C 
ENDROOT
BRANCH   1   2
ATOM      2  O   LIG A   1      -5.593  -1.900 127.694  0.00  0.00    -0.392 OA
ATOM      3  H   LIG A   1      -5.034  -1.610 126.950  0.00  0.00    +0.210 HD
ENDBRANCH   1   2
BRANCH   1   4
ATOM      4  C   LIG A   1      -6.854  -0.083 126.836  0.00  0.00    +0.067 C 
BRANCH   4   5
ATOM      5  C   LIG A   1      -6.009   1.108 126.365  0.00  0.00    +0.140 C 
BRANCH   5   6
ATOM      6  O   LIG A   1      -4.627   0.806 126.517  0.00  0.00    -0.388 OA
ATOM      7  H   LIG A   1      -4.377   0.224 125.780  0.00  0.00    +0.210 HD
ENDBRANCH   5   6
BRANCH   5   8
ATOM      8  C   LIG A   1      -6.238   1.503 124.930  0.00  0.00    +0.004 C 
ATOM      9  C   LIG A   1      -7.002   2.534 124.534  0.00  0.00    +0.006 C 
BRANCH   9  10
ATOM     10  C   LIG A   1      -7.194   3.009 123.164  0.00  0.00    -0.025 A 
ATOM     11  C   LIG A   1      -8.489   2.937 122.629  0.00  0.00    +0.008 A 
ATOM     12  C   LIG A   1      -8.741   3.337 121.319  0.00  0.00    +0.001 A 
ATOM     13  C   LIG A   1      -7.695   3.803 120.528  0.00  0.00    +0.000 A 
ATOM     14  C   LIG A   1      -6.399   3.858 121.043  0.00  0.00    +0.001 A 
ATOM     15  C   LIG A   1      -6.147   3.458 122.356  0.00  0.00    +0.008 A 
ENDBRANCH   9  10
ENDBRANCH   5   8
ENDBRANCH   4   5
ENDBRANCH   1   4
BRANCH   1  16
ATOM     16  C   LIG A   1      -7.512  -1.249 128.990  0.00  0.00    +0.063 C 
BRANCH  16  17
ATOM     17  C   LIG A   1      -7.492  -2.770 129.125  0.00  0.00    +0.121 C 
BRANCH  17  18
ATOM     18  O   LIG A   1      -7.418  -3.106 130.516  0.00  0.00    -0.391 OA
ATOM     19  H   LIG A   1      -7.999  -3.873 130.667  0.00  0.00    +0.210 HD
ENDBRANCH  17  18
BRANCH  17  20
ATOM     20  C   LIG A   1      -8.744  -3.406 128.495  0.00  0.00    +0.058 C 
BRANCH  20  21
ATOM     21  C   LIG A   1      -8.546  -3.964 127.107  0.00  0.00    -0.025 C 
ATOM     22  C   LIG A   1      -8.746  -3.289 125.962  0.00  0.00    +0.013 C 
BRANCH  22  23
ATOM     23  C   LIG A   1      -8.466  -3.765 124.549  0.00  0.00    +0.203 C 
ATOM     24  O   LIG A   1      -7.113  -3.516 124.173  0.00  0.00    -0.454 OA
ATOM     25  C   LIG A   1      -6.755  -2.263 123.775  0.00  0.00    +0.332 C 
ATOM     26  C   LIG A   1      -7.817  -1.351 123.331  0.00  0.00    +0.087 C 
ATOM     27  C   LIG A   1      -9.069  -1.780 123.166  0.00  0.00    -0.016 C 
ATOM     28  C   LIG A   1      -9.455  -3.176 123.529  0.00  0.00    +0.076 C 
ATOM     29  O   LIG A   1      -5.590  -1.890 123.782  0.00  0.00    -0.246 OA
ENDBRANCH  22  23
ENDBRANCH  20  21
ENDBRANCH  17  20
ENDBRANCH  16  17
ENDBRANCH   1  16
TORSDOF 12
ENDMDL
MODEL 6
REMARK VINA RESULT:      -7.2      2.033      4.468
REMARK  Name = NuBBE_538
REMARK  12 active torsions:
REMARK  status: ('A' for Active; 'I' for Inactive)
REMARK    1  A    between atoms: O_1  and  C_2
REMARK    2  A    between atoms: C_2  and  C_4
REMARK    3  A    between atoms: C_2  and  C_23
REMARK    4  A    between atoms: C_4  and  C_5
REMARK    5  A    between atoms: C_5  and  O_7
REMARK    6  A    between atoms: C_5  and  C_8
REMARK    7  A    between atoms: C_8  and  C_9
REMARK    8  A    between atoms: C_9  and  O_11
REMARK    9  A    between atoms: C_9  and  C_12
REMARK   10  A    between atoms: C_12  and  C_13
REMARK   11  A    between atoms: C_14  and  C_15
REMARK   12  A    between atoms: C_24  and  C_25
REMARK                            x       y       z     vdW  Elec       q    Type
REMARK                         _______ _______ _______ _____ _____    ______ ____
ROOT
ATOM      1  C   LIG A   1      -8.404   1.237 126.517  0.00  0.00    +0.120 C 
ENDROOT
BRANCH   1   2
ATOM      2  O   LIG A   1      -7.790   2.343 127.189  0.00  0.00    -0.392 OA
ATOM      3  H   LIG A   1      -7.158   1.971 127.830  0.00  0.00    +0.210 HD
ENDBRANCH   1   2
BRANCH   1   4
ATOM      4  C   LIG A   1      -7.995   1.333 125.053  0.00  0.00    +0.067 C 
BRANCH   4   5
ATOM      5  C   LIG A   1      -8.694   2.439 124.252  0.00  0.00    +0.140 C 
BRANCH   5   6
ATOM      6  O   LIG A   1      -9.217   3.419 125.141  0.00  0.00    -0.388 OA
ATOM      7  H   LIG A   1      -8.833   3.245 126.018  0.00  0.00    +0.210 HD
ENDBRANCH   5   6
BRANCH   5   8
ATOM      8  C   LIG A   1      -7.808   3.144 123.260  0.00  0.00    +0.004 C 
ATOM      9  C   LIG A   1      -8.000   3.147 121.931  0.00  0.00    +0.006 C 
BRANCH   9  10
ATOM     10  C   LIG A   1      -7.218   3.878 120.933  0.00  0.00    -0.025 A 
ATOM     11  C   LIG A   1      -7.824   4.129 119.693  0.00  0.00    +0.008 A 
ATOM     12  C   LIG A   1      -7.128   4.788 118.683  0.00  0.00    +0.001 A 
ATOM     13  C   LIG A   1      -5.814   5.192 118.901  0.00  0.00    +0.000 A 
ATOM     14  C   LIG A   1      -5.195   4.927 120.123  0.00  0.00    +0.001 A 
ATOM     15  C   LIG A   1      -5.893   4.268 121.136  0.00  0.00    +0.008 A 
ENDBRANCH   9  10
ENDBRANCH   5   8
ENDBRANCH   4   5
ENDBRANCH   1   4
BRANCH   1  16
ATOM     16  C   LIG A   1      -7.921  -0.059 127.172  0.00  0.00    +0.063 C 
BRANCH  16  17
ATOM     17  C   LIG A   1      -6.537   0.125 127.790  0.00  0.00    +0.121 C 
BRANCH  17  18
ATOM     18  O   LIG A   1      -6.660   0.058 129.216  0.00  0.00    -0.391 OA
ATOM     19  H   LIG A   1      -6.785  -0.877 129.460  0.00  0.00    +0.210 HD
ENDBRANCH  17  18
BRANCH  17  20
ATOM     20  C   LIG A   1      -5.555  -0.952 127.295  0.00  0.00    +0.058 C 
BRANCH  20  21
ATOM     21  C   LIG A   1      -6.086  -1.843 126.199  0.00  0.00    -0.025 C 
ATOM     22  C   LIG A   1      -6.060  -1.559 124.885  0.00  0.00    +0.013 C 
BRANCH  22  23
ATOM     23  C   LIG A   1      -6.485  -2.457 123.739  0.00  0.00    +0.203 C 
ATOM     24  O   LIG A   1      -7.498  -1.845 122.944  0.00  0.00    -0.454 OA
ATOM     25  C   LIG A   1      -8.788  -1.867 123.381  0.00  0.00    +0.332 C 
ATOM     26  C   LIG A   1      -9.157  -2.867 124.392  0.00  0.00    +0.087 C 
ATOM     27  C   LIG A   1      -8.305  -3.827 124.754  0.00  0.00    -0.016 C 
ATOM     28  C   LIG A   1      -6.910  -3.855 124.220  0.00  0.00    +0.076 C 
ATOM     29  O   LIG A   1      -9.628  -1.085 122.958  0.00  0.00    -0.246 OA
ENDBRANCH  22  23
ENDBRANCH  20  21
ENDBRANCH  17  20
ENDBRANCH  16  17
ENDBRANCH   1  16
TORSDOF 12
ENDMDL
MODEL 7
REMARK VINA RESULT:      -7.2      2.753      7.338
REMARK  Name = NuBBE_538
REMARK  12 active torsions:
REMARK  status: ('A' for Active; 'I' for Inactive)
REMARK    1  A    between atoms: O_1  and  C_2
REMARK    2  A    between atoms: C_2  and  C_4
REMARK    3  A    between atoms: C_2  and  C_23
REMARK    4  A    between atoms: C_4  and  C_5
REMARK    5  A    between atoms: C_5  and  O_7
REMARK    6  A    between atoms: C_5  and  C_8
REMARK    7  A    between atoms: C_8  and  C_9
REMARK    8  A    between atoms: C_9  and  O_11
REMARK    9  A    between atoms: C_9  and  C_12
REMARK   10  A    between atoms: C_12  and  C_13
REMARK   11  A    between atoms: C_14  and  C_15
REMARK   12  A    between atoms: C_24  and  C_25
REMARK                            x       y       z     vdW  Elec       q    Type
REMARK                         _______ _______ _______ _____ _____    ______ ____
ROOT
ATOM      1  C   LIG A   1      -5.956   4.097 125.064  0.00  0.00    +0.120 C 
ENDROOT
BRANCH   1   2
ATOM      2  O   LIG A   1      -6.317   5.382 125.584  0.00  0.00    -0.392 OA
ATOM      3  H   LIG A   1      -5.662   5.606 126.270  0.00  0.00    +0.210 HD
ENDBRANCH   1   2
BRANCH   1   4
ATOM      4  C   LIG A   1      -5.730   3.187 126.263  0.00  0.00    +0.067 C 
BRANCH   4   5
ATOM      5  C   LIG A   1      -4.715   2.057 126.044  0.00  0.00    +0.140 C 
BRANCH   5   6
ATOM      6  O   LIG A   1      -3.482   2.392 126.668  0.00  0.00    -0.388 OA
ATOM      7  H   LIG A   1      -2.773   2.181 126.037  0.00  0.00    +0.210 HD
ENDBRANCH   5   6
BRANCH   5   8
ATOM      8  C   LIG A   1      -5.152   0.717 126.575  0.00  0.00    +0.004 C 
ATOM      9  C   LIG A   1      -5.700   0.516 127.784  0.00  0.00    +0.006 C 
BRANCH   9  10
ATOM     10  C   LIG A   1      -6.211  -0.747 128.316  0.00  0.00    -0.025 A 
ATOM     11  C   LIG A   1      -5.288  -1.782 128.528  0.00  0.00    +0.008 A 
ATOM     12  C   LIG A   1      -5.708  -3.023 128.999  0.00  0.00    +0.001 A 
ATOM     13  C   LIG A   1      -7.058  -3.243 129.252  0.00  0.00    +0.000 A 
ATOM     14  C   LIG A   1      -7.987  -2.228 129.024  0.00  0.00    +0.001 A 
ATOM     15  C   LIG A   1      -7.567  -0.983 128.553  0.00  0.00    +0.008 A 
ENDBRANCH   9  10
ENDBRANCH   5   8
ENDBRANCH   4   5
ENDBRANCH   1   4
BRANCH   1  16
ATOM     16  C   LIG A   1      -7.088   3.602 124.162  0.00  0.00    +0.063 C 
BRANCH  16  17
ATOM     17  C   LIG A   1      -8.284   3.138 124.992  0.00  0.00    +0.121 C 
BRANCH  17  18
ATOM     18  O   LIG A   1      -9.032   4.290 125.400  0.00  0.00    -0.391 OA
ATOM     19  H   LIG A   1      -9.967   4.128 125.181  0.00  0.00    +0.210 HD
ENDBRANCH  17  18
BRANCH  17  20
ATOM     20  C   LIG A   1      -9.184   2.180 124.191  0.00  0.00    +0.058 C 
BRANCH  20  21
ATOM     21  C   LIG A   1      -8.461   1.040 123.517  0.00  0.00    -0.025 C 
ATOM     22  C   LIG A   1      -7.880   0.006 124.149  0.00  0.00    +0.013 C 
BRANCH  22  23
ATOM     23  C   LIG A   1      -7.232  -1.214 123.522  0.00  0.00    +0.203 C 
ATOM     24  O   LIG A   1      -8.199  -2.053 122.894  0.00  0.00    -0.454 OA
ATOM     25  C   LIG A   1      -8.943  -2.898 123.661  0.00  0.00    +0.332 C 
ATOM     26  C   LIG A   1      -8.441  -3.236 125.000  0.00  0.00    +0.087 C 
ATOM     27  C   LIG A   1      -7.223  -2.861 125.394  0.00  0.00    -0.016 C 
ATOM     28  C   LIG A   1      -6.368  -1.996 124.526  0.00  0.00    +0.076 C 
ATOM     29  O   LIG A   1      -9.999  -3.370 123.265  0.00  0.00    -0.246 OA
ENDBRANCH  22  23
ENDBRANCH  20  21
ENDBRANCH  17  20
ENDBRANCH  16  17
ENDBRANCH   1  16
TORSDOF 12
ENDMDL
MODEL 8
REMARK VINA RESULT:      -7.0      1.541      2.070
REMARK  Name = NuBBE_538
REMARK  12 active torsions:
REMARK  status: ('A' for Active; 'I' for Inactive)
REMARK    1  A    between atoms: O_1  and  C_2
REMARK    2  A    between atoms: C_2  and  C_4
REMARK    3  A    between atoms: C_2  and  C_23
REMARK    4  A    between atoms: C_4  and  C_5
REMARK    5  A    between atoms: C_5  and  O_7
REMARK    6  A    between atoms: C_5  and  C_8
REMARK    7  A    between atoms: C_8  and  C_9
REMARK    8  A    between atoms: C_9  and  O_11
REMARK    9  A    between atoms: C_9  and  C_12
REMARK   10  A    between atoms: C_12  and  C_13
REMARK   11  A    between atoms: C_14  and  C_15
REMARK   12  A    between atoms: C_24  and  C_25
REMARK                            x       y       z     vdW  Elec       q    Type
REMARK                         _______ _______ _______ _____ _____    ______ ____
ROOT
ATOM      1  C   LIG A   1      -8.278  -1.740 123.607  0.00  0.00    +0.120 C 
ENDROOT
BRANCH   1   2
ATOM      2  O   LIG A   1      -8.120  -2.115 122.232  0.00  0.00    -0.392 OA
ATOM      3  H   LIG A   1      -8.918  -2.615 121.981  0.00  0.00    +0.210 HD
ENDBRANCH   1   2
BRANCH   1   4
ATOM      4  C   LIG A   1      -9.017  -0.409 123.615  0.00  0.00    +0.067 C 
BRANCH   4   5
ATOM      5  C   LIG A   1      -8.230   0.771 124.199  0.00  0.00    +0.140 C 
BRANCH   5   6
ATOM      6  O   LIG A   1      -7.374   0.310 125.237  0.00  0.00    -0.388 OA
ATOM      7  H   LIG A   1      -6.464   0.341 124.895  0.00  0.00    +0.210 HD
ENDBRANCH   5   6
BRANCH   5   8
ATOM      8  C   LIG A   1      -7.382   1.510 123.198  0.00  0.00    +0.004 C 
ATOM      9  C   LIG A   1      -7.750   2.640 122.573  0.00  0.00    +0.006 C 
BRANCH   9  10
ATOM     10  C   LIG A   1      -6.937   3.439 121.655  0.00  0.00    -0.025 A 
ATOM     11  C   LIG A   1      -5.687   3.880 122.114  0.00  0.00    +0.008 A 
ATOM     12  C   LIG A   1      -4.874   4.674 121.309  0.00  0.00    +0.001 A 
ATOM     13  C   LIG A   1      -5.310   5.043 120.040  0.00  0.00    +0.000 A 
ATOM     14  C   LIG A   1      -6.561   4.628 119.583  0.00  0.00    +0.001 A 
ATOM     15  C   LIG A   1      -7.376   3.831 120.389  0.00  0.00    +0.008 A 
ENDBRANCH   9  10
ENDBRANCH   5   8
ENDBRANCH   4   5
ENDBRANCH   1   4
BRANCH   1  16
ATOM     16  C   LIG A   1      -9.056  -2.844 124.326  0.00  0.00    +0.063 C 
BRANCH  16  17
ATOM     17  C   LIG A   1      -8.273  -3.371 125.526  0.00  0.00    +0.121 C 
BRANCH  17  18
ATOM     18  O   LIG A   1      -7.062  -2.616 125.649  0.00  0.00    -0.391 OA
ATOM     19  H   LIG A   1      -6.635  -2.596 124.774  0.00  0.00    +0.210 HD
ENDBRANCH  17  18
BRANCH  17  20
ATOM     20  C   LIG A   1      -9.096  -3.265 126.822  0.00  0.00    +0.058 C 
BRANCH  20  21
ATOM     21  C   LIG A   1      -8.349  -3.631 128.082  0.00  0.00    -0.025 C 
ATOM     22  C   LIG A   1      -8.039  -2.782 129.077  0.00  0.00    +0.013 C 
BRANCH  22  23
ATOM     23  C   LIG A   1      -7.384  -3.115 130.404  0.00  0.00    +0.203 C 
ATOM     24  O   LIG A   1      -6.884  -1.944 131.047  0.00  0.00    -0.454 OA
ATOM     25  C   LIG A   1      -5.693  -1.421 130.640  0.00  0.00    +0.332 C 
ATOM     26  C   LIG A   1      -4.777  -2.292 129.891  0.00  0.00    +0.087 C 
ATOM     27  C   LIG A   1      -5.026  -3.595 129.751  0.00  0.00    -0.016 C 
ATOM     28  C   LIG A   1      -6.296  -4.193 130.262  0.00  0.00    +0.076 C 
ATOM     29  O   LIG A   1      -5.380  -0.264 130.881  0.00  0.00    -0.246 OA
ENDBRANCH  22  23
ENDBRANCH  20  21
ENDBRANCH  17  20
ENDBRANCH  16  17
ENDBRANCH   1  16
TORSDOF 12
ENDMDL
MODEL 9
REMARK VINA RESULT:      -7.0      2.570      4.506
REMARK  Name = NuBBE_538
REMARK  12 active torsions:
REMARK  status: ('A' for Active; 'I' for Inactive)
REMARK    1  A    between atoms: O_1  and  C_2
REMARK    2  A    between atoms: C_2  and  C_4
REMARK    3  A    between atoms: C_2  and  C_23
REMARK    4  A    between atoms: C_4  and  C_5
REMARK    5  A    between atoms: C_5  and  O_7
REMARK    6  A    between atoms: C_5  and  C_8
REMARK    7  A    between atoms: C_8  and  C_9
REMARK    8  A    between atoms: C_9  and  O_11
REMARK    9  A    between atoms: C_9  and  C_12
REMARK   10  A    between atoms: C_12  and  C_13
REMARK   11  A    between atoms: C_14  and  C_15
REMARK   12  A    between atoms: C_24  and  C_25
REMARK                            x       y       z     vdW  Elec       q    Type
REMARK                         _______ _______ _______ _____ _____    ______ ____
ROOT
ATOM      1  C   LIG A   1      -7.550   4.241 126.257  0.00  0.00    +0.120 C 
ENDROOT
BRANCH   1   2
ATOM      2  O   LIG A   1      -8.389   5.026 127.115  0.00  0.00    -0.392 OA
ATOM      3  H   LIG A   1      -8.863   5.659 126.546  0.00  0.00    +0.210 HD
ENDBRANCH   1   2
BRANCH   1   4
ATOM      4  C   LIG A   1      -6.147   4.300 126.845  0.00  0.00    +0.067 C 
BRANCH   4   5
ATOM      5  C   LIG A   1      -5.009   4.062 125.843  0.00  0.00    +0.140 C 
BRANCH   5   6
ATOM      6  O   LIG A   1      -4.702   2.674 125.787  0.00  0.00    -0.388 OA
ATOM      7  H   LIG A   1      -3.905   2.578 125.237  0.00  0.00    +0.210 HD
ENDBRANCH   5   6
BRANCH   5   8
ATOM      8  C   LIG A   1      -5.307   4.525 124.442  0.00  0.00    +0.004 C 
ATOM      9  C   LIG A   1      -5.368   3.720 123.368  0.00  0.00    +0.006 C 
BRANCH   9  10
ATOM     10  C   LIG A   1      -5.730   4.104 122.004  0.00  0.00    -0.025 A 
ATOM     11  C   LIG A   1      -6.940   3.611 121.492  0.00  0.00    +0.008 A 
ATOM     12  C   LIG A   1      -7.332   3.905 120.188  0.00  0.00    +0.001 A 
ATOM     13  C   LIG A   1      -6.511   4.687 119.381  0.00  0.00    +0.000 A 
ATOM     14  C   LIG A   1      -5.296   5.164 119.874  0.00  0.00    +0.001 A 
ATOM     15  C   LIG A   1      -4.903   4.870 121.180  0.00  0.00    +0.008 A 
ENDBRANCH   9  10
ENDBRANCH   5   8
ENDBRANCH   4   5
ENDBRANCH   1   4
BRANCH   1  16
ATOM     16  C   LIG A   1      -8.103   2.815 126.209  0.00  0.00    +0.063 C 
BRANCH  16  17
ATOM     17  C   LIG A   1      -8.926   2.592 124.942  0.00  0.00    +0.121 C 
BRANCH  17  18
ATOM     18  O   LIG A   1      -8.853   3.773 124.135  0.00  0.00    -0.391 OA
ATOM     19  H   LIG A   1      -8.021   3.736 123.630  0.00  0.00    +0.210 HD
ENDBRANCH  17  18
BRANCH  17  20
ATOM     20  C   LIG A   1      -8.415   1.377 124.148  0.00  0.00    +0.058 C 
BRANCH  20  21
ATOM     21  C   LIG A   1      -7.768   0.298 124.981  0.00  0.00    -0.025 C 
ATOM     22  C   LIG A   1      -8.420  -0.698 125.605  0.00  0.00    +0.013 C 
BRANCH  22  23
ATOM     23  C   LIG A   1      -7.814  -1.862 126.367  0.00  0.00    +0.203 C 
ATOM     24  O   LIG A   1      -6.456  -2.081 125.993  0.00  0.00    -0.454 OA
ATOM     25  C   LIG A   1      -6.186  -2.753 124.839  0.00  0.00    +0.332 C 
ATOM     26  C   LIG A   1      -7.246  -3.591 124.265  0.00  0.00    +0.087 C 
ATOM     27  C   LIG A   1      -8.380  -3.819 124.929  0.00  0.00    -0.016 C 
ATOM     28  C   LIG A   1      -8.653  -3.144 126.234  0.00  0.00    +0.076 C 
ATOM     29  O   LIG A   1      -5.100  -2.673 124.283  0.00  0.00    -0.246 OA
ENDBRANCH  22  23
ENDBRANCH  20  21
ENDBRANCH  17  20
ENDBRANCH  16  17
ENDBRANCH   1  16
TORSDOF 12
ENDMDL
