MODEL 1
REMARK VINA RESULT:      -7.5      0.000      0.000
REMARK  Name = NuBBE_2450
REMARK  5 active torsions:
REMARK  status: ('A' for Active; 'I' for Inactive)
REMARK    1  A    between atoms: C_6  and  O_10
REMARK    2  A    between atoms: C_7  and  O_9
REMARK    3  A    between atoms: C_13  and  C_14
REMARK    4  A    between atoms: C_17  and  O_20
REMARK    5  A    between atoms: O_20  and  C_21
REMARK                            x       y       z     vdW  Elec       q    Type
REMARK                         _______ _______ _______ _____ _____    ______ ____
ROOT
ATOM      1  O   LIG A   1     -11.395   4.068 130.046  0.00  0.00    -0.286 OA
ATOM      2  C   LIG A   1     -10.536   4.478 130.821  0.00  0.00    +0.200 A 
ATOM      3  C   LIG A   1      -9.668   3.518 131.521  0.00  0.00    +0.068 A 
ATOM      4  C   LIG A   1      -8.718   3.995 132.425  0.00  0.00    +0.142 A 
ATOM      5  C   LIG A   1      -7.892   3.111 133.121  0.00  0.00    +0.096 A 
ATOM      6  C   LIG A   1      -8.027   1.746 132.892  0.00  0.00    +0.162 A 
ATOM      7  C   LIG A   1      -8.972   1.271 131.983  0.00  0.00    +0.159 A 
ATOM      8  C   LIG A   1      -9.798   2.145 131.292  0.00  0.00    +0.064 A 
ATOM      9  O   LIG A   1      -8.547   5.331 132.674  0.00  0.00    -0.462 OA
ATOM     10  C   LIG A   1      -9.346   6.218 131.993  0.00  0.00    +0.208 A 
ATOM     11  C   LIG A   1     -10.319   5.931 131.110  0.00  0.00    +0.064 A 
ENDROOT
BRANCH  11  12
ATOM     12  C   LIG A   1     -11.109   7.007 130.463  0.00  0.00    -0.011 A 
ATOM     13  C   LIG A   1     -12.309   7.478 131.022  0.00  0.00    +0.012 A 
ATOM     14  C   LIG A   1     -13.057   8.480 130.390  0.00  0.00    +0.046 A 
ATOM     15  C   LIG A   1     -12.641   9.021 129.176  0.00  0.00    +0.120 A 
ATOM     16  C   LIG A   1     -11.456   8.565 128.607  0.00  0.00    +0.046 A 
ATOM     17  C   LIG A   1     -10.698   7.577 129.249  0.00  0.00    +0.012 A 
BRANCH  15  18
ATOM     18  O   LIG A   1     -13.469   9.974 128.653  0.00  0.00    -0.495 OA
ATOM     19  C   LIG A   1     -13.757  11.091 129.485  0.00  0.00    +0.277 C 
ENDBRANCH  15  18
ENDBRANCH  11  12
BRANCH   7  20
ATOM     20  O   LIG A   1      -9.094  -0.070 131.767  0.00  0.00    -0.503 OA
ATOM     21  H   LIG A   1      -9.224  -0.159 130.801  0.00  0.00    +0.292 HD
ENDBRANCH   7  20
BRANCH   6  22
ATOM     22  O   LIG A   1      -7.251   0.825 133.538  0.00  0.00    -0.503 OA
ATOM     23  H   LIG A   1      -6.459   1.274 133.882  0.00  0.00    +0.292 HD
ENDBRANCH   6  22
TORSDOF 4
ENDMDL
MODEL 2
REMARK VINA RESULT:      -7.3      0.835      2.058
REMARK  Name = NuBBE_2450
REMARK  5 active torsions:
REMARK  status: ('A' for Active; 'I' for Inactive)
REMARK    1  A    between atoms: C_6  and  O_10
REMARK    2  A    between atoms: C_7  and  O_9
REMARK    3  A    between atoms: C_13  and  C_14
REMARK    4  A    between atoms: C_17  and  O_20
REMARK    5  A    between atoms: O_20  and  C_21
REMARK                            x       y       z     vdW  Elec       q    Type
REMARK                         _______ _______ _______ _____ _____    ______ ____
ROOT
ATOM      1  O   LIG A   1      -9.305   6.462 132.389  0.00  0.00    -0.286 OA
ATOM      2  C   LIG A   1      -9.772   5.478 131.826  0.00  0.00    +0.200 A 
ATOM      3  C   LIG A   1      -9.245   4.140 132.140  0.00  0.00    +0.068 A 
ATOM      4  C   LIG A   1      -9.762   3.032 131.468  0.00  0.00    +0.142 A 
ATOM      5  C   LIG A   1      -9.270   1.750 131.727  0.00  0.00    +0.096 A 
ATOM      6  C   LIG A   1      -8.260   1.598 132.671  0.00  0.00    +0.162 A 
ATOM      7  C   LIG A   1      -7.750   2.706 133.346  0.00  0.00    +0.159 A 
ATOM      8  C   LIG A   1      -8.231   3.981 133.090  0.00  0.00    +0.064 A 
ATOM      9  O   LIG A   1     -10.761   3.137 130.538  0.00  0.00    -0.462 OA
ATOM     10  C   LIG A   1     -11.263   4.389 130.274  0.00  0.00    +0.208 A 
ATOM     11  C   LIG A   1     -10.869   5.557 130.810  0.00  0.00    +0.064 A 
ENDROOT
BRANCH  11  12
ATOM     12  C   LIG A   1     -11.506   6.837 130.411  0.00  0.00    -0.011 A 
ATOM     13  C   LIG A   1     -12.529   7.420 131.177  0.00  0.00    +0.012 A 
ATOM     14  C   LIG A   1     -13.138   8.617 130.778  0.00  0.00    +0.046 A 
ATOM     15  C   LIG A   1     -12.756   9.251 129.598  0.00  0.00    +0.120 A 
ATOM     16  C   LIG A   1     -11.745   8.687 128.827  0.00  0.00    +0.046 A 
ATOM     17  C   LIG A   1     -11.124   7.499 129.235  0.00  0.00    +0.012 A 
BRANCH  15  18
ATOM     18  O   LIG A   1     -13.441  10.399 129.311  0.00  0.00    -0.495 OA
ATOM     19  C   LIG A   1     -13.512  11.371 130.346  0.00  0.00    +0.277 C 
ENDBRANCH  15  18
ENDBRANCH  11  12
BRANCH   7  20
ATOM     20  O   LIG A   1      -6.760   2.544 134.271  0.00  0.00    -0.503 OA
ATOM     21  H   LIG A   1      -6.935   1.671 134.677  0.00  0.00    +0.292 HD
ENDBRANCH   7  20
BRANCH   6  22
ATOM     22  O   LIG A   1      -7.734   0.373 132.974  0.00  0.00    -0.503 OA
ATOM     23  H   LIG A   1      -7.595  -0.117 132.145  0.00  0.00    +0.292 HD
ENDBRANCH   6  22
TORSDOF 4
ENDMDL
MODEL 3
REMARK VINA RESULT:      -7.1      9.336     11.528
REMARK  Name = NuBBE_2450
REMARK  5 active torsions:
REMARK  status: ('A' for Active; 'I' for Inactive)
REMARK    1  A    between atoms: C_6  and  O_10
REMARK    2  A    between atoms: C_7  and  O_9
REMARK    3  A    between atoms: C_13  and  C_14
REMARK    4  A    between atoms: C_17  and  O_20
REMARK    5  A    between atoms: O_20  and  C_21
REMARK                            x       y       z     vdW  Elec       q    Type
REMARK                         _______ _______ _______ _____ _____    ______ ____
ROOT
ATOM      1  O   LIG A   1      -9.028  -3.894 128.301  0.00  0.00    -0.286 OA
ATOM      2  C   LIG A   1      -8.069  -3.300 127.820  0.00  0.00    +0.200 A 
ATOM      3  C   LIG A   1      -8.068  -2.959 126.387  0.00  0.00    +0.068 A 
ATOM      4  C   LIG A   1      -6.957  -2.313 125.845  0.00  0.00    +0.142 A 
ATOM      5  C   LIG A   1      -6.914  -1.994 124.486  0.00  0.00    +0.096 A 
ATOM      6  C   LIG A   1      -8.001  -2.325 123.685  0.00  0.00    +0.162 A 
ATOM      7  C   LIG A   1      -9.113  -2.965 124.231  0.00  0.00    +0.159 A 
ATOM      8  C   LIG A   1      -9.160  -3.288 125.578  0.00  0.00    +0.064 A 
ATOM      9  O   LIG A   1      -5.869  -1.961 126.600  0.00  0.00    -0.462 OA
ATOM     10  C   LIG A   1      -5.896  -2.261 127.940  0.00  0.00    +0.208 A 
ATOM     11  C   LIG A   1      -6.869  -2.895 128.618  0.00  0.00    +0.064 A 
ENDROOT
BRANCH  11  12
ATOM     12  C   LIG A   1      -6.744  -3.158 130.073  0.00  0.00    -0.011 A 
ATOM     13  C   LIG A   1      -5.931  -4.191 130.568  0.00  0.00    +0.012 A 
ATOM     14  C   LIG A   1      -5.838  -4.444 131.942  0.00  0.00    +0.046 A 
ATOM     15  C   LIG A   1      -6.570  -3.688 132.856  0.00  0.00    +0.120 A 
ATOM     16  C   LIG A   1      -7.383  -2.662 132.383  0.00  0.00    +0.046 A 
ATOM     17  C   LIG A   1      -7.460  -2.398 131.010  0.00  0.00    +0.012 A 
BRANCH  15  18
ATOM     18  O   LIG A   1      -6.410  -4.048 134.164  0.00  0.00    -0.495 OA
ATOM     19  C   LIG A   1      -6.219  -5.434 134.423  0.00  0.00    +0.277 C 
ENDBRANCH  15  18
ENDBRANCH  11  12
BRANCH   7  20
ATOM     20  O   LIG A   1     -10.174  -3.284 123.434  0.00  0.00    -0.503 OA
ATOM     21  H   LIG A   1     -10.532  -4.113 123.812  0.00  0.00    +0.292 HD
ENDBRANCH   7  20
BRANCH   6  22
ATOM     22  O   LIG A   1      -8.025  -2.041 122.348  0.00  0.00    -0.503 OA
ATOM     23  H   LIG A   1      -8.405  -1.153 122.227  0.00  0.00    +0.292 HD
ENDBRANCH   6  22
TORSDOF 4
ENDMDL
MODEL 4
REMARK VINA RESULT:      -6.8      4.656      7.904
REMARK  Name = NuBBE_2450
REMARK  5 active torsions:
REMARK  status: ('A' for Active; 'I' for Inactive)
REMARK    1  A    between atoms: C_6  and  O_10
REMARK    2  A    between atoms: C_7  and  O_9
REMARK    3  A    between atoms: C_13  and  C_14
REMARK    4  A    between atoms: C_17  and  O_20
REMARK    5  A    between atoms: O_20  and  C_21
REMARK                            x       y       z     vdW  Elec       q    Type
REMARK                         _______ _______ _______ _____ _____    ______ ____
ROOT
ATOM      1  O   LIG A   1      -6.238   7.422 130.373  0.00  0.00    -0.286 OA
ATOM      2  C   LIG A   1      -6.716   6.807 131.320  0.00  0.00    +0.200 A 
ATOM      3  C   LIG A   1      -8.175   6.634 131.415  0.00  0.00    +0.068 A 
ATOM      4  C   LIG A   1      -8.709   5.961 132.515  0.00  0.00    +0.142 A 
ATOM      5  C   LIG A   1     -10.089   5.797 132.646  0.00  0.00    +0.096 A 
ATOM      6  C   LIG A   1     -10.922   6.310 131.657  0.00  0.00    +0.162 A 
ATOM      7  C   LIG A   1     -10.386   6.975 130.555  0.00  0.00    +0.159 A 
ATOM      8  C   LIG A   1      -9.017   7.145 130.422  0.00  0.00    +0.064 A 
ATOM      9  O   LIG A   1      -7.924   5.434 133.506  0.00  0.00    -0.462 OA
ATOM     10  C   LIG A   1      -6.562   5.580 133.391  0.00  0.00    +0.208 A 
ATOM     11  C   LIG A   1      -5.887   6.213 132.416  0.00  0.00    +0.064 A 
ENDROOT
BRANCH  11  12
ATOM     12  C   LIG A   1      -4.405   6.296 132.439  0.00  0.00    -0.011 A 
ATOM     13  C   LIG A   1      -3.730   7.173 133.305  0.00  0.00    +0.012 A 
ATOM     14  C   LIG A   1      -2.332   7.259 133.302  0.00  0.00    +0.046 A 
ATOM     15  C   LIG A   1      -1.574   6.489 132.422  0.00  0.00    +0.120 A 
ATOM     16  C   LIG A   1      -2.226   5.617 131.557  0.00  0.00    +0.046 A 
ATOM     17  C   LIG A   1      -3.623   5.518 131.573  0.00  0.00    +0.012 A 
BRANCH  15  18
ATOM     18  O   LIG A   1      -0.223   6.681 132.504  0.00  0.00    -0.495 OA
ATOM     19  C   LIG A   1       0.213   7.830 133.220  0.00  0.00    +0.277 C 
ENDBRANCH  15  18
ENDBRANCH  11  12
BRANCH   7  20
ATOM     20  O   LIG A   1     -11.214   7.473 129.592  0.00  0.00    -0.503 OA
ATOM     21  H   LIG A   1     -10.650   7.564 128.797  0.00  0.00    +0.292 HD
ENDBRANCH   7  20
BRANCH   6  22
ATOM     22  O   LIG A   1     -12.282   6.184 131.722  0.00  0.00    -0.503 OA
ATOM     23  H   LIG A   1     -12.547   6.163 132.658  0.00  0.00    +0.292 HD
ENDBRANCH   6  22
TORSDOF 4
ENDMDL
MODEL 5
REMARK VINA RESULT:      -6.8      9.532     11.745
REMARK  Name = NuBBE_2450
REMARK  5 active torsions:
REMARK  status: ('A' for Active; 'I' for Inactive)
REMARK    1  A    between atoms: C_6  and  O_10
REMARK    2  A    between atoms: C_7  and  O_9
REMARK    3  A    between atoms: C_13  and  C_14
REMARK    4  A    between atoms: C_17  and  O_20
REMARK    5  A    between atoms: O_20  and  C_21
REMARK                            x       y       z     vdW  Elec       q    Type
REMARK                         _______ _______ _______ _____ _____    ______ ____
ROOT
ATOM      1  O   LIG A   1      -5.545  -2.039 127.938  0.00  0.00    -0.286 OA
ATOM      2  C   LIG A   1      -6.645  -2.533 127.712  0.00  0.00    +0.200 A 
ATOM      3  C   LIG A   1      -7.243  -2.399 126.374  0.00  0.00    +0.068 A 
ATOM      4  C   LIG A   1      -8.510  -2.936 126.140  0.00  0.00    +0.142 A 
ATOM      5  C   LIG A   1      -9.115  -2.809 124.888  0.00  0.00    +0.096 A 
ATOM      6  C   LIG A   1      -8.430  -2.145 123.876  0.00  0.00    +0.162 A 
ATOM      7  C   LIG A   1      -7.162  -1.616 124.111  0.00  0.00    +0.159 A 
ATOM      8  C   LIG A   1      -6.557  -1.734 125.353  0.00  0.00    +0.064 A 
ATOM      9  O   LIG A   1      -9.215  -3.605 127.105  0.00  0.00    -0.462 OA
ATOM     10  C   LIG A   1      -8.633  -3.745 128.342  0.00  0.00    +0.208 A 
ATOM     11  C   LIG A   1      -7.438  -3.275 128.743  0.00  0.00    +0.064 A 
ENDROOT
BRANCH  11  12
ATOM     12  C   LIG A   1      -6.950  -3.501 130.126  0.00  0.00    -0.011 A 
ATOM     13  C   LIG A   1      -5.981  -4.476 130.415  0.00  0.00    +0.012 A 
ATOM     14  C   LIG A   1      -5.544  -4.695 131.727  0.00  0.00    +0.046 A 
ATOM     15  C   LIG A   1      -6.076  -3.962 132.786  0.00  0.00    +0.120 A 
ATOM     16  C   LIG A   1      -7.037  -2.993 132.518  0.00  0.00    +0.046 A 
ATOM     17  C   LIG A   1      -7.461  -2.762 131.203  0.00  0.00    +0.012 A 
BRANCH  15  18
ATOM     18  O   LIG A   1      -5.582  -4.285 134.019  0.00  0.00    -0.495 OA
ATOM     19  C   LIG A   1      -5.696  -5.648 134.411  0.00  0.00    +0.277 C 
ENDBRANCH  15  18
ENDBRANCH  11  12
BRANCH   7  20
ATOM     20  O   LIG A   1      -6.500  -0.966 123.109  0.00  0.00    -0.503 OA
ATOM     21  H   LIG A   1      -6.310  -1.657 122.443  0.00  0.00    +0.292 HD
ENDBRANCH   7  20
BRANCH   6  22
ATOM     22  O   LIG A   1      -8.963  -1.986 122.628  0.00  0.00    -0.503 OA
ATOM     23  H   LIG A   1      -8.623  -1.156 122.249  0.00  0.00    +0.292 HD
ENDBRANCH   6  22
TORSDOF 4
ENDMDL
MODEL 6
REMARK VINA RESULT:      -6.6      3.708      4.987
REMARK  Name = NuBBE_2450
REMARK  5 active torsions:
REMARK  status: ('A' for Active; 'I' for Inactive)
REMARK    1  A    between atoms: C_6  and  O_10
REMARK    2  A    between atoms: C_7  and  O_9
REMARK    3  A    between atoms: C_13  and  C_14
REMARK    4  A    between atoms: C_17  and  O_20
REMARK    5  A    between atoms: O_20  and  C_21
REMARK                            x       y       z     vdW  Elec       q    Type
REMARK                         _______ _______ _______ _____ _____    ______ ____
ROOT
ATOM      1  O   LIG A   1      -6.664   7.547 130.426  0.00  0.00    -0.286 OA
ATOM      2  C   LIG A   1      -6.664   6.799 131.398  0.00  0.00    +0.200 A 
ATOM      3  C   LIG A   1      -5.389   6.440 132.041  0.00  0.00    +0.068 A 
ATOM      4  C   LIG A   1      -5.400   5.562 133.125  0.00  0.00    +0.142 A 
ATOM      5  C   LIG A   1      -4.208   5.184 133.746  0.00  0.00    +0.096 A 
ATOM      6  C   LIG A   1      -3.009   5.703 133.267  0.00  0.00    +0.162 A 
ATOM      7  C   LIG A   1      -3.002   6.586 132.188  0.00  0.00    +0.159 A 
ATOM      8  C   LIG A   1      -4.182   6.962 131.565  0.00  0.00    +0.064 A 
ATOM      9  O   LIG A   1      -6.558   5.034 133.632  0.00  0.00    -0.462 OA
ATOM     10  C   LIG A   1      -7.743   5.399 133.039  0.00  0.00    +0.208 A 
ATOM     11  C   LIG A   1      -7.912   6.211 131.981  0.00  0.00    +0.064 A 
ENDROOT
BRANCH  11  12
ATOM     12  C   LIG A   1      -9.265   6.502 131.445  0.00  0.00    -0.011 A 
ATOM     13  C   LIG A   1      -9.445   7.122 130.197  0.00  0.00    +0.012 A 
ATOM     14  C   LIG A   1     -10.727   7.411 129.712  0.00  0.00    +0.046 A 
ATOM     15  C   LIG A   1     -11.858   7.110 130.467  0.00  0.00    +0.120 A 
ATOM     16  C   LIG A   1     -11.698   6.498 131.706  0.00  0.00    +0.046 A 
ATOM     17  C   LIG A   1     -10.417   6.192 132.182  0.00  0.00    +0.012 A 
BRANCH  15  18
ATOM     18  O   LIG A   1     -13.047   7.462 129.892  0.00  0.00    -0.495 OA
ATOM     19  C   LIG A   1     -13.300   6.948 128.591  0.00  0.00    +0.277 C 
ENDBRANCH  15  18
ENDBRANCH  11  12
BRANCH   7  20
ATOM     20  O   LIG A   1      -1.820   7.089 131.729  0.00  0.00    -0.503 OA
ATOM     21  H   LIG A   1      -1.580   6.519 130.971  0.00  0.00    +0.292 HD
ENDBRANCH   7  20
BRANCH   6  22
ATOM     22  O   LIG A   1      -1.806   5.376 133.828  0.00  0.00    -0.503 OA
ATOM     23  H   LIG A   1      -1.455   6.160 134.285  0.00  0.00    +0.292 HD
ENDBRANCH   6  22
TORSDOF 4
ENDMDL
MODEL 7
REMARK VINA RESULT:      -6.4      7.593     10.650
REMARK  Name = NuBBE_2450
REMARK  5 active torsions:
REMARK  status: ('A' for Active; 'I' for Inactive)
REMARK    1  A    between atoms: C_6  and  O_10
REMARK    2  A    between atoms: C_7  and  O_9
REMARK    3  A    between atoms: C_13  and  C_14
REMARK    4  A    between atoms: C_17  and  O_20
REMARK    5  A    between atoms: O_20  and  C_21
REMARK                            x       y       z     vdW  Elec       q    Type
REMARK                         _______ _______ _______ _____ _____    ______ ____
ROOT
ATOM      1  O   LIG A   1      -6.030   0.938 126.143  0.00  0.00    -0.286 OA
ATOM      2  C   LIG A   1      -7.166   0.808 125.698  0.00  0.00    +0.200 A 
ATOM      3  C   LIG A   1      -7.586   1.597 124.528  0.00  0.00    +0.068 A 
ATOM      4  C   LIG A   1      -8.891   1.465 124.054  0.00  0.00    +0.142 A 
ATOM      5  C   LIG A   1      -9.328   2.213 122.958  0.00  0.00    +0.096 A 
ATOM      6  C   LIG A   1      -8.437   3.086 122.344  0.00  0.00    +0.162 A 
ATOM      7  C   LIG A   1      -7.131   3.211 122.816  0.00  0.00    +0.159 A 
ATOM      8  C   LIG A   1      -6.693   2.475 123.906  0.00  0.00    +0.064 A 
ATOM      9  O   LIG A   1      -9.798   0.611 124.623  0.00  0.00    -0.462 OA
ATOM     10  C   LIG A   1      -9.385  -0.139 125.699  0.00  0.00    +0.208 A 
ATOM     11  C   LIG A   1      -8.179  -0.121 126.293  0.00  0.00    +0.064 A 
ENDROOT
BRANCH  11  12
ATOM     12  C   LIG A   1      -7.887  -0.987 127.462  0.00  0.00    -0.011 A 
ATOM     13  C   LIG A   1      -7.927  -2.389 127.368  0.00  0.00    +0.012 A 
ATOM     14  C   LIG A   1      -7.671  -3.196 128.484  0.00  0.00    +0.046 A 
ATOM     15  C   LIG A   1      -7.390  -2.628 129.724  0.00  0.00    +0.120 A 
ATOM     16  C   LIG A   1      -7.347  -1.241 129.836  0.00  0.00    +0.046 A 
ATOM     17  C   LIG A   1      -7.585  -0.435 128.715  0.00  0.00    +0.012 A 
BRANCH  15  18
ATOM     18  O   LIG A   1      -7.180  -3.522 130.736  0.00  0.00    -0.495 OA
ATOM     19  C   LIG A   1      -5.922  -4.185 130.747  0.00  0.00    +0.277 C 
ENDBRANCH  15  18
ENDBRANCH  11  12
BRANCH   7  20
ATOM     20  O   LIG A   1      -6.266   4.071 122.205  0.00  0.00    -0.503 OA
ATOM     21  H   LIG A   1      -6.836   4.687 121.702  0.00  0.00    +0.292 HD
ENDBRANCH   7  20
BRANCH   6  22
ATOM     22  O   LIG A   1      -8.798   3.847 121.268  0.00  0.00    -0.503 OA
ATOM     23  H   LIG A   1      -9.446   3.349 120.740  0.00  0.00    +0.292 HD
ENDBRANCH   6  22
TORSDOF 4
ENDMDL
MODEL 8
REMARK VINA RESULT:      -6.4      8.399      9.576
REMARK  Name = NuBBE_2450
REMARK  5 active torsions:
REMARK  status: ('A' for Active; 'I' for Inactive)
REMARK    1  A    between atoms: C_6  and  O_10
REMARK    2  A    between atoms: C_7  and  O_9
REMARK    3  A    between atoms: C_13  and  C_14
REMARK    4  A    between atoms: C_17  and  O_20
REMARK    5  A    between atoms: O_20  and  C_21
REMARK                            x       y       z     vdW  Elec       q    Type
REMARK                         _______ _______ _______ _____ _____    ______ ____
ROOT
ATOM      1  O   LIG A   1      -8.310  -1.092 130.690  0.00  0.00    -0.286 OA
ATOM      2  C   LIG A   1      -7.629  -2.111 130.744  0.00  0.00    +0.200 A 
ATOM      3  C   LIG A   1      -7.014  -2.509 132.021  0.00  0.00    +0.068 A 
ATOM      4  C   LIG A   1      -6.214  -3.652 132.062  0.00  0.00    +0.142 A 
ATOM      5  C   LIG A   1      -5.599  -4.046 133.252  0.00  0.00    +0.096 A 
ATOM      6  C   LIG A   1      -5.803  -3.284 134.397  0.00  0.00    +0.162 A 
ATOM      7  C   LIG A   1      -6.609  -2.147 134.355  0.00  0.00    +0.159 A 
ATOM      8  C   LIG A   1      -7.219  -1.747 133.176  0.00  0.00    +0.064 A 
ATOM      9  O   LIG A   1      -5.994  -4.435 130.960  0.00  0.00    -0.462 OA
ATOM     10  C   LIG A   1      -6.596  -4.066 129.781  0.00  0.00    +0.208 A 
ATOM     11  C   LIG A   1      -7.375  -2.992 129.561  0.00  0.00    +0.064 A 
ENDROOT
BRANCH  11  12
ATOM     12  C   LIG A   1      -7.946  -2.722 128.218  0.00  0.00    -0.011 A 
ATOM     13  C   LIG A   1      -8.872  -3.595 127.623  0.00  0.00    +0.012 A 
ATOM     14  C   LIG A   1      -9.388  -3.340 126.345  0.00  0.00    +0.046 A 
ATOM     15  C   LIG A   1      -8.978  -2.221 125.622  0.00  0.00    +0.120 A 
ATOM     16  C   LIG A   1      -8.061  -1.347 126.196  0.00  0.00    +0.046 A 
ATOM     17  C   LIG A   1      -7.559  -1.593 127.482  0.00  0.00    +0.012 A 
BRANCH  15  18
ATOM     18  O   LIG A   1      -9.538  -2.098 124.382  0.00  0.00    -0.495 OA
ATOM     19  C   LIG A   1      -9.400  -3.212 123.509  0.00  0.00    +0.277 C 
ENDBRANCH  15  18
ENDBRANCH  11  12
BRANCH   7  20
ATOM     20  O   LIG A   1      -6.802  -1.407 135.486  0.00  0.00    -0.503 OA
ATOM     21  H   LIG A   1      -7.097  -0.531 135.167  0.00  0.00    +0.292 HD
ENDBRANCH   7  20
BRANCH   6  22
ATOM     22  O   LIG A   1      -5.233  -3.613 135.595  0.00  0.00    -0.503 OA
ATOM     23  H   LIG A   1      -5.676  -4.407 135.941  0.00  0.00    +0.292 HD
ENDBRANCH   6  22
TORSDOF 4
ENDMDL
MODEL 9
REMARK VINA RESULT:      -6.4      7.577     10.402
REMARK  Name = NuBBE_2450
REMARK  5 active torsions:
REMARK  status: ('A' for Active; 'I' for Inactive)
REMARK    1  A    between atoms: C_6  and  O_10
REMARK    2  A    between atoms: C_7  and  O_9
REMARK    3  A    between atoms: C_13  and  C_14
REMARK    4  A    between atoms: C_17  and  O_20
REMARK    5  A    between atoms: O_20  and  C_21
REMARK                            x       y       z     vdW  Elec       q    Type
REMARK                         _______ _______ _______ _____ _____    ______ ____
ROOT
ATOM      1  O   LIG A   1      -5.762   2.786 124.727  0.00  0.00    -0.286 OA
ATOM      2  C   LIG A   1      -6.876   2.670 124.225  0.00  0.00    +0.200 A 
ATOM      3  C   LIG A   1      -7.105   3.129 122.845  0.00  0.00    +0.068 A 
ATOM      4  C   LIG A   1      -8.384   3.023 122.298  0.00  0.00    +0.142 A 
ATOM      5  C   LIG A   1      -8.641   3.467 120.999  0.00  0.00    +0.096 A 
ATOM      6  C   LIG A   1      -7.597   4.012 120.258  0.00  0.00    +0.162 A 
ATOM      7  C   LIG A   1      -6.318   4.111 120.805  0.00  0.00    +0.159 A 
ATOM      8  C   LIG A   1      -6.058   3.676 122.096  0.00  0.00    +0.064 A 
ATOM      9  O   LIG A   1      -9.437   2.485 122.989  0.00  0.00    -0.462 OA
ATOM     10  C   LIG A   1      -9.202   2.036 124.267  0.00  0.00    +0.208 A 
ATOM     11  C   LIG A   1      -8.046   2.081 124.951  0.00  0.00    +0.064 A 
ENDROOT
BRANCH  11  12
ATOM     12  C   LIG A   1      -7.954   1.562 126.338  0.00  0.00    -0.011 A 
ATOM     13  C   LIG A   1      -7.738   0.199 126.601  0.00  0.00    +0.012 A 
ATOM     14  C   LIG A   1      -7.675  -0.282 127.915  0.00  0.00    +0.046 A 
ATOM     15  C   LIG A   1      -7.846   0.578 128.998  0.00  0.00    +0.120 A 
ATOM     16  C   LIG A   1      -8.063   1.931 128.755  0.00  0.00    +0.046 A 
ATOM     17  C   LIG A   1      -8.107   2.415 127.441  0.00  0.00    +0.012 A 
BRANCH  15  18
ATOM     18  O   LIG A   1      -7.784  -0.018 130.226  0.00  0.00    -0.495 OA
ATOM     19  C   LIG A   1      -7.909  -1.435 130.251  0.00  0.00    +0.277 C 
ENDBRANCH  15  18
ENDBRANCH  11  12
BRANCH   7  20
ATOM     20  O   LIG A   1      -5.303   4.647 120.068  0.00  0.00    -0.503 OA
ATOM     21  H   LIG A   1      -4.509   4.564 120.634  0.00  0.00    +0.292 HD
ENDBRANCH   7  20
BRANCH   6  22
ATOM     22  O   LIG A   1      -7.778   4.465 118.982  0.00  0.00    -0.503 OA
ATOM     23  H   LIG A   1      -7.833   5.437 119.003  0.00  0.00    +0.292 HD
ENDBRANCH   6  22
TORSDOF 4
ENDMDL
