MODEL 1
REMARK VINA RESULT:      -7.8      0.000      0.000
REMARK  Name = NuBBE_2424
REMARK  4 active torsions:
REMARK  status: ('A' for Active; 'I' for Inactive)
REMARK    1  A    between atoms: C_1  and  C_2
REMARK    2  A    between atoms: C_1  and  C_15
REMARK    3  A    between atoms: C_18  and  O_21
REMARK    4  A    between atoms: O_21  and  C_22
REMARK                            x       y       z     vdW  Elec       q    Type
REMARK                         _______ _______ _______ _____ _____    ______ ____
ROOT
ATOM      1  C   LIG A   1      -7.083   1.665 124.793  0.00  0.00    +0.053 A 
ATOM      2  C   LIG A   1      -7.428   0.303 124.608  0.00  0.00    +0.007 A 
ATOM      3  C   LIG A   1      -6.559  -0.664 125.189  0.00  0.00    -0.011 A 
ATOM      4  C   LIG A   1      -6.825  -2.040 125.069  0.00  0.00    +0.058 A 
ATOM      5  C   LIG A   1      -7.946  -2.428 124.371  0.00  0.00    +0.167 A 
ATOM      6  C   LIG A   1      -8.785  -1.516 123.793  0.00  0.00    +0.167 A 
ATOM      7  C   LIG A   1      -8.561  -0.155 123.888  0.00  0.00    +0.059 A 
ATOM      8  O   LIG A   1      -9.825  -2.106 123.143  0.00  0.00    -0.453 OA
ATOM      9  C   LIG A   1      -9.578  -3.496 123.445  0.00  0.00    +0.466 C 
ATOM     10  O   LIG A   1      -8.352  -3.711 124.174  0.00  0.00    -0.453 OA
ATOM     11  C   LIG A   1      -5.427  -0.247 125.893  0.00  0.00    +0.028 A 
ATOM     12  C   LIG A   1      -5.180   1.106 126.009  0.00  0.00    +0.112 A 
ATOM     13  N   LIG A   1      -5.971   2.058 125.484  0.00  0.00    -0.259 NA
ENDROOT
BRANCH   1  14
ATOM     14  C   LIG A   1      -7.932   2.808 124.269  0.00  0.00    +0.091 C 
BRANCH  14  15
ATOM     15  C   LIG A   1      -7.604   3.230 122.852  0.00  0.00    -0.041 A 
ATOM     16  C   LIG A   1      -6.300   3.570 122.470  0.00  0.00    +0.007 A 
ATOM     17  C   LIG A   1      -6.030   3.977 121.155  0.00  0.00    +0.046 A 
ATOM     18  C   LIG A   1      -7.054   4.055 120.209  0.00  0.00    +0.120 A 
ATOM     19  C   LIG A   1      -8.351   3.715 120.587  0.00  0.00    +0.046 A 
ATOM     20  C   LIG A   1      -8.625   3.317 121.896  0.00  0.00    +0.007 A 
BRANCH  18  21
ATOM     21  O   LIG A   1      -6.681   4.470 118.959  0.00  0.00    -0.495 OA
ATOM     22  C   LIG A   1      -5.815   5.601 118.914  0.00  0.00    +0.277 C 
ENDBRANCH  18  21
ENDBRANCH  14  15
ENDBRANCH   1  14
TORSDOF 3
ENDMDL
MODEL 2
REMARK VINA RESULT:      -7.6      2.037      6.613
REMARK  Name = NuBBE_2424
REMARK  4 active torsions:
REMARK  status: ('A' for Active; 'I' for Inactive)
REMARK    1  A    between atoms: C_1  and  C_2
REMARK    2  A    between atoms: C_1  and  C_15
REMARK    3  A    between atoms: C_18  and  O_21
REMARK    4  A    between atoms: O_21  and  C_22
REMARK                            x       y       z     vdW  Elec       q    Type
REMARK                         _______ _______ _______ _____ _____    ______ ____
ROOT
ATOM      1  C   LIG A   1      -7.501   1.240 124.616  0.00  0.00    +0.053 A 
ATOM      2  C   LIG A   1      -6.858   2.237 123.839  0.00  0.00    +0.007 A 
ATOM      3  C   LIG A   1      -6.160   3.254 124.551  0.00  0.00    -0.011 A 
ATOM      4  C   LIG A   1      -5.481   4.278 123.867  0.00  0.00    +0.058 A 
ATOM      5  C   LIG A   1      -5.511   4.275 122.491  0.00  0.00    +0.167 A 
ATOM      6  C   LIG A   1      -6.188   3.315 121.789  0.00  0.00    +0.167 A 
ATOM      7  C   LIG A   1      -6.866   2.291 122.422  0.00  0.00    +0.059 A 
ATOM      8  O   LIG A   1      -6.102   3.499 120.443  0.00  0.00    -0.453 OA
ATOM      9  C   LIG A   1      -5.229   4.647 120.384  0.00  0.00    +0.466 C 
ATOM     10  O   LIG A   1      -4.899   5.181 121.683  0.00  0.00    -0.453 OA
ATOM     11  C   LIG A   1      -6.143   3.238 125.948  0.00  0.00    +0.028 A 
ATOM     12  C   LIG A   1      -6.809   2.224 126.606  0.00  0.00    +0.112 A 
ATOM     13  N   LIG A   1      -7.476   1.238 125.982  0.00  0.00    -0.259 NA
ENDROOT
BRANCH   1  14
ATOM     14  C   LIG A   1      -8.248   0.072 124.000  0.00  0.00    +0.091 C 
BRANCH  14  15
ATOM     15  C   LIG A   1      -7.488  -1.238 124.025  0.00  0.00    -0.041 A 
ATOM     16  C   LIG A   1      -6.176  -1.334 123.545  0.00  0.00    +0.007 A 
ATOM     17  C   LIG A   1      -5.503  -2.565 123.562  0.00  0.00    +0.046 A 
ATOM     18  C   LIG A   1      -6.131  -3.712 124.053  0.00  0.00    +0.120 A 
ATOM     19  C   LIG A   1      -7.434  -3.617 124.533  0.00  0.00    +0.046 A 
ATOM     20  C   LIG A   1      -8.109  -2.395 124.510  0.00  0.00    +0.007 A 
BRANCH  18  21
ATOM     21  O   LIG A   1      -5.386  -4.861 124.017  0.00  0.00    -0.495 OA
ATOM     22  C   LIG A   1      -4.063  -4.726 123.505  0.00  0.00    +0.277 C 
ENDBRANCH  18  21
ENDBRANCH  14  15
ENDBRANCH   1  14
TORSDOF 3
ENDMDL
MODEL 3
REMARK VINA RESULT:      -7.4      1.798      2.355
REMARK  Name = NuBBE_2424
REMARK  4 active torsions:
REMARK  status: ('A' for Active; 'I' for Inactive)
REMARK    1  A    between atoms: C_1  and  C_2
REMARK    2  A    between atoms: C_1  and  C_15
REMARK    3  A    between atoms: C_18  and  O_21
REMARK    4  A    between atoms: O_21  and  C_22
REMARK                            x       y       z     vdW  Elec       q    Type
REMARK                         _______ _______ _______ _____ _____    ______ ____
ROOT
ATOM      1  C   LIG A   1      -8.128   2.166 124.061  0.00  0.00    +0.053 A 
ATOM      2  C   LIG A   1      -7.405   0.966 124.278  0.00  0.00    +0.007 A 
ATOM      3  C   LIG A   1      -6.899   0.750 125.591  0.00  0.00    -0.011 A 
ATOM      4  C   LIG A   1      -6.179  -0.417 125.906  0.00  0.00    +0.058 A 
ATOM      5  C   LIG A   1      -5.974  -1.344 124.909  0.00  0.00    +0.167 A 
ATOM      6  C   LIG A   1      -6.440  -1.149 123.639  0.00  0.00    +0.167 A 
ATOM      7  C   LIG A   1      -7.152  -0.018 123.288  0.00  0.00    +0.059 A 
ATOM      8  O   LIG A   1      -6.122  -2.177 122.805  0.00  0.00    -0.453 OA
ATOM      9  C   LIG A   1      -5.464  -3.075 123.725  0.00  0.00    +0.466 C 
ATOM     10  O   LIG A   1      -5.313  -2.525 125.050  0.00  0.00    -0.453 OA
ATOM     11  C   LIG A   1      -7.118   1.705 126.587  0.00  0.00    +0.028 A 
ATOM     12  C   LIG A   1      -7.831   2.843 126.267  0.00  0.00    +0.112 A 
ATOM     13  N   LIG A   1      -8.335   3.092 125.046  0.00  0.00    -0.259 NA
ENDROOT
BRANCH   1  14
ATOM     14  C   LIG A   1      -8.762   2.515 122.728  0.00  0.00    +0.091 C 
BRANCH  14  15
ATOM     15  C   LIG A   1      -7.844   3.248 121.773  0.00  0.00    -0.041 A 
ATOM     16  C   LIG A   1      -8.317   3.790 120.571  0.00  0.00    +0.007 A 
ATOM     17  C   LIG A   1      -7.440   4.447 119.695  0.00  0.00    +0.046 A 
ATOM     18  C   LIG A   1      -6.083   4.566 120.004  0.00  0.00    +0.120 A 
ATOM     19  C   LIG A   1      -5.612   4.029 121.199  0.00  0.00    +0.046 A 
ATOM     20  C   LIG A   1      -6.481   3.369 122.069  0.00  0.00    +0.007 A 
BRANCH  18  21
ATOM     21  O   LIG A   1      -5.316   5.219 119.077  0.00  0.00    -0.495 OA
ATOM     22  C   LIG A   1      -6.030   5.877 118.034  0.00  0.00    +0.277 C 
ENDBRANCH  18  21
ENDBRANCH  14  15
ENDBRANCH   1  14
TORSDOF 3
ENDMDL
MODEL 4
REMARK VINA RESULT:      -7.3      1.635      6.802
REMARK  Name = NuBBE_2424
REMARK  4 active torsions:
REMARK  status: ('A' for Active; 'I' for Inactive)
REMARK    1  A    between atoms: C_1  and  C_2
REMARK    2  A    between atoms: C_1  and  C_15
REMARK    3  A    between atoms: C_18  and  O_21
REMARK    4  A    between atoms: O_21  and  C_22
REMARK                            x       y       z     vdW  Elec       q    Type
REMARK                         _______ _______ _______ _____ _____    ______ ____
ROOT
ATOM      1  C   LIG A   1      -7.684   2.780 123.884  0.00  0.00    +0.053 A 
ATOM      2  C   LIG A   1      -7.112   3.390 122.739  0.00  0.00    +0.007 A 
ATOM      3  C   LIG A   1      -5.813   3.954 122.894  0.00  0.00    -0.011 A 
ATOM      4  C   LIG A   1      -5.159   4.570 121.813  0.00  0.00    +0.058 A 
ATOM      5  C   LIG A   1      -5.808   4.618 120.600  0.00  0.00    +0.167 A 
ATOM      6  C   LIG A   1      -7.061   4.095 120.434  0.00  0.00    +0.167 A 
ATOM      7  C   LIG A   1      -7.738   3.480 121.470  0.00  0.00    +0.059 A 
ATOM      8  O   LIG A   1      -7.526   4.254 119.165  0.00  0.00    -0.453 OA
ATOM      9  C   LIG A   1      -6.384   4.875 118.536  0.00  0.00    +0.466 C 
ATOM     10  O   LIG A   1      -5.312   5.163 119.457  0.00  0.00    -0.453 OA
ATOM     11  C   LIG A   1      -5.173   3.895 124.135  0.00  0.00    +0.028 A 
ATOM     12  C   LIG A   1      -5.824   3.283 125.187  0.00  0.00    +0.112 A 
ATOM     13  N   LIG A   1      -7.046   2.730 125.092  0.00  0.00    -0.259 NA
ENDROOT
BRANCH   1  14
ATOM     14  C   LIG A   1      -9.041   2.101 123.862  0.00  0.00    +0.091 C 
BRANCH  14  15
ATOM     15  C   LIG A   1      -9.012   0.636 124.242  0.00  0.00    -0.041 A 
ATOM     16  C   LIG A   1      -9.243   0.213 125.557  0.00  0.00    +0.007 A 
ATOM     17  C   LIG A   1      -9.190  -1.149 125.884  0.00  0.00    +0.046 A 
ATOM     18  C   LIG A   1      -8.902  -2.105 124.907  0.00  0.00    +0.120 A 
ATOM     19  C   LIG A   1      -8.673  -1.687 123.599  0.00  0.00    +0.046 A 
ATOM     20  C   LIG A   1      -8.718  -0.331 123.272  0.00  0.00    +0.007 A 
BRANCH  18  21
ATOM     21  O   LIG A   1      -8.868  -3.405 125.336  0.00  0.00    -0.495 OA
ATOM     22  C   LIG A   1      -8.824  -3.591 126.748  0.00  0.00    +0.277 C 
ENDBRANCH  18  21
ENDBRANCH  14  15
ENDBRANCH   1  14
TORSDOF 3
ENDMDL
MODEL 5
REMARK VINA RESULT:      -7.1      7.545      8.784
REMARK  Name = NuBBE_2424
REMARK  4 active torsions:
REMARK  status: ('A' for Active; 'I' for Inactive)
REMARK    1  A    between atoms: C_1  and  C_2
REMARK    2  A    between atoms: C_1  and  C_15
REMARK    3  A    between atoms: C_18  and  O_21
REMARK    4  A    between atoms: O_21  and  C_22
REMARK                            x       y       z     vdW  Elec       q    Type
REMARK                         _______ _______ _______ _____ _____    ______ ____
ROOT
ATOM      1  C   LIG A   1      -8.814   4.887 131.919  0.00  0.00    +0.053 A 
ATOM      2  C   LIG A   1      -8.675   3.883 130.929  0.00  0.00    +0.007 A 
ATOM      3  C   LIG A   1      -8.778   2.532 131.366  0.00  0.00    -0.011 A 
ATOM      4  C   LIG A   1      -8.665   1.466 130.455  0.00  0.00    +0.058 A 
ATOM      5  C   LIG A   1      -8.450   1.763 129.129  0.00  0.00    +0.167 A 
ATOM      6  C   LIG A   1      -8.334   3.053 128.690  0.00  0.00    +0.167 A 
ATOM      7  C   LIG A   1      -8.440   4.129 129.552  0.00  0.00    +0.059 A 
ATOM      8  O   LIG A   1      -8.113   3.129 127.349  0.00  0.00    -0.453 OA
ATOM      9  C   LIG A   1      -8.178   1.732 126.988  0.00  0.00    +0.466 C 
ATOM     10  O   LIG A   1      -8.331   0.855 128.123  0.00  0.00    -0.453 OA
ATOM     11  C   LIG A   1      -8.996   2.253 132.718  0.00  0.00    +0.028 A 
ATOM     12  C   LIG A   1      -9.110   3.308 133.601  0.00  0.00    +0.112 A 
ATOM     13  N   LIG A   1      -9.027   4.600 133.239  0.00  0.00    -0.259 NA
ENDROOT
BRANCH   1  14
ATOM     14  C   LIG A   1      -8.769   6.369 131.599  0.00  0.00    +0.091 C 
BRANCH  14  15
ATOM     15  C   LIG A   1      -9.978   6.882 130.845  0.00  0.00    -0.041 A 
ATOM     16  C   LIG A   1      -9.846   7.610 129.656  0.00  0.00    +0.007 A 
ATOM     17  C   LIG A   1     -10.983   8.091 128.989  0.00  0.00    +0.046 A 
ATOM     18  C   LIG A   1     -12.261   7.855 129.501  0.00  0.00    +0.120 A 
ATOM     19  C   LIG A   1     -12.393   7.130 130.682  0.00  0.00    +0.046 A 
ATOM     20  C   LIG A   1     -11.264   6.657 131.352  0.00  0.00    +0.007 A 
BRANCH  18  21
ATOM     21  O   LIG A   1     -13.299   8.374 128.774  0.00  0.00    -0.495 OA
ATOM     22  C   LIG A   1     -13.803   7.542 127.733  0.00  0.00    +0.277 C 
ENDBRANCH  18  21
ENDBRANCH  14  15
ENDBRANCH   1  14
TORSDOF 3
ENDMDL
MODEL 6
REMARK VINA RESULT:      -7.1      1.569      2.581
REMARK  Name = NuBBE_2424
REMARK  4 active torsions:
REMARK  status: ('A' for Active; 'I' for Inactive)
REMARK    1  A    between atoms: C_1  and  C_2
REMARK    2  A    between atoms: C_1  and  C_15
REMARK    3  A    between atoms: C_18  and  O_21
REMARK    4  A    between atoms: O_21  and  C_22
REMARK                            x       y       z     vdW  Elec       q    Type
REMARK                         _______ _______ _______ _____ _____    ______ ____
ROOT
ATOM      1  C   LIG A   1      -7.639   1.994 124.358  0.00  0.00    +0.053 A 
ATOM      2  C   LIG A   1      -7.481   0.587 124.308  0.00  0.00    +0.007 A 
ATOM      3  C   LIG A   1      -8.672  -0.191 124.229  0.00  0.00    -0.011 A 
ATOM      4  C   LIG A   1      -8.616  -1.594 124.163  0.00  0.00    +0.058 A 
ATOM      5  C   LIG A   1      -7.379  -2.199 124.181  0.00  0.00    +0.167 A 
ATOM      6  C   LIG A   1      -6.225  -1.471 124.271  0.00  0.00    +0.167 A 
ATOM      7  C   LIG A   1      -6.235  -0.091 124.336  0.00  0.00    +0.059 A 
ATOM      8  O   LIG A   1      -5.114  -2.258 124.284  0.00  0.00    -0.453 OA
ATOM      9  C   LIG A   1      -5.709  -3.564 124.118  0.00  0.00    +0.466 C 
ATOM     10  O   LIG A   1      -7.151  -3.538 124.112  0.00  0.00    -0.453 OA
ATOM     11  C   LIG A   1      -9.916   0.444 124.213  0.00  0.00    +0.028 A 
ATOM     12  C   LIG A   1      -9.957   1.822 124.272  0.00  0.00    +0.112 A 
ATOM     13  N   LIG A   1      -8.864   2.601 124.341  0.00  0.00    -0.259 NA
ENDROOT
BRANCH   1  14
ATOM     14  C   LIG A   1      -6.464   2.953 124.402  0.00  0.00    +0.091 C 
BRANCH  14  15
ATOM     15  C   LIG A   1      -6.100   3.556 123.061  0.00  0.00    -0.041 A 
ATOM     16  C   LIG A   1      -4.974   4.376 122.907  0.00  0.00    +0.007 A 
ATOM     17  C   LIG A   1      -4.672   4.937 121.658  0.00  0.00    +0.046 A 
ATOM     18  C   LIG A   1      -5.488   4.693 120.552  0.00  0.00    +0.120 A 
ATOM     19  C   LIG A   1      -6.606   3.876 120.703  0.00  0.00    +0.046 A 
ATOM     20  C   LIG A   1      -6.914   3.322 121.946  0.00  0.00    +0.007 A 
BRANCH  18  21
ATOM     21  O   LIG A   1      -5.105   5.295 119.383  0.00  0.00    -0.495 OA
ATOM     22  C   LIG A   1      -6.137   5.489 118.419  0.00  0.00    +0.277 C 
ENDBRANCH  18  21
ENDBRANCH  14  15
ENDBRANCH   1  14
TORSDOF 3
ENDMDL
MODEL 7
REMARK VINA RESULT:      -7.1      2.551      3.672
REMARK  Name = NuBBE_2424
REMARK  4 active torsions:
REMARK  status: ('A' for Active; 'I' for Inactive)
REMARK    1  A    between atoms: C_1  and  C_2
REMARK    2  A    between atoms: C_1  and  C_15
REMARK    3  A    between atoms: C_18  and  O_21
REMARK    4  A    between atoms: O_21  and  C_22
REMARK                            x       y       z     vdW  Elec       q    Type
REMARK                         _______ _______ _______ _____ _____    ______ ____
ROOT
ATOM      1  C   LIG A   1      -9.272   0.003 124.218  0.00  0.00    +0.053 A 
ATOM      2  C   LIG A   1      -8.732  -0.706 125.320  0.00  0.00    +0.007 A 
ATOM      3  C   LIG A   1      -8.527  -2.104 125.144  0.00  0.00    -0.011 A 
ATOM      4  C   LIG A   1      -7.985  -2.891 126.177  0.00  0.00    +0.058 A 
ATOM      5  C   LIG A   1      -7.662  -2.275 127.364  0.00  0.00    +0.167 A 
ATOM      6  C   LIG A   1      -7.865  -0.936 127.558  0.00  0.00    +0.167 A 
ATOM      7  C   LIG A   1      -8.393  -0.127 126.569  0.00  0.00    +0.059 A 
ATOM      8  O   LIG A   1      -7.489  -0.528 128.801  0.00  0.00    -0.453 OA
ATOM      9  C   LIG A   1      -6.958  -1.759 129.338  0.00  0.00    +0.466 C 
ATOM     10  O   LIG A   1      -7.120  -2.885 128.452  0.00  0.00    -0.453 OA
ATOM     11  C   LIG A   1      -8.863  -2.709 123.930  0.00  0.00    +0.028 A 
ATOM     12  C   LIG A   1      -9.388  -1.926 122.923  0.00  0.00    +0.112 A 
ATOM     13  N   LIG A   1      -9.596  -0.602 123.036  0.00  0.00    -0.259 NA
ENDROOT
BRANCH   1  14
ATOM     14  C   LIG A   1      -9.508   1.502 124.240  0.00  0.00    +0.091 C 
BRANCH  14  15
ATOM     15  C   LIG A   1      -8.410   2.317 123.590  0.00  0.00    -0.041 A 
ATOM     16  C   LIG A   1      -8.527   2.790 122.277  0.00  0.00    +0.007 A 
ATOM     17  C   LIG A   1      -7.485   3.525 121.693  0.00  0.00    +0.046 A 
ATOM     18  C   LIG A   1      -6.315   3.793 122.408  0.00  0.00    +0.120 A 
ATOM     19  C   LIG A   1      -6.199   3.326 123.714  0.00  0.00    +0.046 A 
ATOM     20  C   LIG A   1      -7.230   2.587 124.296  0.00  0.00    +0.007 A 
BRANCH  18  21
ATOM     21  O   LIG A   1      -5.360   4.513 121.741  0.00  0.00    -0.495 OA
ATOM     22  C   LIG A   1      -5.529   4.606 120.329  0.00  0.00    +0.277 C 
ENDBRANCH  18  21
ENDBRANCH  14  15
ENDBRANCH   1  14
TORSDOF 3
ENDMDL
MODEL 8
REMARK VINA RESULT:      -7.0      3.996      8.135
REMARK  Name = NuBBE_2424
REMARK  4 active torsions:
REMARK  status: ('A' for Active; 'I' for Inactive)
REMARK    1  A    between atoms: C_1  and  C_2
REMARK    2  A    between atoms: C_1  and  C_15
REMARK    3  A    between atoms: C_18  and  O_21
REMARK    4  A    between atoms: O_21  and  C_22
REMARK                            x       y       z     vdW  Elec       q    Type
REMARK                         _______ _______ _______ _____ _____    ______ ____
ROOT
ATOM      1  C   LIG A   1      -8.436  -2.637 126.363  0.00  0.00    +0.053 A 
ATOM      2  C   LIG A   1      -8.481  -1.418 125.641  0.00  0.00    +0.007 A 
ATOM      3  C   LIG A   1      -8.445  -1.512 124.220  0.00  0.00    -0.011 A 
ATOM      4  C   LIG A   1      -8.496  -0.358 123.418  0.00  0.00    +0.058 A 
ATOM      5  C   LIG A   1      -8.578   0.866 124.041  0.00  0.00    +0.167 A 
ATOM      6  C   LIG A   1      -8.599   0.979 125.404  0.00  0.00    +0.167 A 
ATOM      7  C   LIG A   1      -8.553  -0.129 126.229  0.00  0.00    +0.059 A 
ATOM      8  O   LIG A   1      -8.673   2.274 125.817  0.00  0.00    -0.453 OA
ATOM      9  C   LIG A   1      -8.769   2.956 124.548  0.00  0.00    +0.466 C 
ATOM     10  O   LIG A   1      -8.648   2.072 123.415  0.00  0.00    -0.453 OA
ATOM     11  C   LIG A   1      -8.360  -2.765 123.609  0.00  0.00    +0.028 A 
ATOM     12  C   LIG A   1      -8.317  -3.890 124.407  0.00  0.00    +0.112 A 
ATOM     13  N   LIG A   1      -8.354  -3.856 125.750  0.00  0.00    -0.259 NA
ENDROOT
BRANCH   1  14
ATOM     14  C   LIG A   1      -8.508  -2.699 127.877  0.00  0.00    +0.091 C 
BRANCH  14  15
ATOM     15  C   LIG A   1      -7.179  -2.958 128.555  0.00  0.00    -0.041 A 
ATOM     16  C   LIG A   1      -7.091  -3.705 129.737  0.00  0.00    +0.007 A 
ATOM     17  C   LIG A   1      -5.849  -3.912 130.354  0.00  0.00    +0.046 A 
ATOM     18  C   LIG A   1      -4.683  -3.374 129.805  0.00  0.00    +0.120 A 
ATOM     19  C   LIG A   1      -4.768  -2.632 128.630  0.00  0.00    +0.046 A 
ATOM     20  C   LIG A   1      -6.004  -2.418 128.017  0.00  0.00    +0.007 A 
BRANCH  18  21
ATOM     21  O   LIG A   1      -3.527  -3.631 130.492  0.00  0.00    -0.495 OA
ATOM     22  C   LIG A   1      -3.657  -3.733 131.908  0.00  0.00    +0.277 C 
ENDBRANCH  18  21
ENDBRANCH  14  15
ENDBRANCH   1  14
TORSDOF 3
ENDMDL
MODEL 9
REMARK VINA RESULT:      -7.0      8.141     10.111
REMARK  Name = NuBBE_2424
REMARK  4 active torsions:
REMARK  status: ('A' for Active; 'I' for Inactive)
REMARK    1  A    between atoms: C_1  and  C_2
REMARK    2  A    between atoms: C_1  and  C_15
REMARK    3  A    between atoms: C_18  and  O_21
REMARK    4  A    between atoms: O_21  and  C_22
REMARK                            x       y       z     vdW  Elec       q    Type
REMARK                         _______ _______ _______ _____ _____    ______ ____
ROOT
ATOM      1  C   LIG A   1      -5.061   6.238 132.604  0.00  0.00    +0.053 A 
ATOM      2  C   LIG A   1      -6.429   6.287 132.239  0.00  0.00    +0.007 A 
ATOM      3  C   LIG A   1      -7.344   5.599 133.086  0.00  0.00    -0.011 A 
ATOM      4  C   LIG A   1      -8.724   5.600 132.812  0.00  0.00    +0.058 A 
ATOM      5  C   LIG A   1      -9.167   6.282 131.702  0.00  0.00    +0.167 A 
ATOM      6  C   LIG A   1      -8.304   6.937 130.868  0.00  0.00    +0.167 A 
ATOM      7  C   LIG A   1      -6.942   6.961 131.101  0.00  0.00    +0.059 A 
ATOM      8  O   LIG A   1      -8.941   7.536 129.826  0.00  0.00    -0.453 OA
ATOM      9  C   LIG A   1     -10.318   7.240 130.147  0.00  0.00    +0.466 C 
ATOM     10  O   LIG A   1     -10.464   6.392 131.304  0.00  0.00    -0.453 OA
ATOM     11  C   LIG A   1      -6.872   4.913 134.208  0.00  0.00    +0.028 A 
ATOM     12  C   LIG A   1      -5.517   4.924 134.468  0.00  0.00    +0.112 A 
ATOM     13  N   LIG A   1      -4.613   5.562 133.705  0.00  0.00    -0.259 NA
ENDROOT
BRANCH   1  14
ATOM     14  C   LIG A   1      -3.975   6.955 131.824  0.00  0.00    +0.091 C 
BRANCH  14  15
ATOM     15  C   LIG A   1      -3.566   6.263 130.541  0.00  0.00    -0.041 A 
ATOM     16  C   LIG A   1      -3.165   6.988 129.411  0.00  0.00    +0.007 A 
ATOM     17  C   LIG A   1      -2.811   6.321 128.230  0.00  0.00    +0.046 A 
ATOM     18  C   LIG A   1      -2.858   4.927 128.158  0.00  0.00    +0.120 A 
ATOM     19  C   LIG A   1      -3.255   4.205 129.281  0.00  0.00    +0.046 A 
ATOM     20  C   LIG A   1      -3.615   4.866 130.456  0.00  0.00    +0.007 A 
BRANCH  18  21
ATOM     21  O   LIG A   1      -2.498   4.379 126.956  0.00  0.00    -0.495 OA
ATOM     22  C   LIG A   1      -1.863   3.105 127.021  0.00  0.00    +0.277 C 
ENDBRANCH  18  21
ENDBRANCH  14  15
ENDBRANCH   1  14
TORSDOF 3
ENDMDL
