MODEL 1
REMARK VINA RESULT:      -7.5      0.000      0.000
REMARK  Name = NuBBE_1168
REMARK  7 active torsions:
REMARK  status: ('A' for Active; 'I' for Inactive)
REMARK    1  A    between atoms: O_1  and  C_2
REMARK    2  A    between atoms: C_5  and  C_8
REMARK    3  A    between atoms: C_9  and  C_10
REMARK    4  A    between atoms: N_11  and  C_12
REMARK    5  A    between atoms: C_12  and  C_13
REMARK    6  A    between atoms: C_13  and  C_14
REMARK    7  A    between atoms: C_17  and  O_20
REMARK                            x       y       z     vdW  Elec       q    Type
REMARK                         _______ _______ _______ _____ _____    ______ ____
ROOT
ATOM      1  C   LIG A   1      -7.407   2.333 124.671  0.00  0.00    +0.237 C 
ATOM      2  N   LIG A   1      -6.264   1.662 125.014  0.00  0.00    -0.311 N 
ATOM      3  O   LIG A   1      -8.486   2.206 125.239  0.00  0.00    -0.271 OA
ATOM      4  H   LIG A   1      -5.415   1.806 124.482  0.00  0.00    +0.149 HD
ENDROOT
BRANCH   1   6
ATOM      5  C   LIG A   1      -6.612   2.803 122.405  0.00  0.00    +0.013 C 
ATOM      6  C   LIG A   1      -7.207   3.246 123.521  0.00  0.00    +0.068 C 
BRANCH   5  10
ATOM      7  C   LIG A   1      -5.947   5.357 119.077  0.00  0.00    +0.117 A 
ATOM      8  C   LIG A   1      -4.980   5.267 120.074  0.00  0.00    +0.046 A 
ATOM      9  C   LIG A   1      -5.201   4.430 121.171  0.00  0.00    +0.011 A 
ATOM     10  C   LIG A   1      -6.386   3.693 121.268  0.00  0.00    -0.025 A 
ATOM     11  C   LIG A   1      -7.348   3.793 120.257  0.00  0.00    +0.011 A 
ATOM     12  C   LIG A   1      -7.127   4.627 119.160  0.00  0.00    +0.046 A 
BRANCH   7  13
ATOM     13  O   LIG A   1      -5.773   6.160 117.989  0.00  0.00    -0.507 OA
ATOM     14  H   LIG A   1      -5.859   5.619 117.187  0.00  0.00    +0.292 HD
ENDBRANCH   7  13
ENDBRANCH   5  10
ENDBRANCH   1   6
BRANCH   2  15
ATOM     15  C   LIG A   1      -6.204   0.706 126.107  0.00  0.00    +0.109 C 
BRANCH  15  16
ATOM     16  C   LIG A   1      -5.838  -0.703 125.628  0.00  0.00    +0.054 C 
BRANCH  16  17
ATOM     17  C   LIG A   1      -7.006  -1.444 125.017  0.00  0.00    -0.046 A 
ATOM     18  C   LIG A   1      -7.091  -1.631 123.631  0.00  0.00    +0.007 A 
ATOM     19  C   LIG A   1      -8.167  -2.329 123.075  0.00  0.00    +0.045 A 
ATOM     20  C   LIG A   1      -9.151  -2.849 123.911  0.00  0.00    +0.117 A 
ATOM     21  C   LIG A   1      -9.076  -2.685 125.287  0.00  0.00    +0.045 A 
ATOM     22  C   LIG A   1      -8.009  -1.979 125.840  0.00  0.00    +0.007 A 
BRANCH  20  23
ATOM     23  O   LIG A   1     -10.220  -3.533 123.412  0.00  0.00    -0.507 OA
ATOM     24  H   LIG A   1     -10.133  -4.467 123.662  0.00  0.00    +0.292 HD
ENDBRANCH  20  23
ENDBRANCH  16  17
ENDBRANCH  15  16
ENDBRANCH   2  15
TORSDOF 7
ENDMDL
MODEL 2
REMARK VINA RESULT:      -7.5      0.854      1.728
REMARK  Name = NuBBE_1168
REMARK  7 active torsions:
REMARK  status: ('A' for Active; 'I' for Inactive)
REMARK    1  A    between atoms: O_1  and  C_2
REMARK    2  A    between atoms: C_5  and  C_8
REMARK    3  A    between atoms: C_9  and  C_10
REMARK    4  A    between atoms: N_11  and  C_12
REMARK    5  A    between atoms: C_12  and  C_13
REMARK    6  A    between atoms: C_13  and  C_14
REMARK    7  A    between atoms: C_17  and  O_20
REMARK                            x       y       z     vdW  Elec       q    Type
REMARK                         _______ _______ _______ _____ _____    ______ ____
ROOT
ATOM      1  C   LIG A   1      -8.579   2.337 123.935  0.00  0.00    +0.237 C 
ATOM      2  N   LIG A   1      -7.488   2.158 124.743  0.00  0.00    -0.311 N 
ATOM      3  O   LIG A   1      -9.701   1.909 124.176  0.00  0.00    -0.271 OA
ATOM      4  H   LIG A   1      -6.587   2.527 124.464  0.00  0.00    +0.149 HD
ENDROOT
BRANCH   1   6
ATOM      5  C   LIG A   1      -7.023   3.093 122.203  0.00  0.00    +0.013 C 
ATOM      6  C   LIG A   1      -8.262   3.118 122.716  0.00  0.00    +0.068 C 
BRANCH   5  10
ATOM      7  C   LIG A   1      -6.046   5.389 118.766  0.00  0.00    +0.117 A 
ATOM      8  C   LIG A   1      -7.278   4.745 118.831  0.00  0.00    +0.046 A 
ATOM      9  C   LIG A   1      -7.598   3.987 119.961  0.00  0.00    +0.011 A 
ATOM     10  C   LIG A   1      -6.684   3.871 121.014  0.00  0.00    -0.025 A 
ATOM     11  C   LIG A   1      -5.450   4.525 120.934  0.00  0.00    +0.011 A 
ATOM     12  C   LIG A   1      -5.131   5.284 119.807  0.00  0.00    +0.046 A 
BRANCH   7  13
ATOM     13  O   LIG A   1      -5.692   6.140 117.685  0.00  0.00    -0.507 OA
ATOM     14  H   LIG A   1      -4.729   6.261 117.692  0.00  0.00    +0.292 HD
ENDBRANCH   7  13
ENDBRANCH   5  10
ENDBRANCH   1   6
BRANCH   2  15
ATOM     15  C   LIG A   1      -7.541   1.423 125.995  0.00  0.00    +0.109 C 
BRANCH  15  16
ATOM     16  C   LIG A   1      -6.870   0.049 125.893  0.00  0.00    +0.054 C 
BRANCH  16  17
ATOM     17  C   LIG A   1      -7.761  -1.000 125.266  0.00  0.00    -0.046 A 
ATOM     18  C   LIG A   1      -8.611  -1.785 126.055  0.00  0.00    +0.007 A 
ATOM     19  C   LIG A   1      -9.442  -2.742 125.465  0.00  0.00    +0.045 A 
ATOM     20  C   LIG A   1      -9.427  -2.904 124.083  0.00  0.00    +0.117 A 
ATOM     21  C   LIG A   1      -8.601  -2.126 123.283  0.00  0.00    +0.045 A 
ATOM     22  C   LIG A   1      -7.764  -1.179 123.873  0.00  0.00    +0.007 A 
BRANCH  20  23
ATOM     23  O   LIG A   1     -10.216  -3.828 123.466  0.00  0.00    -0.507 OA
ATOM     24  H   LIG A   1      -9.705  -4.244 122.752  0.00  0.00    +0.292 HD
ENDBRANCH  20  23
ENDBRANCH  16  17
ENDBRANCH  15  16
ENDBRANCH   2  15
TORSDOF 7
ENDMDL
MODEL 3
REMARK VINA RESULT:      -7.5      1.886      2.504
REMARK  Name = NuBBE_1168
REMARK  7 active torsions:
REMARK  status: ('A' for Active; 'I' for Inactive)
REMARK    1  A    between atoms: O_1  and  C_2
REMARK    2  A    between atoms: C_5  and  C_8
REMARK    3  A    between atoms: C_9  and  C_10
REMARK    4  A    between atoms: N_11  and  C_12
REMARK    5  A    between atoms: C_12  and  C_13
REMARK    6  A    between atoms: C_13  and  C_14
REMARK    7  A    between atoms: C_17  and  O_20
REMARK                            x       y       z     vdW  Elec       q    Type
REMARK                         _______ _______ _______ _____ _____    ______ ____
ROOT
ATOM      1  C   LIG A   1      -8.890   2.235 124.011  0.00  0.00    +0.237 C 
ATOM      2  N   LIG A   1      -8.800   0.882 123.827  0.00  0.00    -0.311 N 
ATOM      3  O   LIG A   1      -9.246   2.774 125.053  0.00  0.00    -0.271 OA
ATOM      4  H   LIG A   1      -8.516   0.512 122.929  0.00  0.00    +0.149 HD
ENDROOT
BRANCH   1   6
ATOM      5  C   LIG A   1      -7.237   2.972 122.363  0.00  0.00    +0.013 C 
ATOM      6  C   LIG A   1      -8.504   3.001 122.802  0.00  0.00    +0.068 C 
BRANCH   5  10
ATOM      7  C   LIG A   1      -6.063   5.226 118.959  0.00  0.00    +0.117 A 
ATOM      8  C   LIG A   1      -7.331   4.653 118.997  0.00  0.00    +0.046 A 
ATOM      9  C   LIG A   1      -7.716   3.908 120.115  0.00  0.00    +0.011 A 
ATOM     10  C   LIG A   1      -6.831   3.736 121.186  0.00  0.00    -0.025 A 
ATOM     11  C   LIG A   1      -5.560   4.319 121.134  0.00  0.00    +0.011 A 
ATOM     12  C   LIG A   1      -5.177   5.064 120.019  0.00  0.00    +0.046 A 
BRANCH   7  13
ATOM     13  O   LIG A   1      -5.646   5.961 117.890  0.00  0.00    -0.507 OA
ATOM     14  H   LIG A   1      -4.871   5.526 117.498  0.00  0.00    +0.292 HD
ENDBRANCH   7  13
ENDBRANCH   5  10
ENDBRANCH   1   6
BRANCH   2  15
ATOM     15  C   LIG A   1      -9.128  -0.082 124.863  0.00  0.00    +0.109 C 
BRANCH  15  16
ATOM     16  C   LIG A   1      -7.916  -0.444 125.728  0.00  0.00    +0.054 C 
BRANCH  16  17
ATOM     17  C   LIG A   1      -7.097  -1.579 125.155  0.00  0.00    -0.046 A 
ATOM     18  C   LIG A   1      -7.662  -2.847 124.965  0.00  0.00    +0.007 A 
ATOM     19  C   LIG A   1      -6.902  -3.887 124.421  0.00  0.00    +0.045 A 
ATOM     20  C   LIG A   1      -5.579  -3.651 124.058  0.00  0.00    +0.117 A 
ATOM     21  C   LIG A   1      -5.007  -2.397 124.227  0.00  0.00    +0.045 A 
ATOM     22  C   LIG A   1      -5.762  -1.364 124.779  0.00  0.00    +0.007 A 
BRANCH  20  23
ATOM     23  O   LIG A   1      -4.800  -4.636 123.529  0.00  0.00    -0.507 OA
ATOM     24  H   LIG A   1      -3.981  -4.236 123.193  0.00  0.00    +0.292 HD
ENDBRANCH  20  23
ENDBRANCH  16  17
ENDBRANCH  15  16
ENDBRANCH   2  15
TORSDOF 7
ENDMDL
MODEL 4
REMARK VINA RESULT:      -7.0      9.192     11.170
REMARK  Name = NuBBE_1168
REMARK  7 active torsions:
REMARK  status: ('A' for Active; 'I' for Inactive)
REMARK    1  A    between atoms: O_1  and  C_2
REMARK    2  A    between atoms: C_5  and  C_8
REMARK    3  A    between atoms: C_9  and  C_10
REMARK    4  A    between atoms: N_11  and  C_12
REMARK    5  A    between atoms: C_12  and  C_13
REMARK    6  A    between atoms: C_13  and  C_14
REMARK    7  A    between atoms: C_17  and  O_20
REMARK                            x       y       z     vdW  Elec       q    Type
REMARK                         _______ _______ _______ _____ _____    ______ ____
ROOT
ATOM      1  C   LIG A   1      -9.584   5.768 131.358  0.00  0.00    +0.237 C 
ATOM      2  N   LIG A   1     -10.566   6.718 131.444  0.00  0.00    -0.311 N 
ATOM      3  O   LIG A   1      -9.787   4.562 131.286  0.00  0.00    -0.271 OA
ATOM      4  H   LIG A   1     -10.317   7.696 131.520  0.00  0.00    +0.149 HD
ENDROOT
BRANCH   1   6
ATOM      5  C   LIG A   1      -7.215   5.713 131.967  0.00  0.00    +0.013 C 
ATOM      6  C   LIG A   1      -8.223   6.355 131.360  0.00  0.00    +0.068 C 
BRANCH   5  10
ATOM      7  C   LIG A   1      -3.318   7.400 132.082  0.00  0.00    +0.117 A 
ATOM      8  C   LIG A   1      -4.112   7.589 130.956  0.00  0.00    +0.046 A 
ATOM      9  C   LIG A   1      -5.393   7.031 130.916  0.00  0.00    +0.011 A 
ATOM     10  C   LIG A   1      -5.870   6.283 131.999  0.00  0.00    -0.025 A 
ATOM     11  C   LIG A   1      -5.060   6.103 133.125  0.00  0.00    +0.011 A 
ATOM     12  C   LIG A   1      -3.782   6.662 133.166  0.00  0.00    +0.046 A 
BRANCH   7  13
ATOM     13  O   LIG A   1      -2.064   7.927 132.165  0.00  0.00    -0.507 OA
ATOM     14  H   LIG A   1      -2.120   8.796 132.594  0.00  0.00    +0.292 HD
ENDBRANCH   7  13
ENDBRANCH   5  10
ENDBRANCH   1   6
BRANCH   2  15
ATOM     15  C   LIG A   1     -11.982   6.394 131.464  0.00  0.00    +0.109 C 
BRANCH  15  16
ATOM     16  C   LIG A   1     -12.812   7.357 130.607  0.00  0.00    +0.054 C 
BRANCH  16  17
ATOM     17  C   LIG A   1     -12.288   7.497 129.196  0.00  0.00    -0.046 A 
ATOM     18  C   LIG A   1     -12.951   6.891 128.120  0.00  0.00    +0.007 A 
ATOM     19  C   LIG A   1     -12.467   7.038 126.817  0.00  0.00    +0.045 A 
ATOM     20  C   LIG A   1     -11.326   7.802 126.592  0.00  0.00    +0.117 A 
ATOM     21  C   LIG A   1     -10.663   8.420 127.644  0.00  0.00    +0.045 A 
ATOM     22  C   LIG A   1     -11.140   8.264 128.945  0.00  0.00    +0.007 A 
BRANCH  20  23
ATOM     23  O   LIG A   1     -10.816   7.968 125.338  0.00  0.00    -0.507 OA
ATOM     24  H   LIG A   1     -11.466   7.640 124.695  0.00  0.00    +0.292 HD
ENDBRANCH  20  23
ENDBRANCH  16  17
ENDBRANCH  15  16
ENDBRANCH   2  15
TORSDOF 7
ENDMDL
MODEL 5
REMARK VINA RESULT:      -7.0      2.384      3.320
REMARK  Name = NuBBE_1168
REMARK  7 active torsions:
REMARK  status: ('A' for Active; 'I' for Inactive)
REMARK    1  A    between atoms: O_1  and  C_2
REMARK    2  A    between atoms: C_5  and  C_8
REMARK    3  A    between atoms: C_9  and  C_10
REMARK    4  A    between atoms: N_11  and  C_12
REMARK    5  A    between atoms: C_12  and  C_13
REMARK    6  A    between atoms: C_13  and  C_14
REMARK    7  A    between atoms: C_17  and  O_20
REMARK                            x       y       z     vdW  Elec       q    Type
REMARK                         _______ _______ _______ _____ _____    ______ ____
ROOT
ATOM      1  C   LIG A   1      -8.524   0.076 123.747  0.00  0.00    +0.237 C 
ATOM      2  N   LIG A   1      -8.198  -1.186 123.329  0.00  0.00    -0.311 N 
ATOM      3  O   LIG A   1      -9.545   0.364 124.361  0.00  0.00    -0.271 OA
ATOM      4  H   LIG A   1      -7.344  -1.340 122.808  0.00  0.00    +0.149 HD
ENDROOT
BRANCH   1   6
ATOM      5  C   LIG A   1      -7.842   2.163 122.666  0.00  0.00    +0.013 C 
ATOM      6  C   LIG A   1      -7.498   1.080 123.379  0.00  0.00    +0.068 C 
BRANCH   5  10
ATOM      7  C   LIG A   1      -4.916   5.018 121.513  0.00  0.00    +0.117 A 
ATOM      8  C   LIG A   1      -5.004   4.629 122.846  0.00  0.00    +0.046 A 
ATOM      9  C   LIG A   1      -5.970   3.693 123.226  0.00  0.00    +0.011 A 
ATOM     10  C   LIG A   1      -6.843   3.155 122.274  0.00  0.00    -0.025 A 
ATOM     11  C   LIG A   1      -6.741   3.554 120.937  0.00  0.00    +0.011 A 
ATOM     12  C   LIG A   1      -5.776   4.488 120.557  0.00  0.00    +0.046 A 
BRANCH   7  13
ATOM     13  O   LIG A   1      -3.989   5.927 121.097  0.00  0.00    -0.507 OA
ATOM     14  H   LIG A   1      -3.264   5.948 121.742  0.00  0.00    +0.292 HD
ENDBRANCH   7  13
ENDBRANCH   5  10
ENDBRANCH   1   6
BRANCH   2  15
ATOM     15  C   LIG A   1      -9.044  -2.343 123.566  0.00  0.00    +0.109 C 
BRANCH  15  16
ATOM     16  C   LIG A   1      -8.293  -3.481 124.265  0.00  0.00    +0.054 C 
BRANCH  16  17
ATOM     17  C   LIG A   1      -8.009  -3.197 125.723  0.00  0.00    -0.046 A 
ATOM     18  C   LIG A   1      -6.894  -2.440 126.104  0.00  0.00    +0.007 A 
ATOM     19  C   LIG A   1      -6.648  -2.170 127.453  0.00  0.00    +0.045 A 
ATOM     20  C   LIG A   1      -7.527  -2.651 128.419  0.00  0.00    +0.117 A 
ATOM     21  C   LIG A   1      -8.645  -3.392 128.060  0.00  0.00    +0.045 A 
ATOM     22  C   LIG A   1      -8.884  -3.670 126.714  0.00  0.00    +0.007 A 
BRANCH  20  23
ATOM     23  O   LIG A   1      -7.323  -2.416 129.746  0.00  0.00    -0.507 OA
ATOM     24  H   LIG A   1      -7.950  -2.957 130.255  0.00  0.00    +0.292 HD
ENDBRANCH  20  23
ENDBRANCH  16  17
ENDBRANCH  15  16
ENDBRANCH   2  15
TORSDOF 7
ENDMDL
MODEL 6
REMARK VINA RESULT:      -6.9      7.233     10.075
REMARK  Name = NuBBE_1168
REMARK  7 active torsions:
REMARK  status: ('A' for Active; 'I' for Inactive)
REMARK    1  A    between atoms: O_1  and  C_2
REMARK    2  A    between atoms: C_5  and  C_8
REMARK    3  A    between atoms: C_9  and  C_10
REMARK    4  A    between atoms: N_11  and  C_12
REMARK    5  A    between atoms: C_12  and  C_13
REMARK    6  A    between atoms: C_13  and  C_14
REMARK    7  A    between atoms: C_17  and  O_20
REMARK                            x       y       z     vdW  Elec       q    Type
REMARK                         _______ _______ _______ _____ _____    ______ ____
ROOT
ATOM      1  C   LIG A   1      -4.474   6.644 131.503  0.00  0.00    +0.237 C 
ATOM      2  N   LIG A   1      -4.145   6.511 130.180  0.00  0.00    -0.311 N 
ATOM      3  O   LIG A   1      -3.681   6.927 132.393  0.00  0.00    -0.271 OA
ATOM      4  H   LIG A   1      -4.856   6.254 129.507  0.00  0.00    +0.149 HD
ENDROOT
BRANCH   1   6
ATOM      5  C   LIG A   1      -6.840   6.977 130.973  0.00  0.00    +0.013 C 
ATOM      6  C   LIG A   1      -5.915   6.406 131.757  0.00  0.00    +0.068 C 
BRANCH   5  10
ATOM      7  C   LIG A   1     -10.981   6.345 131.677  0.00  0.00    +0.117 A 
ATOM      8  C   LIG A   1     -10.576   6.984 130.509  0.00  0.00    +0.046 A 
ATOM      9  C   LIG A   1      -9.213   7.196 130.279  0.00  0.00    +0.011 A 
ATOM     10  C   LIG A   1      -8.266   6.773 131.219  0.00  0.00    -0.025 A 
ATOM     11  C   LIG A   1      -8.689   6.130 132.387  0.00  0.00    +0.011 A 
ATOM     12  C   LIG A   1     -10.049   5.917 132.616  0.00  0.00    +0.046 A 
BRANCH   7  13
ATOM     13  O   LIG A   1     -12.299   6.117 131.942  0.00  0.00    -0.507 OA
ATOM     14  H   LIG A   1     -12.835   6.631 131.316  0.00  0.00    +0.292 HD
ENDBRANCH   7  13
ENDBRANCH   5  10
ENDBRANCH   1   6
BRANCH   2  15
ATOM     15  C   LIG A   1      -2.794   6.691 129.678  0.00  0.00    +0.109 C 
BRANCH  15  16
ATOM     16  C   LIG A   1      -2.721   6.585 128.151  0.00  0.00    +0.054 C 
BRANCH  16  17
ATOM     17  C   LIG A   1      -3.106   5.217 127.634  0.00  0.00    -0.046 A 
ATOM     18  C   LIG A   1      -2.221   4.135 127.737  0.00  0.00    +0.007 A 
ATOM     19  C   LIG A   1      -2.591   2.871 127.269  0.00  0.00    +0.045 A 
ATOM     20  C   LIG A   1      -3.852   2.690 126.708  0.00  0.00    +0.117 A 
ATOM     21  C   LIG A   1      -4.746   3.747 126.609  0.00  0.00    +0.045 A 
ATOM     22  C   LIG A   1      -4.373   5.010 127.066  0.00  0.00    +0.007 A 
BRANCH  20  23
ATOM     23  O   LIG A   1      -4.252   1.476 126.234  0.00  0.00    -0.507 OA
ATOM     24  H   LIG A   1      -4.797   1.618 125.442  0.00  0.00    +0.292 HD
ENDBRANCH  20  23
ENDBRANCH  16  17
ENDBRANCH  15  16
ENDBRANCH   2  15
TORSDOF 7
ENDMDL
MODEL 7
REMARK VINA RESULT:      -6.8      2.363      2.998
REMARK  Name = NuBBE_1168
REMARK  7 active torsions:
REMARK  status: ('A' for Active; 'I' for Inactive)
REMARK    1  A    between atoms: O_1  and  C_2
REMARK    2  A    between atoms: C_5  and  C_8
REMARK    3  A    between atoms: C_9  and  C_10
REMARK    4  A    between atoms: N_11  and  C_12
REMARK    5  A    between atoms: C_12  and  C_13
REMARK    6  A    between atoms: C_13  and  C_14
REMARK    7  A    between atoms: C_17  and  O_20
REMARK                            x       y       z     vdW  Elec       q    Type
REMARK                         _______ _______ _______ _____ _____    ______ ____
ROOT
ATOM      1  C   LIG A   1      -8.599   2.194 124.243  0.00  0.00    +0.237 C 
ATOM      2  N   LIG A   1      -7.505   1.576 124.786  0.00  0.00    -0.311 N 
ATOM      3  O   LIG A   1      -9.743   2.085 124.670  0.00  0.00    -0.271 OA
ATOM      4  H   LIG A   1      -6.593   1.700 124.362  0.00  0.00    +0.149 HD
ENDROOT
BRANCH   1   6
ATOM      5  C   LIG A   1      -7.079   2.864 122.446  0.00  0.00    +0.013 C 
ATOM      6  C   LIG A   1      -8.257   3.026 123.065  0.00  0.00    +0.068 C 
BRANCH   5  10
ATOM      7  C   LIG A   1      -6.010   5.225 119.081  0.00  0.00    +0.117 A 
ATOM      8  C   LIG A   1      -5.101   5.068 120.123  0.00  0.00    +0.046 A 
ATOM      9  C   LIG A   1      -5.455   4.295 121.232  0.00  0.00    +0.011 A 
ATOM     10  C   LIG A   1      -6.714   3.687 121.295  0.00  0.00    -0.025 A 
ATOM     11  C   LIG A   1      -7.616   3.853 120.239  0.00  0.00    +0.011 A 
ATOM     12  C   LIG A   1      -7.263   4.624 119.131  0.00  0.00    +0.046 A 
BRANCH   7  13
ATOM     13  O   LIG A   1      -5.707   5.970 117.980  0.00  0.00    -0.507 OA
ATOM     14  H   LIG A   1      -5.679   6.906 118.236  0.00  0.00    +0.292 HD
ENDBRANCH   7  13
ENDBRANCH   5  10
ENDBRANCH   1   6
BRANCH   2  15
ATOM     15  C   LIG A   1      -7.580   0.703 125.945  0.00  0.00    +0.109 C 
BRANCH  15  16
ATOM     16  C   LIG A   1      -6.950  -0.669 125.684  0.00  0.00    +0.054 C 
BRANCH  16  17
ATOM     17  C   LIG A   1      -6.867  -1.528 126.925  0.00  0.00    -0.046 A 
ATOM     18  C   LIG A   1      -8.021  -2.082 127.494  0.00  0.00    +0.007 A 
ATOM     19  C   LIG A   1      -7.934  -2.888 128.633  0.00  0.00    +0.045 A 
ATOM     20  C   LIG A   1      -6.687  -3.146 129.195  0.00  0.00    +0.117 A 
ATOM     21  C   LIG A   1      -5.531  -2.617 128.638  0.00  0.00    +0.045 A 
ATOM     22  C   LIG A   1      -5.620  -1.804 127.508  0.00  0.00    +0.007 A 
BRANCH  20  23
ATOM     23  O   LIG A   1      -6.555  -3.922 130.308  0.00  0.00    -0.507 OA
ATOM     24  H   LIG A   1      -6.137  -3.391 131.007  0.00  0.00    +0.292 HD
ENDBRANCH  20  23
ENDBRANCH  16  17
ENDBRANCH  15  16
ENDBRANCH   2  15
TORSDOF 7
ENDMDL
MODEL 8
REMARK VINA RESULT:      -6.7      7.959      9.981
REMARK  Name = NuBBE_1168
REMARK  7 active torsions:
REMARK  status: ('A' for Active; 'I' for Inactive)
REMARK    1  A    between atoms: O_1  and  C_2
REMARK    2  A    between atoms: C_5  and  C_8
REMARK    3  A    between atoms: C_9  and  C_10
REMARK    4  A    between atoms: N_11  and  C_12
REMARK    5  A    between atoms: C_12  and  C_13
REMARK    6  A    between atoms: C_13  and  C_14
REMARK    7  A    between atoms: C_17  and  O_20
REMARK                            x       y       z     vdW  Elec       q    Type
REMARK                         _______ _______ _______ _____ _____    ______ ____
ROOT
ATOM      1  C   LIG A   1      -7.032   6.574 131.571  0.00  0.00    +0.237 C 
ATOM      2  N   LIG A   1      -5.819   6.983 131.086  0.00  0.00    -0.311 N 
ATOM      3  O   LIG A   1      -7.186   5.887 132.574  0.00  0.00    -0.271 OA
ATOM      4  H   LIG A   1      -5.774   7.534 130.238  0.00  0.00    +0.149 HD
ENDROOT
BRANCH   1   6
ATOM      5  C   LIG A   1      -9.420   6.683 131.043  0.00  0.00    +0.013 C 
ATOM      6  C   LIG A   1      -8.166   7.056 130.747  0.00  0.00    +0.068 C 
BRANCH   5  10
ATOM      7  C   LIG A   1     -12.705   7.946 128.665  0.00  0.00    +0.117 A 
ATOM      8  C   LIG A   1     -11.421   8.375 128.341  0.00  0.00    +0.046 A 
ATOM      9  C   LIG A   1     -10.341   7.962 129.126  0.00  0.00    +0.011 A 
ATOM     10  C   LIG A   1     -10.549   7.130 130.231  0.00  0.00    -0.025 A 
ATOM     11  C   LIG A   1     -11.846   6.706 130.543  0.00  0.00    +0.011 A 
ATOM     12  C   LIG A   1     -12.925   7.116 129.759  0.00  0.00    +0.046 A 
BRANCH   7  13
ATOM     13  O   LIG A   1     -13.788   8.322 127.927  0.00  0.00    -0.507 OA
ATOM     14  H   LIG A   1     -13.512   9.012 127.301  0.00  0.00    +0.292 HD
ENDBRANCH   7  13
ENDBRANCH   5  10
ENDBRANCH   1   6
BRANCH   2  15
ATOM     15  C   LIG A   1      -4.557   6.637 131.716  0.00  0.00    +0.109 C 
BRANCH  15  16
ATOM     16  C   LIG A   1      -3.371   6.763 130.754  0.00  0.00    +0.054 C 
BRANCH  16  17
ATOM     17  C   LIG A   1      -3.266   5.606 129.787  0.00  0.00    -0.046 A 
ATOM     18  C   LIG A   1      -2.623   5.757 128.551  0.00  0.00    +0.007 A 
ATOM     19  C   LIG A   1      -2.517   4.678 127.670  0.00  0.00    +0.045 A 
ATOM     20  C   LIG A   1      -3.048   3.443 128.033  0.00  0.00    +0.117 A 
ATOM     21  C   LIG A   1      -3.677   3.270 129.258  0.00  0.00    +0.045 A 
ATOM     22  C   LIG A   1      -3.792   4.351 130.132  0.00  0.00    +0.007 A 
BRANCH  20  23
ATOM     23  O   LIG A   1      -2.973   2.365 127.202  0.00  0.00    -0.507 OA
ATOM     24  H   LIG A   1      -2.335   1.733 127.573  0.00  0.00    +0.292 HD
ENDBRANCH  20  23
ENDBRANCH  16  17
ENDBRANCH  15  16
ENDBRANCH   2  15
TORSDOF 7
ENDMDL
MODEL 9
REMARK VINA RESULT:      -6.7      4.313      6.712
REMARK  Name = NuBBE_1168
REMARK  7 active torsions:
REMARK  status: ('A' for Active; 'I' for Inactive)
REMARK    1  A    between atoms: O_1  and  C_2
REMARK    2  A    between atoms: C_5  and  C_8
REMARK    3  A    between atoms: C_9  and  C_10
REMARK    4  A    between atoms: N_11  and  C_12
REMARK    5  A    between atoms: C_12  and  C_13
REMARK    6  A    between atoms: C_13  and  C_14
REMARK    7  A    between atoms: C_17  and  O_20
REMARK                            x       y       z     vdW  Elec       q    Type
REMARK                         _______ _______ _______ _____ _____    ______ ____
ROOT
ATOM      1  C   LIG A   1      -6.047   3.315 125.331  0.00  0.00    +0.237 C 
ATOM      2  N   LIG A   1      -4.812   3.189 125.907  0.00  0.00    -0.311 N 
ATOM      3  O   LIG A   1      -7.092   2.907 125.826  0.00  0.00    -0.271 OA
ATOM      4  H   LIG A   1      -3.992   3.535 125.425  0.00  0.00    +0.149 HD
ENDROOT
BRANCH   1   6
ATOM      5  C   LIG A   1      -6.146   3.312 122.885  0.00  0.00    +0.013 C 
ATOM      6  C   LIG A   1      -5.996   4.008 124.022  0.00  0.00    +0.068 C 
BRANCH   5  10
ATOM      7  C   LIG A   1      -5.938   5.198 119.085  0.00  0.00    +0.117 A 
ATOM      8  C   LIG A   1      -4.912   5.396 120.004  0.00  0.00    +0.046 A 
ATOM      9  C   LIG A   1      -4.982   4.778 121.256  0.00  0.00    +0.011 A 
ATOM     10  C   LIG A   1      -6.078   3.973 121.584  0.00  0.00    -0.025 A 
ATOM     11  C   LIG A   1      -7.102   3.783 120.649  0.00  0.00    +0.011 A 
ATOM     12  C   LIG A   1      -7.031   4.397 119.398  0.00  0.00    +0.046 A 
BRANCH   7  13
ATOM     13  O   LIG A   1      -5.911   5.779 117.852  0.00  0.00    -0.507 OA
ATOM     14  H   LIG A   1      -5.794   6.737 117.963  0.00  0.00    +0.292 HD
ENDBRANCH   7  13
ENDBRANCH   5  10
ENDBRANCH   1   6
BRANCH   2  15
ATOM     15  C   LIG A   1      -4.599   2.542 127.191  0.00  0.00    +0.109 C 
BRANCH  15  16
ATOM     16  C   LIG A   1      -3.184   2.775 127.733  0.00  0.00    +0.054 C 
BRANCH  16  17
ATOM     17  C   LIG A   1      -3.081   4.001 128.611  0.00  0.00    -0.046 A 
ATOM     18  C   LIG A   1      -3.563   3.985 129.927  0.00  0.00    +0.007 A 
ATOM     19  C   LIG A   1      -3.449   5.119 130.736  0.00  0.00    +0.045 A 
ATOM     20  C   LIG A   1      -2.843   6.265 130.230  0.00  0.00    +0.117 A 
ATOM     21  C   LIG A   1      -2.347   6.295 128.933  0.00  0.00    +0.045 A 
ATOM     22  C   LIG A   1      -2.470   5.167 128.122  0.00  0.00    +0.007 A 
BRANCH  20  23
ATOM     23  O   LIG A   1      -2.716   7.394 130.982  0.00  0.00    -0.507 OA
ATOM     24  H   LIG A   1      -2.533   7.135 131.901  0.00  0.00    +0.292 HD
ENDBRANCH  20  23
ENDBRANCH  16  17
ENDBRANCH  15  16
ENDBRANCH   2  15
TORSDOF 7
ENDMDL
