MODEL 1
REMARK VINA RESULT:      -8.5      0.000      0.000
REMARK  Name = NuBBE_1552
REMARK  15 active torsions:
REMARK  status: ('A' for Active; 'I' for Inactive)
REMARK    1  A    between atoms: O_1  and  C_2
REMARK    2  A    between atoms: C_3  and  O_5
REMARK    3  A    between atoms: C_7  and  O_22
REMARK    4  A    between atoms: C_9  and  C_19
REMARK    5  A    between atoms: C_10  and  C_12
REMARK    6  A    between atoms: C_12  and  O_14
REMARK    7  A    between atoms: C_12  and  C_15
REMARK    8  A    between atoms: C_15  and  O_16
REMARK    9  A    between atoms: O_16  and  C_17
REMARK   10  A    between atoms: O_22  and  C_23
REMARK   11  A    between atoms: C_23  and  C_24
REMARK   12  A    between atoms: C_26  and  O_27
REMARK   13  A    between atoms: C_28  and  C_45
REMARK   14  A    between atoms: C_29  and  C_31
REMARK   15  A    between atoms: C_43  and  C_44
REMARK                            x       y       z     vdW  Elec       q    Type
REMARK                         _______ _______ _______ _____ _____    ______ ____
ROOT
ATOM      1  C   LIG A   1      -6.233   1.625 131.483  0.00  0.00    +0.126 C 
ATOM      2  C   LIG A   1      -5.106   2.748 131.842  0.00  0.00    +0.163 C 
ATOM      3  C   LIG A   1      -5.619   3.887 132.781  0.00  0.00    +0.131 C 
ATOM      4  C   LIG A   1      -7.056   3.920 132.572  0.00  0.00    +0.132 C 
ATOM      5  C   LIG A   1      -6.698   4.717 130.994  0.00  0.00    +0.064 C 
ATOM      6  C   LIG A   1      -7.268   5.871 131.624  0.00  0.00    +0.037 C 
ATOM      7  C   LIG A   1      -8.722   4.944 131.489  0.00  0.00    +0.052 C 
ATOM      8  C   LIG A   1      -7.193   7.149 130.832  0.00  0.00    +0.019 C 
ATOM      9  C   LIG A   1      -5.811   5.527 132.536  0.00  0.00    +0.149 C 
ATOM     10  O   LIG A   1      -5.008   6.377 132.904  0.00  0.00    -0.296 OA
ATOM     11  C   LIG A   1      -5.793   0.565 130.346  0.00  0.00    +0.116 C 
ATOM     12  C   LIG A   1      -7.010  -0.299 129.834  0.00  0.00    +0.041 C 
ATOM     13  C   LIG A   1      -6.493  -1.319 128.769  0.00  0.00    +0.218 C 
ATOM     14  O   LIG A   1      -5.340  -2.053 129.235  0.00  0.00    -0.456 OA
ATOM     15  C   LIG A   1      -4.320  -1.452 129.874  0.00  0.00    +0.311 C 
ATOM     16  C   LIG A   1      -4.658  -0.337 130.825  0.00  0.00    +0.159 C 
ATOM     17  O   LIG A   1      -3.176  -1.881 129.774  0.00  0.00    -0.251 OA
ATOM     18  C   LIG A   1      -8.072   0.640 129.159  0.00  0.00    +0.014 C 
ATOM     19  C   LIG A   1      -8.067   2.104 129.642  0.00  0.00    +0.008 C 
ATOM     20  C   LIG A   1      -7.719   2.166 131.122  0.00  0.00    +0.036 C 
ATOM     21  C   LIG A   1      -8.285   3.360 131.994  0.00  0.00    +0.021 C 
ATOM     22  C   LIG A   1      -9.318   2.724 132.953  0.00  0.00    +0.016 C 
ATOM     23  C   LIG A   1      -7.659  -1.131 130.986  0.00  0.00    +0.018 C 
ENDROOT
BRANCH  13  24
ATOM     24  C   LIG A   1      -7.535  -2.311 128.291  0.00  0.00    +0.031 A 
ATOM     25  C   LIG A   1      -8.245  -2.293 127.106  0.00  0.00    +0.202 A 
ATOM     26  O   LIG A   1      -9.110  -3.337 127.036  0.00  0.00    -0.471 OA
ATOM     27  C   LIG A   1      -8.954  -4.059 128.174  0.00  0.00    +0.195 A 
ATOM     28  C   LIG A   1      -7.994  -3.485 128.972  0.00  0.00    +0.048 A 
ENDBRANCH  13  24
BRANCH   1  29
ATOM     29  O   LIG A   1      -6.432   0.912 132.730  0.00  0.00    -0.383 OA
ATOM     30  H   LIG A   1      -7.372   0.908 132.986  0.00  0.00    +0.210 HD
ENDBRANCH   1  29
BRANCH   2  31
ATOM     31  O   LIG A   1      -4.369   3.234 130.728  0.00  0.00    -0.388 OA
ATOM     32  H   LIG A   1      -4.553   2.660 129.955  0.00  0.00    +0.210 HD
ENDBRANCH   2  31
BRANCH  11  33
ATOM     33  O   LIG A   1      -5.282   1.351 129.238  0.00  0.00    -0.384 OA
ATOM     34  H   LIG A   1      -4.458   0.966 128.884  0.00  0.00    +0.210 HD
ENDBRANCH  11  33
BRANCH   7  35
ATOM     35  C   LIG A   1      -9.966   5.592 132.135  0.00  0.00    +0.227 C 
BRANCH  35  36
ATOM     36  O   LIG A   1      -9.638   6.388 133.255  0.00  0.00    -0.380 OA
ATOM     37  H   LIG A   1      -8.874   5.980 133.702  0.00  0.00    +0.210 HD
ENDBRANCH  35  36
BRANCH  35  38
ATOM     38  C   LIG A   1     -10.884   6.404 131.191  0.00  0.00    +0.336 C 
ATOM     39  O   LIG A   1     -10.619   6.852 130.104  0.00  0.00    -0.248 OA
BRANCH  38  40
ATOM     40  O   LIG A   1     -12.124   6.439 131.793  0.00  0.00    -0.466 OA
ATOM     41  C   LIG A   1     -12.935   7.568 131.465  0.00  0.00    +0.280 C 
ENDBRANCH  38  40
ENDBRANCH  35  38
ENDBRANCH   7  35
BRANCH   4  42
ATOM     42  O   LIG A   1      -7.556   4.706 133.763  0.00  0.00    -0.457 OA
BRANCH  42  43
ATOM     43  C   LIG A   1      -7.105   4.479 135.029  0.00  0.00    +0.304 C 
ATOM     44  C   LIG A   1      -7.442   5.631 135.938  0.00  0.00    +0.136 C 
ATOM     45  O   LIG A   1      -6.521   3.466 135.386  0.00  0.00    -0.251 OA
ENDBRANCH  42  43
ENDBRANCH   4  42
TORSDOF 10
ENDMDL
MODEL 2
REMARK VINA RESULT:      -8.3      1.858      8.098
REMARK  Name = NuBBE_1552
REMARK  15 active torsions:
REMARK  status: ('A' for Active; 'I' for Inactive)
REMARK    1  A    between atoms: O_1  and  C_2
REMARK    2  A    between atoms: C_3  and  O_5
REMARK    3  A    between atoms: C_7  and  O_22
REMARK    4  A    between atoms: C_9  and  C_19
REMARK    5  A    between atoms: C_10  and  C_12
REMARK    6  A    between atoms: C_12  and  O_14
REMARK    7  A    between atoms: C_12  and  C_15
REMARK    8  A    between atoms: C_15  and  O_16
REMARK    9  A    between atoms: O_16  and  C_17
REMARK   10  A    between atoms: O_22  and  C_23
REMARK   11  A    between atoms: C_23  and  C_24
REMARK   12  A    between atoms: C_26  and  O_27
REMARK   13  A    between atoms: C_28  and  C_45
REMARK   14  A    between atoms: C_29  and  C_31
REMARK   15  A    between atoms: C_43  and  C_44
REMARK                            x       y       z     vdW  Elec       q    Type
REMARK                         _______ _______ _______ _____ _____    ______ ____
ROOT
ATOM      1  C   LIG A   1      -7.092   1.282 131.267  0.00  0.00    +0.126 C 
ATOM      2  C   LIG A   1      -7.083  -0.116 132.109  0.00  0.00    +0.163 C 
ATOM      3  C   LIG A   1      -6.241  -1.253 131.444  0.00  0.00    +0.131 C 
ATOM      4  C   LIG A   1      -6.215  -0.917 130.031  0.00  0.00    +0.132 C 
ATOM      5  C   LIG A   1      -7.926  -1.485 129.977  0.00  0.00    +0.064 C 
ATOM      6  C   LIG A   1      -7.379  -2.569 129.216  0.00  0.00    +0.037 C 
ATOM      7  C   LIG A   1      -7.143  -1.324 128.039  0.00  0.00    +0.052 C 
ATOM      8  C   LIG A   1      -8.343  -3.672 128.866  0.00  0.00    +0.019 C 
ATOM      9  C   LIG A   1      -6.678  -2.735 130.815  0.00  0.00    +0.149 C 
ATOM     10  O   LIG A   1      -6.569  -3.798 131.415  0.00  0.00    -0.296 OA
ATOM     11  C   LIG A   1      -8.126   2.395 131.816  0.00  0.00    +0.116 C 
ATOM     12  C   LIG A   1      -8.306   3.591 130.804  0.00  0.00    +0.041 C 
ATOM     13  C   LIG A   1      -9.289   4.636 131.427  0.00  0.00    +0.218 C 
ATOM     14  O   LIG A   1      -8.919   4.992 132.776  0.00  0.00    -0.456 OA
ATOM     15  C   LIG A   1      -8.545   4.069 133.681  0.00  0.00    +0.311 C 
ATOM     16  C   LIG A   1      -7.718   2.913 133.194  0.00  0.00    +0.159 C 
ATOM     17  O   LIG A   1      -8.770   4.234 134.876  0.00  0.00    -0.251 OA
ATOM     18  C   LIG A   1      -8.923   3.055 129.463  0.00  0.00    +0.014 C 
ATOM     19  C   LIG A   1      -8.657   1.568 129.157  0.00  0.00    +0.008 C 
ATOM     20  C   LIG A   1      -7.277   1.169 129.660  0.00  0.00    +0.036 C 
ATOM     21  C   LIG A   1      -6.500   0.003 128.922  0.00  0.00    +0.021 C 
ATOM     22  C   LIG A   1      -5.306   0.681 128.211  0.00  0.00    +0.016 C 
ATOM     23  C   LIG A   1      -6.959   4.335 130.535  0.00  0.00    +0.018 C 
ENDROOT
BRANCH  13  24
ATOM     24  C   LIG A   1      -9.446   5.909 130.619  0.00  0.00    +0.031 A 
ATOM     25  C   LIG A   1      -8.637   7.029 130.631  0.00  0.00    +0.202 A 
ATOM     26  O   LIG A   1      -9.108   7.984 129.788  0.00  0.00    -0.471 OA
ATOM     27  C   LIG A   1     -10.224   7.482 129.203  0.00  0.00    +0.195 A 
ATOM     28  C   LIG A   1     -10.470   6.211 129.664  0.00  0.00    +0.048 A 
ENDBRANCH  13  24
BRANCH   1  29
ATOM     29  O   LIG A   1      -5.742   1.791 131.412  0.00  0.00    -0.383 OA
ATOM     30  H   LIG A   1      -5.644   2.294 132.240  0.00  0.00    +0.210 HD
ENDBRANCH   1  29
BRANCH   2  31
ATOM     31  O   LIG A   1      -8.359  -0.555 132.554  0.00  0.00    -0.388 OA
ATOM     32  H   LIG A   1      -9.046  -0.155 131.980  0.00  0.00    +0.210 HD
ENDBRANCH   2  31
BRANCH  11  33
ATOM     33  O   LIG A   1      -9.401   1.719 131.970  0.00  0.00    -0.384 OA
ATOM     34  H   LIG A   1      -9.786   1.890 132.850  0.00  0.00    +0.210 HD
ENDBRANCH  11  33
BRANCH   7  35
ATOM     35  C   LIG A   1      -6.400  -1.772 126.762  0.00  0.00    +0.227 C 
BRANCH  35  36
ATOM     36  O   LIG A   1      -5.420  -2.754 127.026  0.00  0.00    -0.380 OA
ATOM     37  H   LIG A   1      -5.556  -3.079 127.935  0.00  0.00    +0.210 HD
ENDBRANCH  35  36
BRANCH  35  38
ATOM     38  C   LIG A   1      -7.284  -2.246 125.585  0.00  0.00    +0.336 C 
ATOM     39  O   LIG A   1      -6.950  -2.875 124.614  0.00  0.00    -0.248 OA
BRANCH  38  40
ATOM     40  O   LIG A   1      -8.578  -1.893 125.907  0.00  0.00    -0.466 OA
ATOM     41  C   LIG A   1      -9.579  -2.855 125.570  0.00  0.00    +0.280 C 
ENDBRANCH  38  40
ENDBRANCH  35  38
ENDBRANCH   7  35
BRANCH   4  42
ATOM     42  O   LIG A   1      -5.080  -1.764 129.501  0.00  0.00    -0.457 OA
BRANCH  42  43
ATOM     43  C   LIG A   1      -3.830  -1.733 130.044  0.00  0.00    +0.304 C 
ATOM     44  C   LIG A   1      -3.045  -2.959 129.663  0.00  0.00    +0.136 C 
ATOM     45  O   LIG A   1      -3.396  -0.822 130.734  0.00  0.00    -0.251 OA
ENDBRANCH  42  43
ENDBRANCH   4  42
TORSDOF 10
ENDMDL
MODEL 3
REMARK VINA RESULT:      -8.1      3.999      5.823
REMARK  Name = NuBBE_1552
REMARK  15 active torsions:
REMARK  status: ('A' for Active; 'I' for Inactive)
REMARK    1  A    between atoms: O_1  and  C_2
REMARK    2  A    between atoms: C_3  and  O_5
REMARK    3  A    between atoms: C_7  and  O_22
REMARK    4  A    between atoms: C_9  and  C_19
REMARK    5  A    between atoms: C_10  and  C_12
REMARK    6  A    between atoms: C_12  and  O_14
REMARK    7  A    between atoms: C_12  and  C_15
REMARK    8  A    between atoms: C_15  and  O_16
REMARK    9  A    between atoms: O_16  and  C_17
REMARK   10  A    between atoms: O_22  and  C_23
REMARK   11  A    between atoms: C_23  and  C_24
REMARK   12  A    between atoms: C_26  and  O_27
REMARK   13  A    between atoms: C_28  and  C_45
REMARK   14  A    between atoms: C_29  and  C_31
REMARK   15  A    between atoms: C_43  and  C_44
REMARK                            x       y       z     vdW  Elec       q    Type
REMARK                         _______ _______ _______ _____ _____    ______ ____
ROOT
ATOM      1  C   LIG A   1      -7.561   1.751 127.534  0.00  0.00    +0.126 C 
ATOM      2  C   LIG A   1      -7.159   0.755 128.762  0.00  0.00    +0.163 C 
ATOM      3  C   LIG A   1      -7.374   1.375 130.181  0.00  0.00    +0.131 C 
ATOM      4  C   LIG A   1      -7.305   2.811 129.971  0.00  0.00    +0.132 C 
ATOM      5  C   LIG A   1      -5.523   2.589 129.805  0.00  0.00    +0.064 C 
ATOM      6  C   LIG A   1      -5.476   3.275 131.062  0.00  0.00    +0.037 C 
ATOM      7  C   LIG A   1      -5.988   4.613 130.092  0.00  0.00    +0.052 C 
ATOM      8  C   LIG A   1      -4.116   3.372 131.702  0.00  0.00    +0.019 C 
ATOM      9  C   LIG A   1      -6.301   1.765 131.397  0.00  0.00    +0.149 C 
ATOM     10  O   LIG A   1      -6.082   1.059 132.375  0.00  0.00    -0.296 OA
ATOM     11  C   LIG A   1      -7.143   1.218 126.067  0.00  0.00    +0.116 C 
ATOM     12  C   LIG A   1      -7.285   2.336 124.965  0.00  0.00    +0.041 C 
ATOM     13  C   LIG A   1      -6.899   1.730 123.576  0.00  0.00    +0.218 C 
ATOM     14  O   LIG A   1      -7.587   0.487 123.317  0.00  0.00    -0.456 OA
ATOM     15  C   LIG A   1      -7.711  -0.470 124.254  0.00  0.00    +0.311 C 
ATOM     16  C   LIG A   1      -7.934  -0.028 125.674  0.00  0.00    +0.159 C 
ATOM     17  O   LIG A   1      -7.761  -1.655 123.940  0.00  0.00    -0.251 OA
ATOM     18  C   LIG A   1      -6.304   3.519 125.288  0.00  0.00    +0.014 C 
ATOM     19  C   LIG A   1      -5.917   3.674 126.772  0.00  0.00    +0.008 C 
ATOM     20  C   LIG A   1      -7.094   3.299 127.662  0.00  0.00    +0.036 C 
ATOM     21  C   LIG A   1      -7.228   3.980 129.085  0.00  0.00    +0.021 C 
ATOM     22  C   LIG A   1      -8.463   4.906 128.991  0.00  0.00    +0.016 C 
ATOM     23  C   LIG A   1      -8.754   2.854 124.844  0.00  0.00    +0.018 C 
ENDROOT
BRANCH  13  24
ATOM     24  C   LIG A   1      -7.124   2.659 122.400  0.00  0.00    +0.031 A 
ATOM     25  C   LIG A   1      -8.327   3.067 121.856  0.00  0.00    +0.202 A 
ATOM     26  O   LIG A   1      -8.131   3.886 120.792  0.00  0.00    -0.471 OA
ATOM     27  C   LIG A   1      -6.792   4.035 120.645  0.00  0.00    +0.195 A 
ATOM     28  C   LIG A   1      -6.127   3.317 121.610  0.00  0.00    +0.048 A 
ENDBRANCH  13  24
BRANCH   1  29
ATOM     29  O   LIG A   1      -9.007   1.832 127.603  0.00  0.00    -0.383 OA
ATOM     30  H   LIG A   1      -9.374   1.111 128.146  0.00  0.00    +0.210 HD
ENDBRANCH   1  29
BRANCH   2  31
ATOM     31  O   LIG A   1      -5.901   0.110 128.622  0.00  0.00    -0.388 OA
ATOM     32  H   LIG A   1      -5.508  -0.012 129.512  0.00  0.00    +0.210 HD
ENDBRANCH   2  31
BRANCH  11  33
ATOM     33  O   LIG A   1      -5.748   0.831 126.161  0.00  0.00    -0.384 OA
ATOM     34  H   LIG A   1      -5.428   0.885 127.082  0.00  0.00    +0.210 HD
ENDBRANCH  11  33
BRANCH   7  35
ATOM     35  C   LIG A   1      -6.285   5.908 130.879  0.00  0.00    +0.227 C 
BRANCH  35  36
ATOM     36  O   LIG A   1      -6.845   5.649 132.150  0.00  0.00    -0.380 OA
ATOM     37  H   LIG A   1      -6.880   6.490 132.641  0.00  0.00    +0.210 HD
ENDBRANCH  35  36
BRANCH  35  38
ATOM     38  C   LIG A   1      -5.108   6.898 131.039  0.00  0.00    +0.336 C 
ATOM     39  O   LIG A   1      -4.337   6.990 131.960  0.00  0.00    -0.248 OA
BRANCH  38  40
ATOM     40  O   LIG A   1      -5.039   7.610 129.860  0.00  0.00    -0.466 OA
ATOM     41  C   LIG A   1      -3.792   7.530 129.167  0.00  0.00    +0.280 C 
ENDBRANCH  38  40
ENDBRANCH  35  38
ENDBRANCH   7  35
BRANCH   4  42
ATOM     42  O   LIG A   1      -7.921   3.370 131.235  0.00  0.00    -0.457 OA
BRANCH  42  43
ATOM     43  C   LIG A   1      -9.154   2.992 131.674  0.00  0.00    +0.304 C 
ATOM     44  C   LIG A   1      -9.185   2.888 133.175  0.00  0.00    +0.136 C 
ATOM     45  O   LIG A   1     -10.116   2.784 130.948  0.00  0.00    -0.251 OA
ENDBRANCH  42  43
ENDBRANCH   4  42
TORSDOF 10
ENDMDL
MODEL 4
REMARK VINA RESULT:      -8.1      4.685      8.110
REMARK  Name = NuBBE_1552
REMARK  15 active torsions:
REMARK  status: ('A' for Active; 'I' for Inactive)
REMARK    1  A    between atoms: O_1  and  C_2
REMARK    2  A    between atoms: C_3  and  O_5
REMARK    3  A    between atoms: C_7  and  O_22
REMARK    4  A    between atoms: C_9  and  C_19
REMARK    5  A    between atoms: C_10  and  C_12
REMARK    6  A    between atoms: C_12  and  O_14
REMARK    7  A    between atoms: C_12  and  C_15
REMARK    8  A    between atoms: C_15  and  O_16
REMARK    9  A    between atoms: O_16  and  C_17
REMARK   10  A    between atoms: O_22  and  C_23
REMARK   11  A    between atoms: C_23  and  C_24
REMARK   12  A    between atoms: C_26  and  O_27
REMARK   13  A    between atoms: C_28  and  C_45
REMARK   14  A    between atoms: C_29  and  C_31
REMARK   15  A    between atoms: C_43  and  C_44
REMARK                            x       y       z     vdW  Elec       q    Type
REMARK                         _______ _______ _______ _____ _____    ______ ____
ROOT
ATOM      1  C   LIG A   1      -6.262  -2.056 128.278  0.00  0.00    +0.126 C 
ATOM      2  C   LIG A   1      -7.419  -2.876 127.471  0.00  0.00    +0.163 C 
ATOM      3  C   LIG A   1      -7.537  -2.489 125.961  0.00  0.00    +0.131 C 
ATOM      4  C   LIG A   1      -7.004  -1.140 125.882  0.00  0.00    +0.132 C 
ATOM      5  C   LIG A   1      -8.550  -0.604 126.642  0.00  0.00    +0.064 C 
ATOM      6  C   LIG A   1      -8.809  -0.040 125.351  0.00  0.00    +0.037 C 
ATOM      7  C   LIG A   1      -7.532   1.031 125.814  0.00  0.00    +0.052 C 
ATOM      8  C   LIG A   1     -10.177   0.562 125.166  0.00  0.00    +0.019 C 
ATOM      9  C   LIG A   1      -8.768  -1.773 125.091  0.00  0.00    +0.149 C 
ATOM     10  O   LIG A   1      -9.570  -2.389 124.399  0.00  0.00    -0.296 OA
ATOM     11  C   LIG A   1      -6.268  -2.278 129.878  0.00  0.00    +0.116 C 
ATOM     12  C   LIG A   1      -5.338  -1.247 130.626  0.00  0.00    +0.041 C 
ATOM     13  C   LIG A   1      -5.371  -1.554 132.158  0.00  0.00    +0.218 C 
ATOM     14  O   LIG A   1      -5.131  -2.950 132.437  0.00  0.00    -0.456 OA
ATOM     15  C   LIG A   1      -5.715  -3.932 131.726  0.00  0.00    +0.311 C 
ATOM     16  C   LIG A   1      -5.891  -3.710 130.250  0.00  0.00    +0.159 C 
ATOM     17  O   LIG A   1      -5.980  -5.011 132.246  0.00  0.00    -0.251 OA
ATOM     18  C   LIG A   1      -5.875   0.210 130.391  0.00  0.00    +0.014 C 
ATOM     19  C   LIG A   1      -6.700   0.415 129.106  0.00  0.00    +0.008 C 
ATOM     20  C   LIG A   1      -6.155  -0.464 127.988  0.00  0.00    +0.036 C 
ATOM     21  C   LIG A   1      -6.323   0.012 126.487  0.00  0.00    +0.021 C 
ATOM     22  C   LIG A   1      -4.898   0.357 125.996  0.00  0.00    +0.016 C 
ATOM     23  C   LIG A   1      -3.849  -1.368 130.168  0.00  0.00    +0.018 C 
ENDROOT
BRANCH  13  24
ATOM     24  C   LIG A   1      -4.411  -0.725 132.987  0.00  0.00    +0.031 A 
ATOM     25  C   LIG A   1      -3.207  -1.118 133.540  0.00  0.00    +0.202 A 
ATOM     26  O   LIG A   1      -2.633  -0.105 134.238  0.00  0.00    -0.471 OA
ATOM     27  C   LIG A   1      -3.455   0.969 134.128  0.00  0.00    +0.195 A 
ATOM     28  C   LIG A   1      -4.551   0.651 133.362  0.00  0.00    +0.048 A 
ENDBRANCH  13  24
BRANCH   1  29
ATOM     29  O   LIG A   1      -5.019  -2.576 127.742  0.00  0.00    -0.383 OA
ATOM     30  H   LIG A   1      -4.701  -3.333 128.266  0.00  0.00    +0.210 HD
ENDBRANCH   1  29
BRANCH   2  31
ATOM     31  O   LIG A   1      -8.676  -2.942 128.129  0.00  0.00    -0.388 OA
ATOM     32  H   LIG A   1      -8.550  -3.359 129.007  0.00  0.00    +0.210 HD
ENDBRANCH   2  31
BRANCH  11  33
ATOM     33  O   LIG A   1      -7.637  -2.066 130.309  0.00  0.00    -0.384 OA
ATOM     34  H   LIG A   1      -8.271  -2.353 129.624  0.00  0.00    +0.210 HD
ENDBRANCH  11  33
BRANCH   7  35
ATOM     35  C   LIG A   1      -7.105   2.039 124.725  0.00  0.00    +0.227 C 
BRANCH  35  36
ATOM     36  O   LIG A   1      -7.306   1.538 123.419  0.00  0.00    -0.380 OA
ATOM     37  H   LIG A   1      -8.142   1.037 123.414  0.00  0.00    +0.210 HD
ENDBRANCH  35  36
BRANCH  35  38
ATOM     38  C   LIG A   1      -7.721   3.455 124.822  0.00  0.00    +0.336 C 
ATOM     39  O   LIG A   1      -8.830   3.757 125.182  0.00  0.00    -0.248 OA
BRANCH  38  40
ATOM     40  O   LIG A   1      -6.709   4.338 124.508  0.00  0.00    -0.466 OA
ATOM     41  C   LIG A   1      -5.451   4.079 125.133  0.00  0.00    +0.280 C 
ENDBRANCH  38  40
ENDBRANCH  35  38
ENDBRANCH   7  35
BRANCH   4  42
ATOM     42  O   LIG A   1      -6.744  -0.963 124.403  0.00  0.00    -0.457 OA
BRANCH  42  43
ATOM     43  C   LIG A   1      -5.946  -1.811 123.695  0.00  0.00    +0.304 C 
ATOM     44  C   LIG A   1      -6.413  -1.930 122.269  0.00  0.00    +0.136 C 
ATOM     45  O   LIG A   1      -4.967  -2.384 124.151  0.00  0.00    -0.251 OA
ENDBRANCH  42  43
ENDBRANCH   4  42
TORSDOF 10
ENDMDL
MODEL 5
REMARK VINA RESULT:      -8.1      3.259      5.656
REMARK  Name = NuBBE_1552
REMARK  15 active torsions:
REMARK  status: ('A' for Active; 'I' for Inactive)
REMARK    1  A    between atoms: O_1  and  C_2
REMARK    2  A    between atoms: C_3  and  O_5
REMARK    3  A    between atoms: C_7  and  O_22
REMARK    4  A    between atoms: C_9  and  C_19
REMARK    5  A    between atoms: C_10  and  C_12
REMARK    6  A    between atoms: C_12  and  O_14
REMARK    7  A    between atoms: C_12  and  C_15
REMARK    8  A    between atoms: C_15  and  O_16
REMARK    9  A    between atoms: O_16  and  C_17
REMARK   10  A    between atoms: O_22  and  C_23
REMARK   11  A    between atoms: C_23  and  C_24
REMARK   12  A    between atoms: C_26  and  O_27
REMARK   13  A    between atoms: C_28  and  C_45
REMARK   14  A    between atoms: C_29  and  C_31
REMARK   15  A    between atoms: C_43  and  C_44
REMARK                            x       y       z     vdW  Elec       q    Type
REMARK                         _______ _______ _______ _____ _____    ______ ____
ROOT
ATOM      1  C   LIG A   1      -6.621   2.595 126.862  0.00  0.00    +0.126 C 
ATOM      2  C   LIG A   1      -6.722   4.170 127.280  0.00  0.00    +0.163 C 
ATOM      3  C   LIG A   1      -5.895   4.544 128.552  0.00  0.00    +0.131 C 
ATOM      4  C   LIG A   1      -5.773   3.301 129.294  0.00  0.00    +0.132 C 
ATOM      5  C   LIG A   1      -7.501   3.534 129.754  0.00  0.00    +0.064 C 
ATOM      6  C   LIG A   1      -6.960   3.781 131.057  0.00  0.00    +0.037 C 
ATOM      7  C   LIG A   1      -6.603   2.090 130.980  0.00  0.00    +0.052 C 
ATOM      8  C   LIG A   1      -7.951   4.226 132.100  0.00  0.00    +0.019 C 
ATOM      9  C   LIG A   1      -6.361   5.091 130.058  0.00  0.00    +0.149 C 
ATOM     10  O   LIG A   1      -6.333   6.267 130.403  0.00  0.00    -0.296 OA
ATOM     11  C   LIG A   1      -7.635   2.141 125.689  0.00  0.00    +0.116 C 
ATOM     12  C   LIG A   1      -7.703   0.573 125.535  0.00  0.00    +0.041 C 
ATOM     13  C   LIG A   1      -8.672   0.222 124.360  0.00  0.00    +0.218 C 
ATOM     14  O   LIG A   1      -8.366   0.968 123.162  0.00  0.00    -0.456 OA
ATOM     15  C   LIG A   1      -8.086   2.284 123.192  0.00  0.00    +0.311 C 
ATOM     16  C   LIG A   1      -7.284   2.797 124.355  0.00  0.00    +0.159 C 
ATOM     17  O   LIG A   1      -8.371   3.008 122.244  0.00  0.00    -0.251 OA
ATOM     18  C   LIG A   1      -8.265  -0.059 126.858  0.00  0.00    +0.014 C 
ATOM     19  C   LIG A   1      -8.049   0.774 128.137  0.00  0.00    +0.008 C 
ATOM     20  C   LIG A   1      -6.719   1.510 128.063  0.00  0.00    +0.036 C 
ATOM     21  C   LIG A   1      -5.953   1.847 129.407  0.00  0.00    +0.021 C 
ATOM     22  C   LIG A   1      -4.691   0.954 129.405  0.00  0.00    +0.016 C 
ATOM     23  C   LIG A   1      -6.311  -0.039 125.177  0.00  0.00    +0.018 C 
ENDROOT
BRANCH  13  24
ATOM     24  C   LIG A   1      -8.727  -1.251 124.009  0.00  0.00    +0.031 A 
ATOM     25  C   LIG A   1      -8.416  -1.850 122.803  0.00  0.00    +0.202 A 
ATOM     26  O   LIG A   1      -8.608  -3.193 122.858  0.00  0.00    -0.471 OA
ATOM     27  C   LIG A   1      -9.029  -3.483 124.114  0.00  0.00    +0.195 A 
ATOM     28  C   LIG A   1      -9.107  -2.335 124.865  0.00  0.00    +0.048 A 
ENDBRANCH  13  24
BRANCH   1  29
ATOM     29  O   LIG A   1      -5.261   2.443 126.384  0.00  0.00    -0.383 OA
ATOM     30  H   LIG A   1      -5.072   1.515 126.153  0.00  0.00    +0.210 HD
ENDBRANCH   1  29
BRANCH   2  31
ATOM     31  O   LIG A   1      -8.040   4.701 127.296  0.00  0.00    -0.388 OA
ATOM     32  H   LIG A   1      -8.617   4.125 126.752  0.00  0.00    +0.210 HD
ENDBRANCH   2  31
BRANCH  11  33
ATOM     33  O   LIG A   1      -8.945   2.629 126.077  0.00  0.00    -0.384 OA
ATOM     34  H   LIG A   1      -9.132   2.429 127.014  0.00  0.00    +0.210 HD
ENDBRANCH  11  33
BRANCH   7  35
ATOM     35  C   LIG A   1      -5.808   1.540 132.184  0.00  0.00    +0.227 C 
BRANCH  35  36
ATOM     36  O   LIG A   1      -4.956   2.512 132.755  0.00  0.00    -0.380 OA
ATOM     37  H   LIG A   1      -4.152   2.568 132.205  0.00  0.00    +0.210 HD
ENDBRANCH  35  36
BRANCH  35  38
ATOM     38  C   LIG A   1      -6.638   0.876 133.307  0.00  0.00    +0.336 C 
ATOM     39  O   LIG A   1      -6.379   0.815 134.482  0.00  0.00    -0.248 OA
BRANCH  38  40
ATOM     40  O   LIG A   1      -7.807   0.442 132.718  0.00  0.00    -0.466 OA
ATOM     41  C   LIG A   1      -7.912  -0.971 132.529  0.00  0.00    +0.280 C 
ENDBRANCH  38  40
ENDBRANCH  35  38
ENDBRANCH   7  35
BRANCH   4  42
ATOM     42  O   LIG A   1      -4.648   3.591 130.262  0.00  0.00    -0.457 OA
BRANCH  42  43
ATOM     43  C   LIG A   1      -3.435   4.059 129.853  0.00  0.00    +0.304 C 
ATOM     44  C   LIG A   1      -2.777   4.873 130.934  0.00  0.00    +0.136 C 
ATOM     45  O   LIG A   1      -2.937   3.832 128.760  0.00  0.00    -0.251 OA
ENDBRANCH  42  43
ENDBRANCH   4  42
TORSDOF 10
ENDMDL
MODEL 6
REMARK VINA RESULT:      -7.9      2.660      7.750
REMARK  Name = NuBBE_1552
REMARK  15 active torsions:
REMARK  status: ('A' for Active; 'I' for Inactive)
REMARK    1  A    between atoms: O_1  and  C_2
REMARK    2  A    between atoms: C_3  and  O_5
REMARK    3  A    between atoms: C_7  and  O_22
REMARK    4  A    between atoms: C_9  and  C_19
REMARK    5  A    between atoms: C_10  and  C_12
REMARK    6  A    between atoms: C_12  and  O_14
REMARK    7  A    between atoms: C_12  and  C_15
REMARK    8  A    between atoms: C_15  and  O_16
REMARK    9  A    between atoms: O_16  and  C_17
REMARK   10  A    between atoms: O_22  and  C_23
REMARK   11  A    between atoms: C_23  and  C_24
REMARK   12  A    between atoms: C_26  and  O_27
REMARK   13  A    between atoms: C_28  and  C_45
REMARK   14  A    between atoms: C_29  and  C_31
REMARK   15  A    between atoms: C_43  and  C_44
REMARK                            x       y       z     vdW  Elec       q    Type
REMARK                         _______ _______ _______ _____ _____    ______ ____
ROOT
ATOM      1  C   LIG A   1      -6.526   1.012 130.043  0.00  0.00    +0.126 C 
ATOM      2  C   LIG A   1      -5.198   0.324 129.391  0.00  0.00    +0.163 C 
ATOM      3  C   LIG A   1      -4.910  -1.121 129.910  0.00  0.00    +0.131 C 
ATOM      4  C   LIG A   1      -5.551  -1.181 131.213  0.00  0.00    +0.132 C 
ATOM      5  C   LIG A   1      -4.181  -0.170 131.810  0.00  0.00    +0.064 C 
ATOM      6  C   LIG A   1      -3.801  -1.367 132.498  0.00  0.00    +0.037 C 
ATOM      7  C   LIG A   1      -5.224  -1.019 133.418  0.00  0.00    +0.052 C 
ATOM      8  C   LIG A   1      -2.483  -1.310 133.225  0.00  0.00    +0.019 C 
ATOM      9  C   LIG A   1      -3.644  -1.752 130.795  0.00  0.00    +0.149 C 
ATOM     10  O   LIG A   1      -2.700  -2.363 130.308  0.00  0.00    -0.296 OA
ATOM     11  C   LIG A   1      -6.720   2.577 129.690  0.00  0.00    +0.116 C 
ATOM     12  C   LIG A   1      -7.836   3.253 130.575  0.00  0.00    +0.041 C 
ATOM     13  C   LIG A   1      -7.985   4.749 130.146  0.00  0.00    +0.218 C 
ATOM     14  O   LIG A   1      -8.130   4.891 128.716  0.00  0.00    -0.456 OA
ATOM     15  C   LIG A   1      -7.364   4.205 127.848  0.00  0.00    +0.311 C 
ATOM     16  C   LIG A   1      -7.009   2.789 128.206  0.00  0.00    +0.159 C 
ATOM     17  O   LIG A   1      -7.073   4.679 126.755  0.00  0.00    -0.251 OA
ATOM     18  C   LIG A   1      -7.411   3.202 132.086  0.00  0.00    +0.014 C 
ATOM     19  C   LIG A   1      -6.440   2.067 132.464  0.00  0.00    +0.008 C 
ATOM     20  C   LIG A   1      -6.741   0.823 131.639  0.00  0.00    +0.036 C 
ATOM     21  C   LIG A   1      -6.413  -0.601 132.250  0.00  0.00    +0.021 C 
ATOM     22  C   LIG A   1      -7.783  -1.267 132.516  0.00  0.00    +0.016 C 
ATOM     23  C   LIG A   1      -9.231   2.578 130.370  0.00  0.00    +0.018 C 
ENDROOT
BRANCH  13  24
ATOM     24  C   LIG A   1      -9.124   5.487 130.821  0.00  0.00    +0.031 A 
ATOM     25  C   LIG A   1      -9.163   5.998 132.104  0.00  0.00    +0.202 A 
ATOM     26  O   LIG A   1     -10.364   6.575 132.366  0.00  0.00    -0.471 OA
ATOM     27  C   LIG A   1     -11.114   6.461 131.242  0.00  0.00    +0.195 A 
ATOM     28  C   LIG A   1     -10.401   5.815 130.260  0.00  0.00    +0.048 A 
ENDBRANCH  13  24
BRANCH   1  29
ATOM     29  O   LIG A   1      -7.630   0.267 129.468  0.00  0.00    -0.383 OA
ATOM     30  H   LIG A   1      -8.475   0.514 129.886  0.00  0.00    +0.210 HD
ENDBRANCH   1  29
BRANCH   2  31
ATOM     31  O   LIG A   1      -4.043   1.151 129.375  0.00  0.00    -0.388 OA
ATOM     32  H   LIG A   1      -4.190   1.909 129.978  0.00  0.00    +0.210 HD
ENDBRANCH   2  31
BRANCH  11  33
ATOM     33  O   LIG A   1      -5.449   3.215 129.978  0.00  0.00    -0.384 OA
ATOM     34  H   LIG A   1      -5.579   4.100 130.368  0.00  0.00    +0.210 HD
ENDBRANCH  11  33
BRANCH   7  35
ATOM     35  C   LIG A   1      -5.590  -2.084 134.474  0.00  0.00    +0.227 C 
BRANCH  35  36
ATOM     36  O   LIG A   1      -5.045  -3.352 134.171  0.00  0.00    -0.380 OA
ATOM     37  H   LIG A   1      -4.676  -3.726 134.993  0.00  0.00    +0.210 HD
ENDBRANCH  35  36
BRANCH  35  38
ATOM     38  C   LIG A   1      -5.261  -1.733 135.944  0.00  0.00    +0.336 C 
ATOM     39  O   LIG A   1      -4.192  -1.782 136.496  0.00  0.00    -0.248 OA
BRANCH  38  40
ATOM     40  O   LIG A   1      -6.428  -1.246 136.495  0.00  0.00    -0.466 OA
ATOM     41  C   LIG A   1      -7.103  -2.134 137.388  0.00  0.00    +0.280 C 
ENDBRANCH  38  40
ENDBRANCH  35  38
ENDBRANCH   7  35
BRANCH   4  42
ATOM     42  O   LIG A   1      -5.620  -2.666 131.490  0.00  0.00    -0.457 OA
BRANCH  42  43
ATOM     43  C   LIG A   1      -6.238  -3.538 130.644  0.00  0.00    +0.304 C 
ATOM     44  C   LIG A   1      -5.558  -4.881 130.662  0.00  0.00    +0.136 C 
ATOM     45  O   LIG A   1      -7.225  -3.274 129.974  0.00  0.00    -0.251 OA
ENDBRANCH  42  43
ENDBRANCH   4  42
TORSDOF 10
ENDMDL
MODEL 7
REMARK VINA RESULT:      -7.8      1.900      2.385
REMARK  Name = NuBBE_1552
REMARK  15 active torsions:
REMARK  status: ('A' for Active; 'I' for Inactive)
REMARK    1  A    between atoms: O_1  and  C_2
REMARK    2  A    between atoms: C_3  and  O_5
REMARK    3  A    between atoms: C_7  and  O_22
REMARK    4  A    between atoms: C_9  and  C_19
REMARK    5  A    between atoms: C_10  and  C_12
REMARK    6  A    between atoms: C_12  and  O_14
REMARK    7  A    between atoms: C_12  and  C_15
REMARK    8  A    between atoms: C_15  and  O_16
REMARK    9  A    between atoms: O_16  and  C_17
REMARK   10  A    between atoms: O_22  and  C_23
REMARK   11  A    between atoms: C_23  and  C_24
REMARK   12  A    between atoms: C_26  and  O_27
REMARK   13  A    between atoms: C_28  and  C_45
REMARK   14  A    between atoms: C_29  and  C_31
REMARK   15  A    between atoms: C_43  and  C_44
REMARK                            x       y       z     vdW  Elec       q    Type
REMARK                         _______ _______ _______ _____ _____    ______ ____
ROOT
ATOM      1  C   LIG A   1      -6.471   1.350 130.209  0.00  0.00    +0.126 C 
ATOM      2  C   LIG A   1      -5.535   2.027 131.361  0.00  0.00    +0.163 C 
ATOM      3  C   LIG A   1      -6.275   3.086 132.241  0.00  0.00    +0.131 C 
ATOM      4  C   LIG A   1      -7.366   3.561 131.408  0.00  0.00    +0.132 C 
ATOM      5  C   LIG A   1      -6.117   4.482 130.489  0.00  0.00    +0.064 C 
ATOM      6  C   LIG A   1      -6.741   5.624 131.088  0.00  0.00    +0.037 C 
ATOM      7  C   LIG A   1      -8.037   5.187 130.029  0.00  0.00    +0.052 C 
ATOM      8  C   LIG A   1      -6.063   6.945 130.835  0.00  0.00    +0.019 C 
ATOM      9  C   LIG A   1      -6.048   4.728 132.427  0.00  0.00    +0.149 C 
ATOM     10  O   LIG A   1      -5.432   5.238 133.356  0.00  0.00    -0.296 OA
ATOM     11  C   LIG A   1      -5.677   0.420 129.153  0.00  0.00    +0.116 C 
ATOM     12  C   LIG A   1      -6.568   0.040 127.907  0.00  0.00    +0.041 C 
ATOM     13  C   LIG A   1      -5.740  -0.887 126.958  0.00  0.00    +0.218 C 
ATOM     14  O   LIG A   1      -5.132  -1.987 127.668  0.00  0.00    -0.456 OA
ATOM     15  C   LIG A   1      -4.516  -1.820 128.852  0.00  0.00    +0.311 C 
ATOM     16  C   LIG A   1      -5.117  -0.836 129.816  0.00  0.00    +0.159 C 
ATOM     17  O   LIG A   1      -3.571  -2.533 129.175  0.00  0.00    -0.251 OA
ATOM     18  C   LIG A   1      -6.958   1.344 127.124  0.00  0.00    +0.014 C 
ATOM     19  C   LIG A   1      -6.974   2.640 127.958  0.00  0.00    +0.008 C 
ATOM     20  C   LIG A   1      -7.444   2.345 129.376  0.00  0.00    +0.036 C 
ATOM     21  C   LIG A   1      -8.184   3.483 130.191  0.00  0.00    +0.021 C 
ATOM     22  C   LIG A   1      -9.651   3.012 130.327  0.00  0.00    +0.016 C 
ATOM     23  C   LIG A   1      -7.844  -0.758 128.325  0.00  0.00    +0.018 C 
ENDROOT
BRANCH  13  24
ATOM     24  C   LIG A   1      -6.522  -1.443 125.785  0.00  0.00    +0.031 A 
ATOM     25  C   LIG A   1      -7.149  -2.671 125.687  0.00  0.00    +0.202 A 
ATOM     26  O   LIG A   1      -7.732  -2.828 124.471  0.00  0.00    -0.471 OA
ATOM     27  C   LIG A   1      -7.505  -1.689 123.771  0.00  0.00    +0.195 A 
ATOM     28  C   LIG A   1      -6.780  -0.802 124.530  0.00  0.00    +0.048 A 
ENDBRANCH  13  24
BRANCH   1  29
ATOM     29  O   LIG A   1      -7.401   0.520 130.950  0.00  0.00    -0.383 OA
ATOM     30  H   LIG A   1      -8.163   1.039 131.262  0.00  0.00    +0.210 HD
ENDBRANCH   1  29
BRANCH   2  31
ATOM     31  O   LIG A   1      -4.260   2.466 130.914  0.00  0.00    -0.388 OA
ATOM     32  H   LIG A   1      -4.345   2.791 129.993  0.00  0.00    +0.210 HD
ENDBRANCH   2  31
BRANCH  11  33
ATOM     33  O   LIG A   1      -4.547   1.206 128.694  0.00  0.00    -0.384 OA
ATOM     34  H   LIG A   1      -3.702   0.803 128.970  0.00  0.00    +0.210 HD
ENDBRANCH  11  33
BRANCH   7  35
ATOM     35  C   LIG A   1      -9.314   6.042 130.181  0.00  0.00    +0.227 C 
BRANCH  35  36
ATOM     36  O   LIG A   1      -9.375   6.702 131.429  0.00  0.00    -0.380 OA
ATOM     37  H   LIG A   1      -9.357   6.024 132.130  0.00  0.00    +0.210 HD
ENDBRANCH  35  36
BRANCH  35  38
ATOM     38  C   LIG A   1      -9.591   7.067 129.056  0.00  0.00    +0.336 C 
ATOM     39  O   LIG A   1      -9.537   8.268 129.119  0.00  0.00    -0.248 OA
BRANCH  38  40
ATOM     40  O   LIG A   1      -9.821   6.331 127.912  0.00  0.00    -0.466 OA
ATOM     41  C   LIG A   1     -10.502   7.023 126.864  0.00  0.00    +0.280 C 
ENDBRANCH  38  40
ENDBRANCH  35  38
ENDBRANCH   7  35
BRANCH   4  42
ATOM     42  O   LIG A   1      -8.281   4.241 132.402  0.00  0.00    -0.457 OA
BRANCH  42  43
ATOM     43  C   LIG A   1      -8.787   3.593 133.489  0.00  0.00    +0.304 C 
ATOM     44  C   LIG A   1      -8.660   4.437 134.729  0.00  0.00    +0.136 C 
ATOM     45  O   LIG A   1      -9.297   2.482 133.461  0.00  0.00    -0.251 OA
ENDBRANCH  42  43
ENDBRANCH   4  42
TORSDOF 10
ENDMDL
MODEL 8
REMARK VINA RESULT:      -7.8      2.558      7.795
REMARK  Name = NuBBE_1552
REMARK  15 active torsions:
REMARK  status: ('A' for Active; 'I' for Inactive)
REMARK    1  A    between atoms: O_1  and  C_2
REMARK    2  A    between atoms: C_3  and  O_5
REMARK    3  A    between atoms: C_7  and  O_22
REMARK    4  A    between atoms: C_9  and  C_19
REMARK    5  A    between atoms: C_10  and  C_12
REMARK    6  A    between atoms: C_12  and  O_14
REMARK    7  A    between atoms: C_12  and  C_15
REMARK    8  A    between atoms: C_15  and  O_16
REMARK    9  A    between atoms: O_16  and  C_17
REMARK   10  A    between atoms: O_22  and  C_23
REMARK   11  A    between atoms: C_23  and  C_24
REMARK   12  A    between atoms: C_26  and  O_27
REMARK   13  A    between atoms: C_28  and  C_45
REMARK   14  A    between atoms: C_29  and  C_31
REMARK   15  A    between atoms: C_43  and  C_44
REMARK                            x       y       z     vdW  Elec       q    Type
REMARK                         _______ _______ _______ _____ _____    ______ ____
ROOT
ATOM      1  C   LIG A   1      -5.879   1.860 130.924  0.00  0.00    +0.126 C 
ATOM      2  C   LIG A   1      -4.343   1.332 131.081  0.00  0.00    +0.163 C 
ATOM      3  C   LIG A   1      -4.204  -0.224 131.103  0.00  0.00    +0.131 C 
ATOM      4  C   LIG A   1      -5.496  -0.705 131.561  0.00  0.00    +0.132 C 
ATOM      5  C   LIG A   1      -4.996  -0.151 133.203  0.00  0.00    +0.064 C 
ATOM      6  C   LIG A   1      -4.934  -1.554 133.488  0.00  0.00    +0.037 C 
ATOM      7  C   LIG A   1      -6.653  -1.429 133.331  0.00  0.00    +0.052 C 
ATOM      8  C   LIG A   1      -4.394  -1.920 134.845  0.00  0.00    +0.019 C 
ATOM      9  C   LIG A   1      -3.686  -1.277 132.289  0.00  0.00    +0.149 C 
ATOM     10  O   LIG A   1      -2.558  -1.755 132.341  0.00  0.00    -0.296 OA
ATOM     11  C   LIG A   1      -6.070   3.452 131.118  0.00  0.00    +0.116 C 
ATOM     12  C   LIG A   1      -7.588   3.858 131.250  0.00  0.00    +0.041 C 
ATOM     13  C   LIG A   1      -7.686   5.411 131.397  0.00  0.00    +0.218 C 
ATOM     14  O   LIG A   1      -6.927   6.101 130.381  0.00  0.00    -0.456 OA
ATOM     15  C   LIG A   1      -5.685   5.717 130.032  0.00  0.00    +0.311 C 
ATOM     16  C   LIG A   1      -5.398   4.242 129.997  0.00  0.00    +0.159 C 
ATOM     17  O   LIG A   1      -4.860   6.537 129.642  0.00  0.00    -0.251 OA
ATOM     18  C   LIG A   1      -8.200   3.191 132.534  0.00  0.00    +0.014 C 
ATOM     19  C   LIG A   1      -7.505   1.899 133.007  0.00  0.00    +0.008 C 
ATOM     20  C   LIG A   1      -7.008   1.103 131.808  0.00  0.00    +0.036 C 
ATOM     21  C   LIG A   1      -6.900  -0.473 131.925  0.00  0.00    +0.021 C 
ATOM     22  C   LIG A   1      -7.998  -1.037 130.994  0.00  0.00    +0.016 C 
ATOM     23  C   LIG A   1      -8.409   3.467 129.980  0.00  0.00    +0.018 C 
ENDROOT
BRANCH  13  24
ATOM     24  C   LIG A   1      -9.100   5.955 131.394  0.00  0.00    +0.031 A 
ATOM     25  C   LIG A   1      -9.728   6.687 130.404  0.00  0.00    +0.202 A 
ATOM     26  O   LIG A   1     -10.993   7.020 130.767  0.00  0.00    -0.471 OA
ATOM     27  C   LIG A   1     -11.207   6.487 131.995  0.00  0.00    +0.195 A 
ATOM     28  C   LIG A   1     -10.088   5.814 132.422  0.00  0.00    +0.048 A 
ENDBRANCH  13  24
BRANCH   1  29
ATOM     29  O   LIG A   1      -6.235   1.513 129.561  0.00  0.00    -0.383 OA
ATOM     30  H   LIG A   1      -6.952   2.083 129.230  0.00  0.00    +0.210 HD
ENDBRANCH   1  29
BRANCH   2  31
ATOM     31  O   LIG A   1      -3.592   1.973 132.103  0.00  0.00    -0.388 OA
ATOM     32  H   LIG A   1      -2.819   1.412 132.324  0.00  0.00    +0.210 HD
ENDBRANCH   2  31
BRANCH  11  33
ATOM     33  O   LIG A   1      -5.389   3.792 132.354  0.00  0.00    -0.384 OA
ATOM     34  H   LIG A   1      -5.921   3.538 133.131  0.00  0.00    +0.210 HD
ENDBRANCH  11  33
BRANCH   7  35
ATOM     35  C   LIG A   1      -7.412  -2.770 133.437  0.00  0.00    +0.227 C 
BRANCH  35  36
ATOM     36  O   LIG A   1      -6.665  -3.853 132.923  0.00  0.00    -0.380 OA
ATOM     37  H   LIG A   1      -6.075  -4.174 133.629  0.00  0.00    +0.210 HD
ENDBRANCH  35  36
BRANCH  35  38
ATOM     38  C   LIG A   1      -7.946  -3.146 134.840  0.00  0.00    +0.336 C 
ATOM     39  O   LIG A   1      -7.891  -2.495 135.852  0.00  0.00    -0.248 OA
BRANCH  38  40
ATOM     40  O   LIG A   1      -8.600  -4.351 134.693  0.00  0.00    -0.466 OA
ATOM     41  C   LIG A   1      -8.849  -5.066 135.905  0.00  0.00    +0.280 C 
ENDBRANCH  38  40
ENDBRANCH  35  38
ENDBRANCH   7  35
BRANCH   4  42
ATOM     42  O   LIG A   1      -5.472  -2.167 131.175  0.00  0.00    -0.457 OA
BRANCH  42  43
ATOM     43  C   LIG A   1      -5.234  -2.581 129.899  0.00  0.00    +0.304 C 
ATOM     44  C   LIG A   1      -4.464  -3.875 129.885  0.00  0.00    +0.136 C 
ATOM     45  O   LIG A   1      -5.612  -1.993 128.896  0.00  0.00    -0.251 OA
ENDBRANCH  42  43
ENDBRANCH   4  42
TORSDOF 10
ENDMDL
MODEL 9
REMARK VINA RESULT:      -7.7      2.838      5.653
REMARK  Name = NuBBE_1552
REMARK  15 active torsions:
REMARK  status: ('A' for Active; 'I' for Inactive)
REMARK    1  A    between atoms: O_1  and  C_2
REMARK    2  A    between atoms: C_3  and  O_5
REMARK    3  A    between atoms: C_7  and  O_22
REMARK    4  A    between atoms: C_9  and  C_19
REMARK    5  A    between atoms: C_10  and  C_12
REMARK    6  A    between atoms: C_12  and  O_14
REMARK    7  A    between atoms: C_12  and  C_15
REMARK    8  A    between atoms: C_15  and  O_16
REMARK    9  A    between atoms: O_16  and  C_17
REMARK   10  A    between atoms: O_22  and  C_23
REMARK   11  A    between atoms: C_23  and  C_24
REMARK   12  A    between atoms: C_26  and  O_27
REMARK   13  A    between atoms: C_28  and  C_45
REMARK   14  A    between atoms: C_29  and  C_31
REMARK   15  A    between atoms: C_43  and  C_44
REMARK                            x       y       z     vdW  Elec       q    Type
REMARK                         _______ _______ _______ _____ _____    ______ ____
ROOT
ATOM      1  C   LIG A   1      -6.391  -1.448 128.585  0.00  0.00    +0.126 C 
ATOM      2  C   LIG A   1      -5.129  -2.149 129.346  0.00  0.00    +0.163 C 
ATOM      3  C   LIG A   1      -5.257  -2.169 130.903  0.00  0.00    +0.131 C 
ATOM      4  C   LIG A   1      -6.147  -1.065 131.217  0.00  0.00    +0.132 C 
ATOM      5  C   LIG A   1      -4.749   0.018 130.860  0.00  0.00    +0.064 C 
ATOM      6  C   LIG A   1      -4.772   0.255 132.272  0.00  0.00    +0.037 C 
ATOM      7  C   LIG A   1      -6.249   1.067 131.882  0.00  0.00    +0.052 C 
ATOM      8  C   LIG A   1      -3.646   1.100 132.809  0.00  0.00    +0.019 C 
ATOM      9  C   LIG A   1      -4.355  -1.439 132.102  0.00  0.00    +0.149 C 
ATOM     10  O   LIG A   1      -3.478  -2.004 132.745  0.00  0.00    -0.296 OA
ATOM     11  C   LIG A   1      -6.182  -1.219 127.000  0.00  0.00    +0.116 C 
ATOM     12  C   LIG A   1      -7.291  -0.283 126.382  0.00  0.00    +0.041 C 
ATOM     13  C   LIG A   1      -7.038  -0.145 124.845  0.00  0.00    +0.218 C 
ATOM     14  O   LIG A   1      -6.856  -1.427 124.208  0.00  0.00    -0.456 OA
ATOM     15  C   LIG A   1      -6.089  -2.392 124.747  0.00  0.00    +0.311 C 
ATOM     16  C   LIG A   1      -6.113  -2.543 126.243  0.00  0.00    +0.159 C 
ATOM     17  O   LIG A   1      -5.491  -3.191 124.034  0.00  0.00    -0.251 OA
ATOM     18  C   LIG A   1      -7.201   1.141 127.038  0.00  0.00    +0.014 C 
ATOM     19  C   LIG A   1      -6.583   1.184 128.449  0.00  0.00    +0.008 C 
ATOM     20  C   LIG A   1      -6.960  -0.070 129.225  0.00  0.00    +0.036 C 
ATOM     21  C   LIG A   1      -7.064   0.006 130.803  0.00  0.00    +0.021 C 
ATOM     22  C   LIG A   1      -8.567  -0.154 131.131  0.00  0.00    +0.016 C 
ATOM     23  C   LIG A   1      -8.723  -0.883 126.556  0.00  0.00    +0.018 C 
ENDROOT
BRANCH  13  24
ATOM     24  C   LIG A   1      -8.113   0.618 124.097  0.00  0.00    +0.031 A 
ATOM     25  C   LIG A   1      -8.261   1.987 123.984  0.00  0.00    +0.202 A 
ATOM     26  O   LIG A   1      -9.360   2.303 123.252  0.00  0.00    -0.471 OA
ATOM     27  C   LIG A   1      -9.928   1.134 122.863  0.00  0.00    +0.195 A 
ATOM     28  C   LIG A   1      -9.200   0.071 123.341  0.00  0.00    +0.048 A 
ENDBRANCH  13  24
BRANCH   1  29
ATOM     29  O   LIG A   1      -7.484  -2.381 128.779  0.00  0.00    -0.383 OA
ATOM     30  H   LIG A   1      -7.777  -2.390 129.708  0.00  0.00    +0.210 HD
ENDBRANCH   1  29
BRANCH   2  31
ATOM     31  O   LIG A   1      -3.850  -1.724 128.898  0.00  0.00    -0.388 OA
ATOM     32  H   LIG A   1      -3.859  -1.678 127.919  0.00  0.00    +0.210 HD
ENDBRANCH   2  31
BRANCH  11  33
ATOM     33  O   LIG A   1      -4.892  -0.570 126.853  0.00  0.00    -0.384 OA
ATOM     34  H   LIG A   1      -4.254  -0.902 127.512  0.00  0.00    +0.210 HD
ENDBRANCH  11  33
BRANCH   7  35
ATOM     35  C   LIG A   1      -7.033   1.605 133.098  0.00  0.00    +0.227 C 
BRANCH  35  36
ATOM     36  O   LIG A   1      -6.763   0.878 134.278  0.00  0.00    -0.380 OA
ATOM     37  H   LIG A   1      -7.217   0.017 134.213  0.00  0.00    +0.210 HD
ENDBRANCH  35  36
BRANCH  35  38
ATOM     38  C   LIG A   1      -6.888   3.116 133.393  0.00  0.00    +0.336 C 
ATOM     39  O   LIG A   1      -5.952   3.687 133.893  0.00  0.00    -0.248 OA
BRANCH  38  40
ATOM     40  O   LIG A   1      -8.014   3.721 132.876  0.00  0.00    -0.466 OA
ATOM     41  C   LIG A   1      -9.260   3.180 133.319  0.00  0.00    +0.280 C 
ENDBRANCH  38  40
ENDBRANCH  35  38
ENDBRANCH   7  35
BRANCH   4  42
ATOM     42  O   LIG A   1      -6.577  -1.365 132.635  0.00  0.00    -0.457 OA
BRANCH  42  43
ATOM     43  C   LIG A   1      -7.136  -2.555 132.992  0.00  0.00    +0.304 C 
ATOM     44  C   LIG A   1      -6.928  -2.833 134.457  0.00  0.00    +0.136 C 
ATOM     45  O   LIG A   1      -7.745  -3.292 132.230  0.00  0.00    -0.251 OA
ENDBRANCH  42  43
ENDBRANCH   4  42
TORSDOF 10
ENDMDL
