MODEL 1
REMARK VINA RESULT:      -8.3      0.000      0.000
REMARK  Name = NuBBE_641
REMARK  19 active torsions:
REMARK  status: ('A' for Active; 'I' for Inactive)
REMARK    1  A    between atoms: C_1  and  C_2
REMARK    2  A    between atoms: C_2  and  C_3
REMARK    3  A    between atoms: C_3  and  C_4
REMARK    4  A    between atoms: C_4  and  C_5
REMARK    5  A    between atoms: C_6  and  C_7
REMARK    6  A    between atoms: C_6  and  C_20
REMARK    7  A    between atoms: C_7  and  C_8
REMARK    8  A    between atoms: C_8  and  C_9
REMARK    9  A    between atoms: C_10  and  C_11
REMARK   10  A    between atoms: C_10  and  C_14
REMARK   11  A    between atoms: C_11  and  O_12
REMARK   12  A    between atoms: C_14  and  C_15
REMARK   13  A    between atoms: C_15  and  C_16
REMARK   14  A    between atoms: C_17  and  C_18
REMARK   15  A    between atoms: C_17  and  C_19
REMARK   16  A    between atoms: C_21  and  C_22
REMARK   17  A    between atoms: C_22  and  C_23
REMARK   18  A    between atoms: C_26  and  C_27
REMARK   19  A    between atoms: C_28  and  C_29
REMARK                            x       y       z     vdW  Elec       q    Type
REMARK                         _______ _______ _______ _____ _____    ______ ____
ROOT
ATOM      1  C   LIG A   1      -7.898  -0.054 131.916  0.00  0.00    -0.027 C 
ATOM      2  C   LIG A   1      -7.958  -0.314 130.592  0.00  0.00    -0.076 C 
ATOM      3  C   LIG A   1      -7.987   0.738 129.530  0.00  0.00    +0.038 C 
ENDROOT
BRANCH   1   4
ATOM      4  C   LIG A   1      -7.671   1.297 132.556  0.00  0.00    +0.031 C 
BRANCH   4   5
ATOM      5  C   LIG A   1      -8.918   2.153 132.869  0.00  0.00    +0.034 C 
BRANCH   5   7
ATOM      6  C   LIG A   1      -7.347   4.168 132.445  0.00  0.00    +0.038 C 
ATOM      7  C   LIG A   1      -8.749   3.669 132.680  0.00  0.00    -0.076 C 
ATOM      8  C   LIG A   1      -9.808   4.510 132.719  0.00  0.00    -0.023 C 
BRANCH   8   9
ATOM      9  C   LIG A   1      -9.775   6.015 132.526  0.00  0.00    +0.066 C 
BRANCH   9  10
ATOM     10  C   LIG A   1     -10.191   6.427 131.141  0.00  0.00    +0.007 C 
ATOM     11  C   LIG A   1      -9.419   6.254 130.062  0.00  0.00    +0.058 C 
ATOM     12  C   LIG A   1      -9.927   6.531 128.707  0.00  0.00    +0.183 C 
ATOM     13  C   LIG A   1     -11.098   7.443 128.588  0.00  0.00    +0.003 C 
ATOM     14  C   LIG A   1     -11.391   7.950 127.207  0.00  0.00    +0.048 C 
ATOM     15  C   LIG A   1     -11.784   7.784 129.697  0.00  0.00    +0.003 C 
ATOM     16  C   LIG A   1     -12.855   8.832 129.780  0.00  0.00    +0.048 C 
ATOM     17  C   LIG A   1     -11.522   7.060 130.977  0.00  0.00    +0.186 C 
ATOM     18  O   LIG A   1     -12.366   7.016 131.865  0.00  0.00    -0.287 OA
ATOM     19  O   LIG A   1      -9.360   6.050 127.735  0.00  0.00    -0.288 OA
ENDBRANCH   9  10
ENDBRANCH   8   9
ENDBRANCH   5   7
ENDBRANCH   4   5
ENDBRANCH   1   4
BRANCH   2  20
ATOM     20  C   LIG A   1      -7.791  -1.717 130.065  0.00  0.00    +0.034 C 
BRANCH  20  21
ATOM     21  C   LIG A   1      -7.286  -1.901 128.626  0.00  0.00    +0.032 C 
BRANCH  21  22
ATOM     22  C   LIG A   1      -8.180  -2.515 127.570  0.00  0.00    -0.016 C 
ATOM     23  C   LIG A   1      -8.779  -2.078 126.441  0.00  0.00    +0.033 C 
BRANCH  23  24
ATOM     24  C   LIG A   1      -8.793  -0.705 125.890  0.00  0.00    +0.333 C 
ATOM     25  O   LIG A   1      -7.781  -0.014 125.681  0.00  0.00    -0.245 OA
BRANCH  24  26
ATOM     26  O   LIG A   1      -9.964  -0.189 125.605  0.00  0.00    -0.477 OA
ATOM     27  H   LIG A   1     -10.111   0.593 126.166  0.00  0.00    +0.295 HD
ENDBRANCH  24  26
ENDBRANCH  23  24
BRANCH  23  28
ATOM     28  C   LIG A   1      -9.431  -3.088 125.502  0.00  0.00    +0.046 C 
BRANCH  28  29
ATOM     29  C   LIG A   1      -8.719  -3.430 124.183  0.00  0.00    +0.032 C 
BRANCH  29  30
ATOM     30  C   LIG A   1      -7.244  -3.703 124.280  0.00  0.00    -0.028 C 
ATOM     31  C   LIG A   1      -6.242  -2.983 123.738  0.00  0.00    -0.080 C 
ATOM     32  C   LIG A   1      -6.439  -1.745 122.908  0.00  0.00    +0.038 C 
ATOM     33  C   LIG A   1      -4.815  -3.423 123.921  0.00  0.00    +0.038 C 
ENDBRANCH  29  30
ENDBRANCH  28  29
ENDBRANCH  23  28
ENDBRANCH  21  22
ENDBRANCH  20  21
ENDBRANCH   2  20
TORSDOF 13
ENDMDL
MODEL 2
REMARK VINA RESULT:      -8.3      1.031      1.999
REMARK  Name = NuBBE_641
REMARK  19 active torsions:
REMARK  status: ('A' for Active; 'I' for Inactive)
REMARK    1  A    between atoms: C_1  and  C_2
REMARK    2  A    between atoms: C_2  and  C_3
REMARK    3  A    between atoms: C_3  and  C_4
REMARK    4  A    between atoms: C_4  and  C_5
REMARK    5  A    between atoms: C_6  and  C_7
REMARK    6  A    between atoms: C_6  and  C_20
REMARK    7  A    between atoms: C_7  and  C_8
REMARK    8  A    between atoms: C_8  and  C_9
REMARK    9  A    between atoms: C_10  and  C_11
REMARK   10  A    between atoms: C_10  and  C_14
REMARK   11  A    between atoms: C_11  and  O_12
REMARK   12  A    between atoms: C_14  and  C_15
REMARK   13  A    between atoms: C_15  and  C_16
REMARK   14  A    between atoms: C_17  and  C_18
REMARK   15  A    between atoms: C_17  and  C_19
REMARK   16  A    between atoms: C_21  and  C_22
REMARK   17  A    between atoms: C_22  and  C_23
REMARK   18  A    between atoms: C_26  and  C_27
REMARK   19  A    between atoms: C_28  and  C_29
REMARK                            x       y       z     vdW  Elec       q    Type
REMARK                         _______ _______ _______ _____ _____    ______ ____
ROOT
ATOM      1  C   LIG A   1      -7.530   0.341 130.932  0.00  0.00    -0.027 C 
ATOM      2  C   LIG A   1      -7.247  -0.798 130.263  0.00  0.00    -0.076 C 
ATOM      3  C   LIG A   1      -7.679  -2.160 130.704  0.00  0.00    +0.038 C 
ENDROOT
BRANCH   1   4
ATOM      4  C   LIG A   1      -8.462   0.480 132.115  0.00  0.00    +0.031 C 
BRANCH   4   5
ATOM      5  C   LIG A   1      -9.620   1.494 131.991  0.00  0.00    +0.034 C 
BRANCH   5   7
ATOM      6  C   LIG A   1      -8.610   3.116 133.739  0.00  0.00    +0.038 C 
ATOM      7  C   LIG A   1      -9.289   2.936 132.406  0.00  0.00    -0.076 C 
ATOM      8  C   LIG A   1      -9.589   3.989 131.612  0.00  0.00    -0.023 C 
BRANCH   8   9
ATOM      9  C   LIG A   1      -9.296   5.450 131.898  0.00  0.00    +0.066 C 
BRANCH   9  10
ATOM     10  C   LIG A   1     -10.308   6.373 131.278  0.00  0.00    +0.007 C 
ATOM     11  C   LIG A   1     -11.590   6.415 131.659  0.00  0.00    +0.058 C 
ATOM     12  C   LIG A   1     -12.509   7.440 131.133  0.00  0.00    +0.183 C 
ATOM     13  C   LIG A   1     -12.141   8.095 129.847  0.00  0.00    +0.003 C 
ATOM     14  C   LIG A   1     -13.228   8.888 129.186  0.00  0.00    +0.048 C 
ATOM     15  C   LIG A   1     -10.904   7.913 129.345  0.00  0.00    +0.003 C 
ATOM     16  C   LIG A   1     -10.438   8.336 127.983  0.00  0.00    +0.048 C 
ATOM     17  C   LIG A   1      -9.852   7.271 130.190  0.00  0.00    +0.186 C 
ATOM     18  O   LIG A   1      -8.662   7.461 129.973  0.00  0.00    -0.287 OA
ATOM     19  O   LIG A   1     -13.549   7.688 131.730  0.00  0.00    -0.288 OA
ENDBRANCH   9  10
ENDBRANCH   8   9
ENDBRANCH   5   7
ENDBRANCH   4   5
ENDBRANCH   1   4
BRANCH   2  20
ATOM     20  C   LIG A   1      -6.635  -0.762 128.886  0.00  0.00    +0.034 C 
BRANCH  20  21
ATOM     21  C   LIG A   1      -6.479  -2.084 128.121  0.00  0.00    +0.032 C 
BRANCH  21  22
ATOM     22  C   LIG A   1      -7.596  -2.598 127.237  0.00  0.00    -0.016 C 
ATOM     23  C   LIG A   1      -8.425  -2.057 126.320  0.00  0.00    +0.033 C 
BRANCH  23  24
ATOM     24  C   LIG A   1      -8.542  -0.637 125.922  0.00  0.00    +0.333 C 
ATOM     25  O   LIG A   1      -7.587   0.094 125.610  0.00  0.00    -0.245 OA
BRANCH  24  26
ATOM     26  O   LIG A   1      -9.748  -0.121 125.902  0.00  0.00    -0.477 OA
ATOM     27  H   LIG A   1     -10.197  -0.333 126.739  0.00  0.00    +0.295 HD
ENDBRANCH  24  26
ENDBRANCH  23  24
BRANCH  23  28
ATOM     28  C   LIG A   1      -9.286  -2.975 125.456  0.00  0.00    +0.046 C 
BRANCH  28  29
ATOM     29  C   LIG A   1      -8.703  -3.496 124.132  0.00  0.00    +0.032 C 
BRANCH  29  30
ATOM     30  C   LIG A   1      -7.226  -3.774 124.125  0.00  0.00    -0.028 C 
ATOM     31  C   LIG A   1      -6.254  -3.013 123.584  0.00  0.00    -0.080 C 
ATOM     32  C   LIG A   1      -6.494  -1.714 122.866  0.00  0.00    +0.038 C 
ATOM     33  C   LIG A   1      -4.820  -3.464 123.652  0.00  0.00    +0.038 C 
ENDBRANCH  29  30
ENDBRANCH  28  29
ENDBRANCH  23  28
ENDBRANCH  21  22
ENDBRANCH  20  21
ENDBRANCH   2  20
TORSDOF 13
ENDMDL
MODEL 3
REMARK VINA RESULT:      -8.3      3.392      3.945
REMARK  Name = NuBBE_641
REMARK  19 active torsions:
REMARK  status: ('A' for Active; 'I' for Inactive)
REMARK    1  A    between atoms: C_1  and  C_2
REMARK    2  A    between atoms: C_2  and  C_3
REMARK    3  A    between atoms: C_3  and  C_4
REMARK    4  A    between atoms: C_4  and  C_5
REMARK    5  A    between atoms: C_6  and  C_7
REMARK    6  A    between atoms: C_6  and  C_20
REMARK    7  A    between atoms: C_7  and  C_8
REMARK    8  A    between atoms: C_8  and  C_9
REMARK    9  A    between atoms: C_10  and  C_11
REMARK   10  A    between atoms: C_10  and  C_14
REMARK   11  A    between atoms: C_11  and  O_12
REMARK   12  A    between atoms: C_14  and  C_15
REMARK   13  A    between atoms: C_15  and  C_16
REMARK   14  A    between atoms: C_17  and  C_18
REMARK   15  A    between atoms: C_17  and  C_19
REMARK   16  A    between atoms: C_21  and  C_22
REMARK   17  A    between atoms: C_22  and  C_23
REMARK   18  A    between atoms: C_26  and  C_27
REMARK   19  A    between atoms: C_28  and  C_29
REMARK                            x       y       z     vdW  Elec       q    Type
REMARK                         _______ _______ _______ _____ _____    ______ ____
ROOT
ATOM      1  C   LIG A   1      -7.432   2.190 131.125  0.00  0.00    -0.027 C 
ATOM      2  C   LIG A   1      -7.901   2.559 129.914  0.00  0.00    -0.076 C 
ATOM      3  C   LIG A   1      -9.352   2.717 129.587  0.00  0.00    +0.038 C 
ENDROOT
BRANCH   1   4
ATOM      4  C   LIG A   1      -8.240   2.048 132.396  0.00  0.00    +0.031 C 
BRANCH   4   5
ATOM      5  C   LIG A   1      -7.867   2.965 133.580  0.00  0.00    +0.034 C 
BRANCH   5   7
ATOM      6  C   LIG A   1      -8.004   5.356 134.567  0.00  0.00    +0.038 C 
ATOM      7  C   LIG A   1      -8.550   4.342 133.595  0.00  0.00    -0.076 C 
ATOM      8  C   LIG A   1      -9.586   4.629 132.773  0.00  0.00    -0.023 C 
BRANCH   8   9
ATOM      9  C   LIG A   1     -10.326   5.950 132.678  0.00  0.00    +0.066 C 
BRANCH   9  10
ATOM     10  C   LIG A   1     -10.524   6.398 131.256  0.00  0.00    +0.007 C 
ATOM     11  C   LIG A   1      -9.634   6.164 130.284  0.00  0.00    +0.058 C 
ATOM     12  C   LIG A   1      -9.938   6.485 128.879  0.00  0.00    +0.183 C 
ATOM     13  C   LIG A   1     -11.005   7.491 128.621  0.00  0.00    +0.003 C 
ATOM     14  C   LIG A   1     -11.074   8.023 127.220  0.00  0.00    +0.048 C 
ATOM     15  C   LIG A   1     -11.799   7.885 129.635  0.00  0.00    +0.003 C 
ATOM     16  C   LIG A   1     -12.783   9.017 129.593  0.00  0.00    +0.048 C 
ATOM     17  C   LIG A   1     -11.766   7.140 130.930  0.00  0.00    +0.186 C 
ATOM     18  O   LIG A   1     -12.718   7.163 131.700  0.00  0.00    -0.287 OA
ATOM     19  O   LIG A   1      -9.290   5.961 127.982  0.00  0.00    -0.288 OA
ENDBRANCH   9  10
ENDBRANCH   8   9
ENDBRANCH   5   7
ENDBRANCH   4   5
ENDBRANCH   1   4
BRANCH   2  20
ATOM     20  C   LIG A   1      -6.969   3.048 128.833  0.00  0.00    +0.034 C 
BRANCH  20  21
ATOM     21  C   LIG A   1      -6.718   2.139 127.620  0.00  0.00    +0.032 C 
BRANCH  21  22
ATOM     22  C   LIG A   1      -7.578   2.258 126.380  0.00  0.00    -0.016 C 
ATOM     23  C   LIG A   1      -7.846   3.231 125.483  0.00  0.00    +0.033 C 
BRANCH  23  24
ATOM     24  C   LIG A   1      -7.382   4.636 125.495  0.00  0.00    +0.333 C 
ATOM     25  O   LIG A   1      -6.191   4.989 125.527  0.00  0.00    -0.245 OA
BRANCH  24  26
ATOM     26  O   LIG A   1      -8.303   5.568 125.473  0.00  0.00    -0.477 OA
ATOM     27  H   LIG A   1      -8.052   6.278 126.089  0.00  0.00    +0.295 HD
ENDBRANCH  24  26
ENDBRANCH  23  24
BRANCH  23  28
ATOM     28  C   LIG A   1      -8.608   2.882 124.207  0.00  0.00    +0.046 C 
BRANCH  28  29
ATOM     29  C   LIG A   1      -7.838   2.231 123.047  0.00  0.00    +0.032 C 
BRANCH  29  30
ATOM     30  C   LIG A   1      -6.581   2.931 122.613  0.00  0.00    -0.028 C 
ATOM     31  C   LIG A   1      -6.399   3.669 121.500  0.00  0.00    -0.080 C 
ATOM     32  C   LIG A   1      -7.460   3.919 120.464  0.00  0.00    +0.038 C 
ATOM     33  C   LIG A   1      -5.054   4.280 121.214  0.00  0.00    +0.038 C 
ENDBRANCH  29  30
ENDBRANCH  28  29
ENDBRANCH  23  28
ENDBRANCH  21  22
ENDBRANCH  20  21
ENDBRANCH   2  20
TORSDOF 13
ENDMDL
MODEL 4
REMARK VINA RESULT:      -8.2      1.849      9.879
REMARK  Name = NuBBE_641
REMARK  19 active torsions:
REMARK  status: ('A' for Active; 'I' for Inactive)
REMARK    1  A    between atoms: C_1  and  C_2
REMARK    2  A    between atoms: C_2  and  C_3
REMARK    3  A    between atoms: C_3  and  C_4
REMARK    4  A    between atoms: C_4  and  C_5
REMARK    5  A    between atoms: C_6  and  C_7
REMARK    6  A    between atoms: C_6  and  C_20
REMARK    7  A    between atoms: C_7  and  C_8
REMARK    8  A    between atoms: C_8  and  C_9
REMARK    9  A    between atoms: C_10  and  C_11
REMARK   10  A    between atoms: C_10  and  C_14
REMARK   11  A    between atoms: C_11  and  O_12
REMARK   12  A    between atoms: C_14  and  C_15
REMARK   13  A    between atoms: C_15  and  C_16
REMARK   14  A    between atoms: C_17  and  C_18
REMARK   15  A    between atoms: C_17  and  C_19
REMARK   16  A    between atoms: C_21  and  C_22
REMARK   17  A    between atoms: C_22  and  C_23
REMARK   18  A    between atoms: C_26  and  C_27
REMARK   19  A    between atoms: C_28  and  C_29
REMARK                            x       y       z     vdW  Elec       q    Type
REMARK                         _______ _______ _______ _____ _____    ______ ____
ROOT
ATOM      1  C   LIG A   1      -8.650   0.474 131.099  0.00  0.00    -0.027 C 
ATOM      2  C   LIG A   1      -8.533   1.807 131.278  0.00  0.00    -0.076 C 
ATOM      3  C   LIG A   1      -7.293   2.588 130.978  0.00  0.00    +0.038 C 
ENDROOT
BRANCH   1   4
ATOM      4  C   LIG A   1      -7.653  -0.432 130.412  0.00  0.00    +0.031 C 
BRANCH   4   5
ATOM      5  C   LIG A   1      -8.105  -1.874 130.095  0.00  0.00    +0.034 C 
BRANCH   5   7
ATOM      6  C   LIG A   1      -8.426  -3.629 128.217  0.00  0.00    +0.038 C 
ATOM      7  C   LIG A   1      -7.688  -2.414 128.718  0.00  0.00    -0.076 C 
ATOM      8  C   LIG A   1      -6.710  -1.825 127.991  0.00  0.00    -0.023 C 
BRANCH   8   9
ATOM      9  C   LIG A   1      -6.226  -2.247 126.617  0.00  0.00    +0.066 C 
BRANCH   9  10
ATOM     10  C   LIG A   1      -7.103  -1.726 125.511  0.00  0.00    +0.007 C 
ATOM     11  C   LIG A   1      -7.374  -0.427 125.343  0.00  0.00    +0.058 C 
ATOM     12  C   LIG A   1      -8.111   0.052 124.160  0.00  0.00    +0.183 C 
ATOM     13  C   LIG A   1      -8.951  -0.937 123.430  0.00  0.00    +0.003 C 
ATOM     14  C   LIG A   1      -9.919  -0.363 122.439  0.00  0.00    +0.048 C 
ATOM     15  C   LIG A   1      -8.828  -2.247 123.718  0.00  0.00    +0.003 C 
ATOM     16  C   LIG A   1      -9.723  -3.344 123.221  0.00  0.00    +0.048 C 
ATOM     17  C   LIG A   1      -7.694  -2.711 124.573  0.00  0.00    +0.186 C 
ATOM     18  O   LIG A   1      -7.288  -3.865 124.518  0.00  0.00    -0.287 OA
ATOM     19  O   LIG A   1      -8.049   1.232 123.842  0.00  0.00    -0.288 OA
ENDBRANCH   9  10
ENDBRANCH   8   9
ENDBRANCH   5   7
ENDBRANCH   4   5
ENDBRANCH   1   4
BRANCH   2  20
ATOM     20  C   LIG A   1      -9.732   2.658 131.609  0.00  0.00    +0.034 C 
BRANCH  20  21
ATOM     21  C   LIG A   1     -10.514   3.299 130.453  0.00  0.00    +0.032 C 
BRANCH  21  22
ATOM     22  C   LIG A   1     -10.252   4.735 130.050  0.00  0.00    -0.016 C 
ATOM     23  C   LIG A   1     -10.324   5.936 130.661  0.00  0.00    +0.033 C 
BRANCH  23  24
ATOM     24  C   LIG A   1     -10.799   6.235 132.030  0.00  0.00    +0.333 C 
ATOM     25  O   LIG A   1     -10.063   6.512 132.992  0.00  0.00    -0.245 OA
BRANCH  24  26
ATOM     26  O   LIG A   1     -12.095   6.201 132.231  0.00  0.00    -0.477 OA
ATOM     27  H   LIG A   1     -12.410   7.103 132.419  0.00  0.00    +0.295 HD
ENDBRANCH  24  26
ENDBRANCH  23  24
BRANCH  23  28
ATOM     28  C   LIG A   1      -9.742   7.165 129.967  0.00  0.00    +0.046 C 
BRANCH  28  29
ATOM     29  C   LIG A   1     -10.321   7.582 128.606  0.00  0.00    +0.032 C 
BRANCH  29  30
ATOM     30  C   LIG A   1     -11.363   8.664 128.635  0.00  0.00    -0.028 C 
ATOM     31  C   LIG A   1     -12.702   8.511 128.600  0.00  0.00    -0.080 C 
ATOM     32  C   LIG A   1     -13.402   7.183 128.515  0.00  0.00    +0.038 C 
ATOM     33  C   LIG A   1     -13.598   9.720 128.614  0.00  0.00    +0.038 C 
ENDBRANCH  29  30
ENDBRANCH  28  29
ENDBRANCH  23  28
ENDBRANCH  21  22
ENDBRANCH  20  21
ENDBRANCH   2  20
TORSDOF 13
ENDMDL
MODEL 5
REMARK VINA RESULT:      -8.1      4.171      5.338
REMARK  Name = NuBBE_641
REMARK  19 active torsions:
REMARK  status: ('A' for Active; 'I' for Inactive)
REMARK    1  A    between atoms: C_1  and  C_2
REMARK    2  A    between atoms: C_2  and  C_3
REMARK    3  A    between atoms: C_3  and  C_4
REMARK    4  A    between atoms: C_4  and  C_5
REMARK    5  A    between atoms: C_6  and  C_7
REMARK    6  A    between atoms: C_6  and  C_20
REMARK    7  A    between atoms: C_7  and  C_8
REMARK    8  A    between atoms: C_8  and  C_9
REMARK    9  A    between atoms: C_10  and  C_11
REMARK   10  A    between atoms: C_10  and  C_14
REMARK   11  A    between atoms: C_11  and  O_12
REMARK   12  A    between atoms: C_14  and  C_15
REMARK   13  A    between atoms: C_15  and  C_16
REMARK   14  A    between atoms: C_17  and  C_18
REMARK   15  A    between atoms: C_17  and  C_19
REMARK   16  A    between atoms: C_21  and  C_22
REMARK   17  A    between atoms: C_22  and  C_23
REMARK   18  A    between atoms: C_26  and  C_27
REMARK   19  A    between atoms: C_28  and  C_29
REMARK                            x       y       z     vdW  Elec       q    Type
REMARK                         _______ _______ _______ _____ _____    ______ ____
ROOT
ATOM      1  C   LIG A   1      -8.051  -3.181 129.521  0.00  0.00    -0.027 C 
ATOM      2  C   LIG A   1      -8.140  -2.792 128.231  0.00  0.00    -0.076 C 
ATOM      3  C   LIG A   1      -7.468  -1.579 127.672  0.00  0.00    +0.038 C 
ENDROOT
BRANCH   1   4
ATOM      4  C   LIG A   1      -7.139  -2.595 130.575  0.00  0.00    +0.031 C 
BRANCH   4   5
ATOM      5  C   LIG A   1      -7.784  -1.691 131.648  0.00  0.00    +0.034 C 
BRANCH   5   7
ATOM      6  C   LIG A   1      -9.278   0.424 131.718  0.00  0.00    +0.038 C 
ATOM      7  C   LIG A   1      -8.006  -0.226 131.239  0.00  0.00    -0.076 C 
ATOM      8  C   LIG A   1      -7.100   0.445 130.489  0.00  0.00    -0.023 C 
BRANCH   8   9
ATOM      9  C   LIG A   1      -7.193   1.892 130.041  0.00  0.00    +0.066 C 
BRANCH   9  10
ATOM     10  C   LIG A   1      -5.981   2.334 129.269  0.00  0.00    +0.007 C 
ATOM     11  C   LIG A   1      -5.539   1.704 128.175  0.00  0.00    +0.058 C 
ATOM     12  C   LIG A   1      -4.441   2.260 127.365  0.00  0.00    +0.183 C 
ATOM     13  C   LIG A   1      -3.531   3.236 128.024  0.00  0.00    +0.003 C 
ATOM     14  C   LIG A   1      -2.259   3.540 127.288  0.00  0.00    +0.048 C 
ATOM     15  C   LIG A   1      -3.868   3.747 129.224  0.00  0.00    +0.003 C 
ATOM     16  C   LIG A   1      -2.984   4.583 130.103  0.00  0.00    +0.048 C 
ATOM     17  C   LIG A   1      -5.245   3.525 129.759  0.00  0.00    +0.186 C 
ATOM     18  O   LIG A   1      -5.734   4.284 130.588  0.00  0.00    -0.287 OA
ATOM     19  O   LIG A   1      -4.285   1.881 126.212  0.00  0.00    -0.288 OA
ENDBRANCH   9  10
ENDBRANCH   8   9
ENDBRANCH   5   7
ENDBRANCH   4   5
ENDBRANCH   1   4
BRANCH   2  20
ATOM     20  C   LIG A   1      -8.771  -3.682 127.190  0.00  0.00    +0.034 C 
BRANCH  20  21
ATOM     21  C   LIG A   1      -9.611  -3.028 126.083  0.00  0.00    +0.032 C 
BRANCH  21  22
ATOM     22  C   LIG A   1      -9.034  -2.826 124.698  0.00  0.00    -0.016 C 
ATOM     23  C   LIG A   1      -8.782  -1.763 123.904  0.00  0.00    +0.033 C 
BRANCH  23  24
ATOM     24  C   LIG A   1      -9.097  -0.340 124.159  0.00  0.00    +0.333 C 
ATOM     25  O   LIG A   1      -8.520   0.376 124.995  0.00  0.00    -0.245 OA
BRANCH  24  26
ATOM     26  O   LIG A   1     -10.060   0.194 123.446  0.00  0.00    -0.477 OA
ATOM     27  H   LIG A   1     -10.658   0.685 124.038  0.00  0.00    +0.295 HD
ENDBRANCH  24  26
ENDBRANCH  23  24
BRANCH  23  28
ATOM     28  C   LIG A   1      -7.961  -1.957 122.633  0.00  0.00    +0.046 C 
BRANCH  28  29
ATOM     29  C   LIG A   1      -6.470  -1.584 122.658  0.00  0.00    +0.032 C 
BRANCH  29  30
ATOM     30  C   LIG A   1      -5.502  -2.734 122.684  0.00  0.00    -0.028 C 
ATOM     31  C   LIG A   1      -4.996  -3.352 123.770  0.00  0.00    -0.080 C 
ATOM     32  C   LIG A   1      -5.322  -2.976 125.189  0.00  0.00    +0.038 C 
ATOM     33  C   LIG A   1      -4.013  -4.479 123.604  0.00  0.00    +0.038 C 
ENDBRANCH  29  30
ENDBRANCH  28  29
ENDBRANCH  23  28
ENDBRANCH  21  22
ENDBRANCH  20  21
ENDBRANCH   2  20
TORSDOF 13
ENDMDL
MODEL 6
REMARK VINA RESULT:      -8.1      3.333      7.692
REMARK  Name = NuBBE_641
REMARK  19 active torsions:
REMARK  status: ('A' for Active; 'I' for Inactive)
REMARK    1  A    between atoms: C_1  and  C_2
REMARK    2  A    between atoms: C_2  and  C_3
REMARK    3  A    between atoms: C_3  and  C_4
REMARK    4  A    between atoms: C_4  and  C_5
REMARK    5  A    between atoms: C_6  and  C_7
REMARK    6  A    between atoms: C_6  and  C_20
REMARK    7  A    between atoms: C_7  and  C_8
REMARK    8  A    between atoms: C_8  and  C_9
REMARK    9  A    between atoms: C_10  and  C_11
REMARK   10  A    between atoms: C_10  and  C_14
REMARK   11  A    between atoms: C_11  and  O_12
REMARK   12  A    between atoms: C_14  and  C_15
REMARK   13  A    between atoms: C_15  and  C_16
REMARK   14  A    between atoms: C_17  and  C_18
REMARK   15  A    between atoms: C_17  and  C_19
REMARK   16  A    between atoms: C_21  and  C_22
REMARK   17  A    between atoms: C_22  and  C_23
REMARK   18  A    between atoms: C_26  and  C_27
REMARK   19  A    between atoms: C_28  and  C_29
REMARK                            x       y       z     vdW  Elec       q    Type
REMARK                         _______ _______ _______ _____ _____    ______ ____
ROOT
ATOM      1  C   LIG A   1      -8.634   1.024 129.967  0.00  0.00    -0.027 C 
ATOM      2  C   LIG A   1      -8.523   2.249 129.409  0.00  0.00    -0.076 C 
ATOM      3  C   LIG A   1      -8.823   3.527 130.125  0.00  0.00    +0.038 C 
ENDROOT
BRANCH   1   4
ATOM      4  C   LIG A   1      -8.897   0.722 131.425  0.00  0.00    +0.031 C 
BRANCH   4   5
ATOM      5  C   LIG A   1      -8.080  -0.418 132.072  0.00  0.00    +0.034 C 
BRANCH   5   7
ATOM      6  C   LIG A   1      -5.776  -0.865 130.976  0.00  0.00    +0.038 C 
ATOM      7  C   LIG A   1      -7.225  -1.255 131.106  0.00  0.00    -0.076 C 
ATOM      8  C   LIG A   1      -7.750  -2.292 130.412  0.00  0.00    -0.023 C 
BRANCH   8   9
ATOM      9  C   LIG A   1      -7.009  -3.202 129.451  0.00  0.00    +0.066 C 
BRANCH   9  10
ATOM     10  C   LIG A   1      -7.409  -2.975 128.019  0.00  0.00    +0.007 C 
ATOM     11  C   LIG A   1      -8.612  -3.301 127.535  0.00  0.00    +0.058 C 
ATOM     12  C   LIG A   1      -9.013  -2.922 126.168  0.00  0.00    +0.183 C 
ATOM     13  C   LIG A   1      -7.928  -2.619 125.195  0.00  0.00    +0.003 C 
ATOM     14  C   LIG A   1      -8.345  -2.546 123.756  0.00  0.00    +0.048 C 
ATOM     15  C   LIG A   1      -6.665  -2.470 125.641  0.00  0.00    +0.003 C 
ATOM     16  C   LIG A   1      -5.439  -2.356 124.784  0.00  0.00    +0.048 C 
ATOM     17  C   LIG A   1      -6.409  -2.366 127.109  0.00  0.00    +0.186 C 
ATOM     18  O   LIG A   1      -5.400  -1.821 127.540  0.00  0.00    -0.287 OA
ATOM     19  O   LIG A   1     -10.199  -2.909 125.865  0.00  0.00    -0.288 OA
ENDBRANCH   9  10
ENDBRANCH   8   9
ENDBRANCH   5   7
ENDBRANCH   4   5
ENDBRANCH   1   4
BRANCH   2  20
ATOM     20  C   LIG A   1      -7.879   2.435 128.059  0.00  0.00    +0.034 C 
BRANCH  20  21
ATOM     21  C   LIG A   1      -7.121   1.250 127.441  0.00  0.00    +0.032 C 
BRANCH  21  22
ATOM     22  C   LIG A   1      -6.972   1.131 125.940  0.00  0.00    -0.016 C 
ATOM     23  C   LIG A   1      -7.811   1.157 124.882  0.00  0.00    +0.033 C 
BRANCH  23  24
ATOM     24  C   LIG A   1      -9.288   1.249 124.893  0.00  0.00    +0.333 C 
ATOM     25  O   LIG A   1     -10.058   0.283 125.031  0.00  0.00    -0.245 OA
BRANCH  24  26
ATOM     26  O   LIG A   1      -9.812   2.442 124.742  0.00  0.00    -0.477 OA
ATOM     27  H   LIG A   1     -10.215   2.719 125.584  0.00  0.00    +0.295 HD
ENDBRANCH  24  26
ENDBRANCH  23  24
BRANCH  23  28
ATOM     28  C   LIG A   1      -7.235   1.234 123.472  0.00  0.00    +0.046 C 
BRANCH  28  29
ATOM     29  C   LIG A   1      -7.387   2.547 122.687  0.00  0.00    +0.032 C 
BRANCH  29  30
ATOM     30  C   LIG A   1      -6.165   3.420 122.615  0.00  0.00    -0.028 C 
ATOM     31  C   LIG A   1      -5.698   4.085 121.539  0.00  0.00    -0.080 C 
ATOM     32  C   LIG A   1      -6.342   4.059 120.180  0.00  0.00    +0.038 C 
ATOM     33  C   LIG A   1      -4.437   4.898 121.647  0.00  0.00    +0.038 C 
ENDBRANCH  29  30
ENDBRANCH  28  29
ENDBRANCH  23  28
ENDBRANCH  21  22
ENDBRANCH  20  21
ENDBRANCH   2  20
TORSDOF 13
ENDMDL
MODEL 7
REMARK VINA RESULT:      -8.0      2.221      2.908
REMARK  Name = NuBBE_641
REMARK  19 active torsions:
REMARK  status: ('A' for Active; 'I' for Inactive)
REMARK    1  A    between atoms: C_1  and  C_2
REMARK    2  A    between atoms: C_2  and  C_3
REMARK    3  A    between atoms: C_3  and  C_4
REMARK    4  A    between atoms: C_4  and  C_5
REMARK    5  A    between atoms: C_6  and  C_7
REMARK    6  A    between atoms: C_6  and  C_20
REMARK    7  A    between atoms: C_7  and  C_8
REMARK    8  A    between atoms: C_8  and  C_9
REMARK    9  A    between atoms: C_10  and  C_11
REMARK   10  A    between atoms: C_10  and  C_14
REMARK   11  A    between atoms: C_11  and  O_12
REMARK   12  A    between atoms: C_14  and  C_15
REMARK   13  A    between atoms: C_15  and  C_16
REMARK   14  A    between atoms: C_17  and  C_18
REMARK   15  A    between atoms: C_17  and  C_19
REMARK   16  A    between atoms: C_21  and  C_22
REMARK   17  A    between atoms: C_22  and  C_23
REMARK   18  A    between atoms: C_26  and  C_27
REMARK   19  A    between atoms: C_28  and  C_29
REMARK                            x       y       z     vdW  Elec       q    Type
REMARK                         _______ _______ _______ _____ _____    ______ ____
ROOT
ATOM      1  C   LIG A   1      -7.539   2.078 131.162  0.00  0.00    -0.027 C 
ATOM      2  C   LIG A   1      -8.036   2.422 129.954  0.00  0.00    -0.076 C 
ATOM      3  C   LIG A   1      -9.488   2.653 129.679  0.00  0.00    +0.038 C 
ENDROOT
BRANCH   1   4
ATOM      4  C   LIG A   1      -8.299   2.041 132.469  0.00  0.00    +0.031 C 
BRANCH   4   5
ATOM      5  C   LIG A   1      -7.854   3.021 133.576  0.00  0.00    +0.034 C 
BRANCH   5   7
ATOM      6  C   LIG A   1      -7.936   5.458 134.451  0.00  0.00    +0.038 C 
ATOM      7  C   LIG A   1      -8.525   4.404 133.550  0.00  0.00    -0.076 C 
ATOM      8  C   LIG A   1      -9.588   4.660 132.753  0.00  0.00    -0.023 C 
BRANCH   8   9
ATOM      9  C   LIG A   1     -10.321   5.983 132.621  0.00  0.00    +0.066 C 
BRANCH   9  10
ATOM     10  C   LIG A   1     -10.522   6.390 131.187  0.00  0.00    +0.007 C 
ATOM     11  C   LIG A   1      -9.625   6.145 130.225  0.00  0.00    +0.058 C 
ATOM     12  C   LIG A   1      -9.929   6.424 128.811  0.00  0.00    +0.183 C 
ATOM     13  C   LIG A   1     -11.013   7.404 128.523  0.00  0.00    +0.003 C 
ATOM     14  C   LIG A   1     -11.086   7.898 127.109  0.00  0.00    +0.048 C 
ATOM     15  C   LIG A   1     -11.817   7.811 129.524  0.00  0.00    +0.003 C 
ATOM     16  C   LIG A   1     -12.820   8.924 129.449  0.00  0.00    +0.048 C 
ATOM     17  C   LIG A   1     -11.775   7.100 130.838  0.00  0.00    +0.186 C 
ATOM     18  O   LIG A   1     -12.731   7.128 131.605  0.00  0.00    -0.287 OA
ATOM     19  O   LIG A   1      -9.269   5.888 127.930  0.00  0.00    -0.288 OA
ENDBRANCH   9  10
ENDBRANCH   8   9
ENDBRANCH   5   7
ENDBRANCH   4   5
ENDBRANCH   1   4
BRANCH   2  20
ATOM     20  C   LIG A   1      -7.124   2.804 128.816  0.00  0.00    +0.034 C 
BRANCH  20  21
ATOM     21  C   LIG A   1      -6.951   1.813 127.655  0.00  0.00    +0.032 C 
BRANCH  21  22
ATOM     22  C   LIG A   1      -7.978   1.742 126.544  0.00  0.00    -0.016 C 
ATOM     23  C   LIG A   1      -8.347   2.542 125.521  0.00  0.00    +0.033 C 
BRANCH  23  24
ATOM     24  C   LIG A   1      -7.847   3.896 125.196  0.00  0.00    +0.333 C 
ATOM     25  O   LIG A   1      -6.682   4.159 124.852  0.00  0.00    -0.245 OA
BRANCH  24  26
ATOM     26  O   LIG A   1      -8.705   4.884 125.283  0.00  0.00    -0.477 OA
ATOM     27  H   LIG A   1      -8.266   5.650 125.695  0.00  0.00    +0.295 HD
ENDBRANCH  24  26
ENDBRANCH  23  24
BRANCH  23  28
ATOM     28  C   LIG A   1      -9.294   2.001 124.454  0.00  0.00    +0.046 C 
BRANCH  28  29
ATOM     29  C   LIG A   1      -8.742   1.014 123.413  0.00  0.00    +0.032 C 
BRANCH  29  30
ATOM     30  C   LIG A   1      -9.253  -0.396 123.504  0.00  0.00    -0.028 C 
ATOM     31  C   LIG A   1      -8.563  -1.532 123.278  0.00  0.00    -0.080 C 
ATOM     32  C   LIG A   1      -7.115  -1.579 122.875  0.00  0.00    +0.038 C 
ATOM     33  C   LIG A   1      -9.249  -2.865 123.395  0.00  0.00    +0.038 C 
ENDBRANCH  29  30
ENDBRANCH  28  29
ENDBRANCH  23  28
ENDBRANCH  21  22
ENDBRANCH  20  21
ENDBRANCH   2  20
TORSDOF 13
ENDMDL
MODEL 8
REMARK VINA RESULT:      -8.0      3.754      7.895
REMARK  Name = NuBBE_641
REMARK  19 active torsions:
REMARK  status: ('A' for Active; 'I' for Inactive)
REMARK    1  A    between atoms: C_1  and  C_2
REMARK    2  A    between atoms: C_2  and  C_3
REMARK    3  A    between atoms: C_3  and  C_4
REMARK    4  A    between atoms: C_4  and  C_5
REMARK    5  A    between atoms: C_6  and  C_7
REMARK    6  A    between atoms: C_6  and  C_20
REMARK    7  A    between atoms: C_7  and  C_8
REMARK    8  A    between atoms: C_8  and  C_9
REMARK    9  A    between atoms: C_10  and  C_11
REMARK   10  A    between atoms: C_10  and  C_14
REMARK   11  A    between atoms: C_11  and  O_12
REMARK   12  A    between atoms: C_14  and  C_15
REMARK   13  A    between atoms: C_15  and  C_16
REMARK   14  A    between atoms: C_17  and  C_18
REMARK   15  A    between atoms: C_17  and  C_19
REMARK   16  A    between atoms: C_21  and  C_22
REMARK   17  A    between atoms: C_22  and  C_23
REMARK   18  A    between atoms: C_26  and  C_27
REMARK   19  A    between atoms: C_28  and  C_29
REMARK                            x       y       z     vdW  Elec       q    Type
REMARK                         _______ _______ _______ _____ _____    ______ ____
ROOT
ATOM      1  C   LIG A   1      -7.499  -0.086 130.522  0.00  0.00    -0.027 C 
ATOM      2  C   LIG A   1      -8.396   0.922 130.567  0.00  0.00    -0.076 C 
ATOM      3  C   LIG A   1      -9.287   1.202 131.735  0.00  0.00    +0.038 C 
ENDROOT
BRANCH   1   4
ATOM      4  C   LIG A   1      -7.100  -0.985 131.671  0.00  0.00    +0.031 C 
BRANCH   4   5
ATOM      5  C   LIG A   1      -7.613  -2.441 131.644  0.00  0.00    +0.034 C 
BRANCH   5   7
ATOM      6  C   LIG A   1      -6.307  -4.121 130.167  0.00  0.00    +0.038 C 
ATOM      7  C   LIG A   1      -7.470  -3.172 130.299  0.00  0.00    -0.076 C 
ATOM      8  C   LIG A   1      -8.348  -2.975 129.289  0.00  0.00    -0.023 C 
BRANCH   8   9
ATOM      9  C   LIG A   1      -8.327  -3.649 127.929  0.00  0.00    +0.066 C 
BRANCH   9  10
ATOM     10  C   LIG A   1      -8.139  -2.670 126.804  0.00  0.00    +0.007 C 
ATOM     11  C   LIG A   1      -9.157  -2.141 126.116  0.00  0.00    +0.058 C 
ATOM     12  C   LIG A   1      -8.935  -1.072 125.126  0.00  0.00    +0.183 C 
ATOM     13  C   LIG A   1      -7.565  -0.937 124.560  0.00  0.00    +0.003 C 
ATOM     14  C   LIG A   1      -7.446  -0.065 123.345  0.00  0.00    +0.048 C 
ATOM     15  C   LIG A   1      -6.547  -1.613 125.126  0.00  0.00    +0.003 C 
ATOM     16  C   LIG A   1      -5.159  -1.740 124.571  0.00  0.00    +0.048 C 
ATOM     17  C   LIG A   1      -6.752  -2.285 126.445  0.00  0.00    +0.186 C 
ATOM     18  O   LIG A   1      -5.808  -2.530 127.186  0.00  0.00    -0.287 OA
ATOM     19  O   LIG A   1      -9.872  -0.369 124.771  0.00  0.00    -0.288 OA
ENDBRANCH   9  10
ENDBRANCH   8   9
ENDBRANCH   5   7
ENDBRANCH   4   5
ENDBRANCH   1   4
BRANCH   2  20
ATOM     20  C   LIG A   1      -8.426   1.987 129.500  0.00  0.00    +0.034 C 
BRANCH  20  21
ATOM     21  C   LIG A   1      -8.639   1.554 128.042  0.00  0.00    +0.032 C 
BRANCH  21  22
ATOM     22  C   LIG A   1      -7.507   1.644 127.040  0.00  0.00    -0.016 C 
ATOM     23  C   LIG A   1      -7.045   2.586 126.190  0.00  0.00    +0.033 C 
BRANCH  23  24
ATOM     24  C   LIG A   1      -7.617   3.923 125.913  0.00  0.00    +0.333 C 
ATOM     25  O   LIG A   1      -7.093   5.001 126.240  0.00  0.00    -0.245 OA
BRANCH  24  26
ATOM     26  O   LIG A   1      -8.763   3.960 125.275  0.00  0.00    -0.477 OA
ATOM     27  H   LIG A   1      -8.608   4.261 124.362  0.00  0.00    +0.295 HD
ENDBRANCH  24  26
ENDBRANCH  23  24
BRANCH  23  28
ATOM     28  C   LIG A   1      -5.706   2.372 125.492  0.00  0.00    +0.046 C 
BRANCH  28  29
ATOM     29  C   LIG A   1      -4.488   1.982 126.345  0.00  0.00    +0.032 C 
BRANCH  29  30
ATOM     30  C   LIG A   1      -4.039   2.997 127.359  0.00  0.00    -0.028 C 
ATOM     31  C   LIG A   1      -3.974   2.844 128.696  0.00  0.00    -0.080 C 
ATOM     32  C   LIG A   1      -4.361   1.587 129.425  0.00  0.00    +0.038 C 
ATOM     33  C   LIG A   1      -3.519   3.985 129.563  0.00  0.00    +0.038 C 
ENDBRANCH  29  30
ENDBRANCH  28  29
ENDBRANCH  23  28
ENDBRANCH  21  22
ENDBRANCH  20  21
ENDBRANCH   2  20
TORSDOF 13
ENDMDL
MODEL 9
REMARK VINA RESULT:      -8.0      3.585      7.491
REMARK  Name = NuBBE_641
REMARK  19 active torsions:
REMARK  status: ('A' for Active; 'I' for Inactive)
REMARK    1  A    between atoms: C_1  and  C_2
REMARK    2  A    between atoms: C_2  and  C_3
REMARK    3  A    between atoms: C_3  and  C_4
REMARK    4  A    between atoms: C_4  and  C_5
REMARK    5  A    between atoms: C_6  and  C_7
REMARK    6  A    between atoms: C_6  and  C_20
REMARK    7  A    between atoms: C_7  and  C_8
REMARK    8  A    between atoms: C_8  and  C_9
REMARK    9  A    between atoms: C_10  and  C_11
REMARK   10  A    between atoms: C_10  and  C_14
REMARK   11  A    between atoms: C_11  and  O_12
REMARK   12  A    between atoms: C_14  and  C_15
REMARK   13  A    between atoms: C_15  and  C_16
REMARK   14  A    between atoms: C_17  and  C_18
REMARK   15  A    between atoms: C_17  and  C_19
REMARK   16  A    between atoms: C_21  and  C_22
REMARK   17  A    between atoms: C_22  and  C_23
REMARK   18  A    between atoms: C_26  and  C_27
REMARK   19  A    between atoms: C_28  and  C_29
REMARK                            x       y       z     vdW  Elec       q    Type
REMARK                         _______ _______ _______ _____ _____    ______ ____
ROOT
ATOM      1  C   LIG A   1      -7.643  -3.280 124.647  0.00  0.00    -0.027 C 
ATOM      2  C   LIG A   1      -8.304  -2.920 123.527  0.00  0.00    -0.076 C 
ATOM      3  C   LIG A   1      -9.748  -3.215 123.272  0.00  0.00    +0.038 C 
ENDROOT
BRANCH   1   4
ATOM      4  C   LIG A   1      -8.252  -3.868 125.900  0.00  0.00    +0.031 C 
BRANCH   4   5
ATOM      5  C   LIG A   1      -8.715  -2.882 126.995  0.00  0.00    +0.034 C 
BRANCH   5   7
ATOM      6  C   LIG A   1      -6.347  -2.272 127.847  0.00  0.00    +0.038 C 
ATOM      7  C   LIG A   1      -7.752  -2.702 128.179  0.00  0.00    -0.076 C 
ATOM      8  C   LIG A   1      -8.150  -2.915 129.455  0.00  0.00    -0.023 C 
BRANCH   8   9
ATOM      9  C   LIG A   1      -7.304  -2.750 130.704  0.00  0.00    +0.066 C 
BRANCH   9  10
ATOM     10  C   LIG A   1      -7.556  -1.442 131.402  0.00  0.00    +0.007 C 
ATOM     11  C   LIG A   1      -8.633  -0.684 131.168  0.00  0.00    +0.058 C 
ATOM     12  C   LIG A   1      -8.916   0.511 131.983  0.00  0.00    +0.183 C 
ATOM     13  C   LIG A   1      -7.776   1.125 132.718  0.00  0.00    +0.003 C 
ATOM     14  C   LIG A   1      -8.022   2.496 133.274  0.00  0.00    +0.048 C 
ATOM     15  C   LIG A   1      -6.611   0.454 132.807  0.00  0.00    +0.003 C 
ATOM     16  C   LIG A   1      -5.319   1.003 133.336  0.00  0.00    +0.048 C 
ATOM     17  C   LIG A   1      -6.552  -0.979 132.390  0.00  0.00    +0.186 C 
ATOM     18  O   LIG A   1      -5.691  -1.733 132.828  0.00  0.00    -0.287 OA
ATOM     19  O   LIG A   1     -10.046   0.982 131.999  0.00  0.00    -0.288 OA
ENDBRANCH   9  10
ENDBRANCH   8   9
ENDBRANCH   5   7
ENDBRANCH   4   5
ENDBRANCH   1   4
BRANCH   2  20
ATOM     20  C   LIG A   1      -7.676  -1.996 122.514  0.00  0.00    +0.034 C 
BRANCH  20  21
ATOM     21  C   LIG A   1      -6.800  -0.842 123.023  0.00  0.00    +0.032 C 
BRANCH  21  22
ATOM     22  C   LIG A   1      -7.362   0.184 123.983  0.00  0.00    -0.016 C 
ATOM     23  C   LIG A   1      -8.449   0.985 124.011  0.00  0.00    +0.033 C 
BRANCH  23  24
ATOM     24  C   LIG A   1      -9.479   1.160 122.964  0.00  0.00    +0.333 C 
ATOM     25  O   LIG A   1      -9.520   2.107 122.160  0.00  0.00    -0.245 OA
BRANCH  24  26
ATOM     26  O   LIG A   1     -10.414   0.243 122.888  0.00  0.00    -0.477 OA
ATOM     27  H   LIG A   1     -10.452  -0.240 123.732  0.00  0.00    +0.295 HD
ENDBRANCH  24  26
ENDBRANCH  23  24
BRANCH  23  28
ATOM     28  C   LIG A   1      -8.793   1.734 125.295  0.00  0.00    +0.046 C 
BRANCH  28  29
ATOM     29  C   LIG A   1      -8.932   0.931 126.599  0.00  0.00    +0.032 C 
BRANCH  29  30
ATOM     30  C   LIG A   1      -7.737   0.941 127.511  0.00  0.00    -0.028 C 
ATOM     31  C   LIG A   1      -7.552   1.705 128.607  0.00  0.00    -0.080 C 
ATOM     32  C   LIG A   1      -8.543   2.716 129.114  0.00  0.00    +0.038 C 
ATOM     33  C   LIG A   1      -6.274   1.596 129.392  0.00  0.00    +0.038 C 
ENDBRANCH  29  30
ENDBRANCH  28  29
ENDBRANCH  23  28
ENDBRANCH  21  22
ENDBRANCH  20  21
ENDBRANCH   2  20
TORSDOF 13
ENDMDL
