MODEL 1
REMARK VINA RESULT:      -5.2      0.000      0.000
REMARK  Name = NuBBE_2129
REMARK  4 active torsions:
REMARK  status: ('A' for Active; 'I' for Inactive)
REMARK    1  A    between atoms: C_1  and  C_2
REMARK    2  A    between atoms: C_2  and  C_3
REMARK    3  A    between atoms: C_3  and  C_4
REMARK    4  A    between atoms: C_4  and  C_5
REMARK                            x       y       z     vdW  Elec       q    Type
REMARK                         _______ _______ _______ _____ _____    ______ ____
ROOT
ATOM      1  C   LIG A   1     -13.182   8.147 128.904  0.00  0.00    -0.011 C 
ATOM      2  C   LIG A   1     -11.902   9.001 128.866  0.00  0.00    +0.003 C 
ATOM      3  C   LIG A   1     -10.738   8.289 128.179  0.00  0.00    +0.000 C 
ATOM      4  C   LIG A   1     -11.114   7.842 126.769  0.00  0.00    +0.000 C 
ATOM      5  C   LIG A   1     -12.382   6.993 126.762  0.00  0.00    +0.000 C 
ATOM      6  C   LIG A   1     -13.539   7.693 127.475  0.00  0.00    +0.003 C 
ENDROOT
BRANCH   1   7
ATOM      7  C   LIG A   1     -13.102   6.937 129.862  0.00  0.00    +0.003 C 
BRANCH   7   8
ATOM      8  C   LIG A   1     -12.651   7.303 131.281  0.00  0.00    -0.000 C 
BRANCH   8  10
ATOM      9  C   LIG A   1     -11.083   5.427 130.668  0.00  0.00    +0.004 C 
ATOM     10  C   LIG A   1     -11.440   6.474 131.712  0.00  0.00    -0.003 C 
ENDBRANCH   8  10
ENDBRANCH   7   8
ENDBRANCH   1   7
TORSDOF 3
ENDMDL
MODEL 2
REMARK VINA RESULT:      -5.0     11.117     11.838
REMARK  Name = NuBBE_2129
REMARK  4 active torsions:
REMARK  status: ('A' for Active; 'I' for Inactive)
REMARK    1  A    between atoms: C_1  and  C_2
REMARK    2  A    between atoms: C_2  and  C_3
REMARK    3  A    between atoms: C_3  and  C_4
REMARK    4  A    between atoms: C_4  and  C_5
REMARK                            x       y       z     vdW  Elec       q    Type
REMARK                         _______ _______ _______ _____ _____    ______ ____
ROOT
ATOM      1  C   LIG A   1      -8.853  -3.669 124.553  0.00  0.00    -0.011 C 
ATOM      2  C   LIG A   1      -9.433  -3.083 123.254  0.00  0.00    +0.003 C 
ATOM      3  C   LIG A   1      -8.801  -1.743 122.876  0.00  0.00    +0.000 C 
ATOM      4  C   LIG A   1      -7.283  -1.856 122.772  0.00  0.00    +0.000 C 
ATOM      5  C   LIG A   1      -6.667  -2.436 124.041  0.00  0.00    +0.000 C 
ATOM      6  C   LIG A   1      -7.320  -3.762 124.434  0.00  0.00    +0.003 C 
ENDROOT
BRANCH   1   7
ATOM      7  C   LIG A   1      -9.261  -2.897 125.828  0.00  0.00    +0.003 C 
BRANCH   7   8
ATOM      8  C   LIG A   1      -8.908  -3.626 127.129  0.00  0.00    -0.000 C 
BRANCH   8  10
ATOM      9  C   LIG A   1      -8.052  -3.193 129.460  0.00  0.00    +0.004 C 
ATOM     10  C   LIG A   1      -7.961  -2.794 127.995  0.00  0.00    -0.003 C 
ENDBRANCH   8  10
ENDBRANCH   7   8
ENDBRANCH   1   7
TORSDOF 3
ENDMDL
MODEL 3
REMARK VINA RESULT:      -4.9      1.185      2.546
REMARK  Name = NuBBE_2129
REMARK  4 active torsions:
REMARK  status: ('A' for Active; 'I' for Inactive)
REMARK    1  A    between atoms: C_1  and  C_2
REMARK    2  A    between atoms: C_2  and  C_3
REMARK    3  A    between atoms: C_3  and  C_4
REMARK    4  A    between atoms: C_4  and  C_5
REMARK                            x       y       z     vdW  Elec       q    Type
REMARK                         _______ _______ _______ _____ _____    ______ ____
ROOT
ATOM      1  C   LIG A   1     -10.723   8.166 128.416  0.00  0.00    -0.011 C 
ATOM      2  C   LIG A   1     -11.103   7.943 126.941  0.00  0.00    +0.003 C 
ATOM      3  C   LIG A   1     -12.319   7.034 126.774  0.00  0.00    +0.000 C 
ATOM      4  C   LIG A   1     -13.520   7.565 127.552  0.00  0.00    +0.000 C 
ATOM      5  C   LIG A   1     -13.185   7.802 129.022  0.00  0.00    +0.000 C 
ATOM      6  C   LIG A   1     -11.950   8.688 129.187  0.00  0.00    +0.003 C 
ENDROOT
BRANCH   1   7
ATOM      7  C   LIG A   1     -10.128   6.918 129.107  0.00  0.00    +0.003 C 
BRANCH   7   8
ATOM      8  C   LIG A   1      -9.267   7.244 130.332  0.00  0.00    -0.000 C 
BRANCH   8  10
ATOM      9  C   LIG A   1     -11.048   6.370 131.887  0.00  0.00    +0.004 C 
ATOM     10  C   LIG A   1      -9.579   6.305 131.498  0.00  0.00    -0.003 C 
ENDBRANCH   8  10
ENDBRANCH   7   8
ENDBRANCH   1   7
TORSDOF 3
ENDMDL
MODEL 4
REMARK VINA RESULT:      -4.7     10.615     12.107
REMARK  Name = NuBBE_2129
REMARK  4 active torsions:
REMARK  status: ('A' for Active; 'I' for Inactive)
REMARK    1  A    between atoms: C_1  and  C_2
REMARK    2  A    between atoms: C_2  and  C_3
REMARK    3  A    between atoms: C_3  and  C_4
REMARK    4  A    between atoms: C_4  and  C_5
REMARK                            x       y       z     vdW  Elec       q    Type
REMARK                         _______ _______ _______ _____ _____    ______ ____
ROOT
ATOM      1  C   LIG A   1      -8.411  -1.178 123.461  0.00  0.00    -0.011 C 
ATOM      2  C   LIG A   1      -8.987  -2.580 123.193  0.00  0.00    +0.003 C 
ATOM      3  C   LIG A   1      -8.820  -3.525 124.382  0.00  0.00    +0.000 C 
ATOM      4  C   LIG A   1      -9.435  -2.937 125.649  0.00  0.00    +0.000 C 
ATOM      5  C   LIG A   1      -8.892  -1.543 125.950  0.00  0.00    +0.000 C 
ATOM      6  C   LIG A   1      -9.033  -0.607 124.750  0.00  0.00    +0.003 C 
ENDROOT
BRANCH   1   7
ATOM      7  C   LIG A   1      -6.868  -1.135 123.528  0.00  0.00    +0.003 C 
BRANCH   7   8
ATOM      8  C   LIG A   1      -6.181  -2.038 122.498  0.00  0.00    -0.000 C 
BRANCH   8  10
ATOM      9  C   LIG A   1      -5.283  -2.926 124.680  0.00  0.00    +0.004 C 
ATOM     10  C   LIG A   1      -5.174  -2.978 123.163  0.00  0.00    -0.003 C 
ENDBRANCH   8  10
ENDBRANCH   7   8
ENDBRANCH   1   7
TORSDOF 3
ENDMDL
MODEL 5
REMARK VINA RESULT:      -4.4     10.953     12.041
REMARK  Name = NuBBE_2129
REMARK  4 active torsions:
REMARK  status: ('A' for Active; 'I' for Inactive)
REMARK    1  A    between atoms: C_1  and  C_2
REMARK    2  A    between atoms: C_2  and  C_3
REMARK    3  A    between atoms: C_3  and  C_4
REMARK    4  A    between atoms: C_4  and  C_5
REMARK                            x       y       z     vdW  Elec       q    Type
REMARK                         _______ _______ _______ _____ _____    ______ ____
ROOT
ATOM      1  C   LIG A   1      -7.018  -1.721 124.955  0.00  0.00    -0.011 C 
ATOM      2  C   LIG A   1      -5.765  -2.493 125.407  0.00  0.00    +0.003 C 
ATOM      3  C   LIG A   1      -5.281  -3.498 124.362  0.00  0.00    +0.000 C 
ATOM      4  C   LIG A   1      -5.027  -2.822 123.018  0.00  0.00    +0.000 C 
ATOM      5  C   LIG A   1      -6.247  -2.042 122.534  0.00  0.00    +0.000 C 
ATOM      6  C   LIG A   1      -6.747  -1.058 123.591  0.00  0.00    +0.003 C 
ENDROOT
BRANCH   1   7
ATOM      7  C   LIG A   1      -8.301  -2.581 124.905  0.00  0.00    +0.003 C 
BRANCH   7   8
ATOM      8  C   LIG A   1      -9.136  -2.518 126.189  0.00  0.00    -0.000 C 
BRANCH   8  10
ATOM      9  C   LIG A   1      -8.405  -3.337 128.458  0.00  0.00    +0.004 C 
ATOM     10  C   LIG A   1      -8.890  -3.741 127.074  0.00  0.00    -0.003 C 
ENDBRANCH   8  10
ENDBRANCH   7   8
ENDBRANCH   1   7
TORSDOF 3
ENDMDL
MODEL 6
REMARK VINA RESULT:      -4.3      2.329      3.292
REMARK  Name = NuBBE_2129
REMARK  4 active torsions:
REMARK  status: ('A' for Active; 'I' for Inactive)
REMARK    1  A    between atoms: C_1  and  C_2
REMARK    2  A    between atoms: C_2  and  C_3
REMARK    3  A    between atoms: C_3  and  C_4
REMARK    4  A    between atoms: C_4  and  C_5
REMARK                            x       y       z     vdW  Elec       q    Type
REMARK                         _______ _______ _______ _____ _____    ______ ____
ROOT
ATOM      1  C   LIG A   1     -10.875   6.316 129.417  0.00  0.00    -0.011 C 
ATOM      2  C   LIG A   1     -12.412   6.283 129.487  0.00  0.00    +0.003 C 
ATOM      3  C   LIG A   1     -13.034   7.678 129.509  0.00  0.00    +0.000 C 
ATOM      4  C   LIG A   1     -12.580   8.506 128.310  0.00  0.00    +0.000 C 
ATOM      5  C   LIG A   1     -11.059   8.564 128.202  0.00  0.00    +0.000 C 
ATOM      6  C   LIG A   1     -10.436   7.167 128.209  0.00  0.00    +0.003 C 
ENDROOT
BRANCH   1   7
ATOM      7  C   LIG A   1     -10.197   6.810 130.714  0.00  0.00    +0.003 C 
BRANCH   7   8
ATOM      8  C   LIG A   1      -8.709   7.139 130.546  0.00  0.00    -0.000 C 
BRANCH   8  10
ATOM      9  C   LIG A   1      -6.377   6.682 131.386  0.00  0.00    +0.004 C 
ATOM     10  C   LIG A   1      -7.863   6.463 131.626  0.00  0.00    -0.003 C 
ENDBRANCH   8  10
ENDBRANCH   7   8
ENDBRANCH   1   7
TORSDOF 3
ENDMDL
MODEL 7
REMARK VINA RESULT:      -4.3     10.850     11.956
REMARK  Name = NuBBE_2129
REMARK  4 active torsions:
REMARK  status: ('A' for Active; 'I' for Inactive)
REMARK    1  A    between atoms: C_1  and  C_2
REMARK    2  A    between atoms: C_2  and  C_3
REMARK    3  A    between atoms: C_3  and  C_4
REMARK    4  A    between atoms: C_4  and  C_5
REMARK                            x       y       z     vdW  Elec       q    Type
REMARK                         _______ _______ _______ _____ _____    ______ ____
ROOT
ATOM      1  C   LIG A   1      -6.447  -2.529 123.960  0.00  0.00    -0.011 C 
ATOM      2  C   LIG A   1      -7.175  -3.829 124.345  0.00  0.00    +0.003 C 
ATOM      3  C   LIG A   1      -8.678  -3.631 124.537  0.00  0.00    +0.000 C 
ATOM      4  C   LIG A   1      -9.319  -3.016 123.296  0.00  0.00    +0.000 C 
ATOM      5  C   LIG A   1      -8.624  -1.723 122.878  0.00  0.00    +0.000 C 
ATOM      6  C   LIG A   1      -7.117  -1.916 122.715  0.00  0.00    +0.003 C 
ENDROOT
BRANCH   1   7
ATOM      7  C   LIG A   1      -6.362  -1.494 125.105  0.00  0.00    +0.003 C 
BRANCH   7   8
ATOM      8  C   LIG A   1      -5.811  -2.069 126.415  0.00  0.00    -0.000 C 
BRANCH   8  10
ATOM      9  C   LIG A   1      -7.799  -2.521 127.896  0.00  0.00    +0.004 C 
ATOM     10  C   LIG A   1      -6.626  -1.594 127.619  0.00  0.00    -0.003 C 
ENDBRANCH   8  10
ENDBRANCH   7   8
ENDBRANCH   1   7
TORSDOF 3
ENDMDL
MODEL 8
REMARK VINA RESULT:      -4.3      1.901      4.300
REMARK  Name = NuBBE_2129
REMARK  4 active torsions:
REMARK  status: ('A' for Active; 'I' for Inactive)
REMARK    1  A    between atoms: C_1  and  C_2
REMARK    2  A    between atoms: C_2  and  C_3
REMARK    3  A    between atoms: C_3  and  C_4
REMARK    4  A    between atoms: C_4  and  C_5
REMARK                            x       y       z     vdW  Elec       q    Type
REMARK                         _______ _______ _______ _____ _____    ______ ____
ROOT
ATOM      1  C   LIG A   1     -10.879   5.698 130.944  0.00  0.00    -0.011 C 
ATOM      2  C   LIG A   1     -10.042   6.298 129.800  0.00  0.00    +0.003 C 
ATOM      3  C   LIG A   1      -8.972   7.269 130.297  0.00  0.00    +0.000 C 
ATOM      4  C   LIG A   1      -8.060   6.610 131.327  0.00  0.00    +0.000 C 
ATOM      5  C   LIG A   1      -8.852   6.000 132.479  0.00  0.00    +0.000 C 
ATOM      6  C   LIG A   1      -9.941   5.050 131.980  0.00  0.00    +0.003 C 
ENDROOT
BRANCH   1   7
ATOM      7  C   LIG A   1     -11.833   6.708 131.620  0.00  0.00    +0.003 C 
BRANCH   7   8
ATOM      8  C   LIG A   1     -12.946   7.218 130.697  0.00  0.00    -0.000 C 
BRANCH   8  10
ATOM      9  C   LIG A   1     -12.534   8.926 128.890  0.00  0.00    +0.004 C 
ATOM     10  C   LIG A   1     -12.768   8.703 130.376  0.00  0.00    -0.003 C 
ENDBRANCH   8  10
ENDBRANCH   7   8
ENDBRANCH   1   7
TORSDOF 3
ENDMDL
MODEL 9
REMARK VINA RESULT:      -4.2     10.681     12.066
REMARK  Name = NuBBE_2129
REMARK  4 active torsions:
REMARK  status: ('A' for Active; 'I' for Inactive)
REMARK    1  A    between atoms: C_1  and  C_2
REMARK    2  A    between atoms: C_2  and  C_3
REMARK    3  A    between atoms: C_3  and  C_4
REMARK    4  A    between atoms: C_4  and  C_5
REMARK                            x       y       z     vdW  Elec       q    Type
REMARK                         _______ _______ _______ _____ _____    ______ ____
ROOT
ATOM      1  C   LIG A   1      -8.222  -2.506 128.638  0.00  0.00    -0.011 C 
ATOM      2  C   LIG A   1      -7.915  -3.132 130.010  0.00  0.00    +0.003 C 
ATOM      3  C   LIG A   1      -6.622  -3.945 130.013  0.00  0.00    +0.000 C 
ATOM      4  C   LIG A   1      -5.438  -3.106 129.540  0.00  0.00    +0.000 C 
ATOM      5  C   LIG A   1      -5.703  -2.465 128.181  0.00  0.00    +0.000 C 
ATOM      6  C   LIG A   1      -7.012  -1.675 128.171  0.00  0.00    +0.003 C 
ENDROOT
BRANCH   1   7
ATOM      7  C   LIG A   1      -8.636  -3.532 127.558  0.00  0.00    +0.003 C 
BRANCH   7   8
ATOM      8  C   LIG A   1      -9.156  -2.891 126.266  0.00  0.00    -0.000 C 
BRANCH   8  10
ATOM      9  C   LIG A   1      -9.438  -3.337 123.802  0.00  0.00    +0.004 C 
ATOM     10  C   LIG A   1      -8.573  -3.577 125.030  0.00  0.00    -0.003 C 
ENDBRANCH   8  10
ENDBRANCH   7   8
ENDBRANCH   1   7
TORSDOF 3
ENDMDL
