MODEL 1
REMARK VINA RESULT:      -6.2      0.000      0.000
REMARK  Name = NuBBE_1796
REMARK  19 active torsions:
REMARK  status: ('A' for Active; 'I' for Inactive)
REMARK    1  A    between atoms: C_4  and  C_5
REMARK    2  A    between atoms: C_5  and  C_6
REMARK    3  A    between atoms: C_6  and  O_7
REMARK    4  A    between atoms: C_6  and  C_11
REMARK    5  A    between atoms: O_7  and  C_8
REMARK    6  A    between atoms: C_8  and  C_9
REMARK    7  A    between atoms: C_11  and  O_12
REMARK    8  A    between atoms: O_12  and  C_13
REMARK    9  A    between atoms: C_13  and  C_14
REMARK   10  A    between atoms: C_17  and  C_18
REMARK   11  A    between atoms: C_18  and  C_19
REMARK   12  A    between atoms: C_19  and  C_20
REMARK   13  A    between atoms: C_20  and  C_21
REMARK   14  A    between atoms: C_21  and  C_22
REMARK   15  A    between atoms: C_22  and  C_23
REMARK   16  A    between atoms: C_23  and  C_24
REMARK   17  A    between atoms: C_24  and  C_25
REMARK   18  A    between atoms: C_25  and  C_26
REMARK   19  A    between atoms: C_26  and  C_27
REMARK                            x       y       z     vdW  Elec       q    Type
REMARK                         _______ _______ _______ _____ _____    ______ ____
ROOT
ATOM      1  O   LIG A   1      -8.541   3.447 126.499  0.00  0.00    -0.251 OA
ATOM      2  C   LIG A   1      -8.164   2.283 126.320  0.00  0.00    +0.311 C 
ATOM      3  O   LIG A   1      -7.637   1.493 127.300  0.00  0.00    -0.461 OA
ATOM      4  C   LIG A   1      -8.241   1.531 125.021  0.00  0.00    +0.105 C 
ATOM      5  C   LIG A   1      -8.313   0.121 125.554  0.00  0.00    +0.059 C 
ATOM      6  C   LIG A   1      -7.412   0.181 126.764  0.00  0.00    +0.177 C 
ENDROOT
BRANCH   6   7
ATOM      7  C   LIG A   1      -7.810  -0.870 127.789  0.00  0.00    +0.045 C 
BRANCH   7   8
ATOM      8  C   LIG A   1      -7.308  -2.272 127.430  0.00  0.00    +0.003 C 
BRANCH   8   9
ATOM      9  C   LIG A   1      -8.446  -3.290 127.334  0.00  0.00    +0.000 C 
BRANCH   9  10
ATOM     10  C   LIG A   1      -9.177  -3.286 125.991  0.00  0.00    -0.000 C 
BRANCH  10  11
ATOM     11  C   LIG A   1      -8.308  -3.796 124.836  0.00  0.00    -0.000 C 
BRANCH  11  12
ATOM     12  C   LIG A   1      -8.431  -2.940 123.585  0.00  0.00    -0.000 C 
BRANCH  12  13
ATOM     13  C   LIG A   1      -7.121  -2.270 123.173  0.00  0.00    -0.000 C 
BRANCH  13  14
ATOM     14  C   LIG A   1      -5.970  -2.660 124.098  0.00  0.00    -0.000 C 
BRANCH  14  15
ATOM     15  C   LIG A   1      -4.780  -3.227 123.321  0.00  0.00    -0.003 C 
ATOM     16  C   LIG A   1      -4.466  -4.654 123.717  0.00  0.00    +0.004 C 
ENDBRANCH  14  15
ENDBRANCH  13  14
ENDBRANCH  12  13
ENDBRANCH  11  12
ENDBRANCH  10  11
ENDBRANCH   9  10
ENDBRANCH   8   9
ENDBRANCH   7   8
ENDBRANCH   6   7
BRANCH   4  17
ATOM     17  C   LIG A   1      -7.027   1.811 124.109  0.00  0.00    +0.063 C 
BRANCH  17  18
ATOM     18  C   LIG A   1      -6.964   3.249 123.533  0.00  0.00    +0.214 C 
BRANCH  18  19
ATOM     19  C   LIG A   1      -7.122   3.296 121.996  0.00  0.00    +0.276 C 
BRANCH  19  20
ATOM     20  O   LIG A   1      -5.847   3.378 121.331  0.00  0.00    -0.461 OA
BRANCH  20  21
ATOM     21  C   LIG A   1      -5.692   4.434 120.483  0.00  0.00    +0.304 C 
ATOM     22  C   LIG A   1      -4.553   5.307 120.918  0.00  0.00    +0.136 C 
ATOM     23  O   LIG A   1      -6.398   4.685 119.517  0.00  0.00    -0.251 OA
ENDBRANCH  20  21
ENDBRANCH  19  20
ENDBRANCH  18  19
BRANCH  18  24
ATOM     24  O   LIG A   1      -5.668   3.778 123.882  0.00  0.00    -0.458 OA
BRANCH  24  25
ATOM     25  C   LIG A   1      -5.627   4.665 124.910  0.00  0.00    +0.304 C 
ATOM     26  C   LIG A   1      -4.853   4.081 126.050  0.00  0.00    +0.136 C 
ATOM     27  O   LIG A   1      -6.246   5.720 124.963  0.00  0.00    -0.251 OA
ENDBRANCH  24  25
ENDBRANCH  18  24
ENDBRANCH  17  18
ENDBRANCH   4  17
TORSDOF 16
ENDMDL
MODEL 2
REMARK VINA RESULT:      -6.1      1.352      1.963
REMARK  Name = NuBBE_1796
REMARK  19 active torsions:
REMARK  status: ('A' for Active; 'I' for Inactive)
REMARK    1  A    between atoms: C_4  and  C_5
REMARK    2  A    between atoms: C_5  and  C_6
REMARK    3  A    between atoms: C_6  and  O_7
REMARK    4  A    between atoms: C_6  and  C_11
REMARK    5  A    between atoms: O_7  and  C_8
REMARK    6  A    between atoms: C_8  and  C_9
REMARK    7  A    between atoms: C_11  and  O_12
REMARK    8  A    between atoms: O_12  and  C_13
REMARK    9  A    between atoms: C_13  and  C_14
REMARK   10  A    between atoms: C_17  and  C_18
REMARK   11  A    between atoms: C_18  and  C_19
REMARK   12  A    between atoms: C_19  and  C_20
REMARK   13  A    between atoms: C_20  and  C_21
REMARK   14  A    between atoms: C_21  and  C_22
REMARK   15  A    between atoms: C_22  and  C_23
REMARK   16  A    between atoms: C_23  and  C_24
REMARK   17  A    between atoms: C_24  and  C_25
REMARK   18  A    between atoms: C_25  and  C_26
REMARK   19  A    between atoms: C_26  and  C_27
REMARK                            x       y       z     vdW  Elec       q    Type
REMARK                         _______ _______ _______ _____ _____    ______ ____
ROOT
ATOM      1  O   LIG A   1      -5.161   0.814 128.406  0.00  0.00    -0.251 OA
ATOM      2  C   LIG A   1      -5.923   0.229 127.627  0.00  0.00    +0.311 C 
ATOM      3  O   LIG A   1      -5.999  -1.129 127.511  0.00  0.00    -0.461 OA
ATOM      4  C   LIG A   1      -6.905   0.893 126.704  0.00  0.00    +0.105 C 
ATOM      5  C   LIG A   1      -7.920  -0.217 126.581  0.00  0.00    +0.059 C 
ATOM      6  C   LIG A   1      -7.056  -1.455 126.597  0.00  0.00    +0.177 C 
ENDROOT
BRANCH   6   7
ATOM      7  C   LIG A   1      -7.835  -2.654 127.117  0.00  0.00    +0.045 C 
BRANCH   7   8
ATOM      8  C   LIG A   1      -9.063  -2.981 126.263  0.00  0.00    +0.003 C 
BRANCH   8   9
ATOM      9  C   LIG A   1      -8.708  -3.812 125.027  0.00  0.00    +0.000 C 
BRANCH   9  10
ATOM     10  C   LIG A   1      -9.399  -3.350 123.743  0.00  0.00    -0.000 C 
BRANCH  10  11
ATOM     11  C   LIG A   1      -8.991  -1.934 123.322  0.00  0.00    -0.000 C 
BRANCH  11  12
ATOM     12  C   LIG A   1      -7.808  -1.924 122.366  0.00  0.00    -0.000 C 
BRANCH  12  13
ATOM     13  C   LIG A   1      -6.500  -1.476 123.018  0.00  0.00    -0.000 C 
BRANCH  13  14
ATOM     14  C   LIG A   1      -5.384  -2.496 122.806  0.00  0.00    -0.000 C 
BRANCH  14  15
ATOM     15  C   LIG A   1      -5.282  -3.480 123.973  0.00  0.00    -0.003 C 
ATOM     16  C   LIG A   1      -4.394  -4.663 123.647  0.00  0.00    +0.004 C 
ENDBRANCH  14  15
ENDBRANCH  13  14
ENDBRANCH  12  13
ENDBRANCH  11  12
ENDBRANCH  10  11
ENDBRANCH   9  10
ENDBRANCH   8   9
ENDBRANCH   7   8
ENDBRANCH   6   7
BRANCH   4  17
ATOM     17  C   LIG A   1      -6.257   1.322 125.370  0.00  0.00    +0.063 C 
BRANCH  17  18
ATOM     18  C   LIG A   1      -6.769   2.669 124.802  0.00  0.00    +0.214 C 
BRANCH  18  19
ATOM     19  C   LIG A   1      -7.332   2.549 123.367  0.00  0.00    +0.276 C 
BRANCH  19  20
ATOM     20  O   LIG A   1      -6.312   2.762 122.373  0.00  0.00    -0.461 OA
BRANCH  20  21
ATOM     21  C   LIG A   1      -6.660   3.575 121.336  0.00  0.00    +0.304 C 
ATOM     22  C   LIG A   1      -5.458   4.281 120.783  0.00  0.00    +0.136 C 
ATOM     23  O   LIG A   1      -7.795   3.756 120.920  0.00  0.00    -0.251 OA
ENDBRANCH  20  21
ENDBRANCH  19  20
ENDBRANCH  18  19
BRANCH  18  24
ATOM     24  O   LIG A   1      -5.639   3.567 124.782  0.00  0.00    -0.458 OA
BRANCH  24  25
ATOM     25  C   LIG A   1      -5.769   4.727 125.476  0.00  0.00    +0.304 C 
ATOM     26  C   LIG A   1      -5.378   4.508 126.903  0.00  0.00    +0.136 C 
ATOM     27  O   LIG A   1      -6.266   5.760 125.045  0.00  0.00    -0.251 OA
ENDBRANCH  24  25
ENDBRANCH  18  24
ENDBRANCH  17  18
ENDBRANCH   4  17
TORSDOF 16
ENDMDL
MODEL 3
REMARK VINA RESULT:      -6.0      2.076      2.874
REMARK  Name = NuBBE_1796
REMARK  19 active torsions:
REMARK  status: ('A' for Active; 'I' for Inactive)
REMARK    1  A    between atoms: C_4  and  C_5
REMARK    2  A    between atoms: C_5  and  C_6
REMARK    3  A    between atoms: C_6  and  O_7
REMARK    4  A    between atoms: C_6  and  C_11
REMARK    5  A    between atoms: O_7  and  C_8
REMARK    6  A    between atoms: C_8  and  C_9
REMARK    7  A    between atoms: C_11  and  O_12
REMARK    8  A    between atoms: O_12  and  C_13
REMARK    9  A    between atoms: C_13  and  C_14
REMARK   10  A    between atoms: C_17  and  C_18
REMARK   11  A    between atoms: C_18  and  C_19
REMARK   12  A    between atoms: C_19  and  C_20
REMARK   13  A    between atoms: C_20  and  C_21
REMARK   14  A    between atoms: C_21  and  C_22
REMARK   15  A    between atoms: C_22  and  C_23
REMARK   16  A    between atoms: C_23  and  C_24
REMARK   17  A    between atoms: C_24  and  C_25
REMARK   18  A    between atoms: C_25  and  C_26
REMARK   19  A    between atoms: C_26  and  C_27
REMARK                            x       y       z     vdW  Elec       q    Type
REMARK                         _______ _______ _______ _____ _____    ______ ____
ROOT
ATOM      1  O   LIG A   1      -4.989   0.468 128.614  0.00  0.00    -0.251 OA
ATOM      2  C   LIG A   1      -5.836  -0.005 127.846  0.00  0.00    +0.311 C 
ATOM      3  O   LIG A   1      -5.972  -1.338 127.588  0.00  0.00    -0.461 OA
ATOM      4  C   LIG A   1      -6.867   0.786 127.091  0.00  0.00    +0.105 C 
ATOM      5  C   LIG A   1      -7.930  -0.275 126.937  0.00  0.00    +0.059 C 
ATOM      6  C   LIG A   1      -7.115  -1.530 126.742  0.00  0.00    +0.177 C 
ENDROOT
BRANCH   6   7
ATOM      7  C   LIG A   1      -7.891  -2.758 127.194  0.00  0.00    +0.045 C 
BRANCH   7   8
ATOM      8  C   LIG A   1      -9.086  -3.073 126.289  0.00  0.00    +0.003 C 
BRANCH   8   9
ATOM      9  C   LIG A   1      -8.677  -3.850 125.035  0.00  0.00    +0.000 C 
BRANCH   9  10
ATOM     10  C   LIG A   1      -9.364  -3.375 123.753  0.00  0.00    -0.000 C 
BRANCH  10  11
ATOM     11  C   LIG A   1      -8.982  -1.943 123.366  0.00  0.00    -0.000 C 
BRANCH  11  12
ATOM     12  C   LIG A   1      -7.766  -1.885 122.454  0.00  0.00    -0.000 C 
BRANCH  12  13
ATOM     13  C   LIG A   1      -6.472  -1.525 123.183  0.00  0.00    -0.000 C 
BRANCH  13  14
ATOM     14  C   LIG A   1      -5.361  -2.533 122.895  0.00  0.00    -0.000 C 
BRANCH  14  15
ATOM     15  C   LIG A   1      -5.157  -3.505 124.059  0.00  0.00    -0.003 C 
ATOM     16  C   LIG A   1      -4.333  -4.711 123.659  0.00  0.00    +0.004 C 
ENDBRANCH  14  15
ENDBRANCH  13  14
ENDBRANCH  12  13
ENDBRANCH  11  12
ENDBRANCH  10  11
ENDBRANCH   9  10
ENDBRANCH   8   9
ENDBRANCH   7   8
ENDBRANCH   6   7
BRANCH   4  17
ATOM     17  C   LIG A   1      -6.319   1.344 125.760  0.00  0.00    +0.063 C 
BRANCH  17  18
ATOM     18  C   LIG A   1      -6.130   2.882 125.728  0.00  0.00    +0.214 C 
BRANCH  18  19
ATOM     19  C   LIG A   1      -6.984   3.577 124.644  0.00  0.00    +0.276 C 
BRANCH  19  20
ATOM     20  O   LIG A   1      -8.255   2.924 124.465  0.00  0.00    -0.461 OA
BRANCH  20  21
ATOM     21  C   LIG A   1      -8.623   2.694 123.172  0.00  0.00    +0.304 C 
ATOM     22  C   LIG A   1      -9.644   1.599 123.093  0.00  0.00    +0.136 C 
ATOM     23  O   LIG A   1      -8.166   3.259 122.188  0.00  0.00    -0.251 OA
ENDBRANCH  20  21
ENDBRANCH  19  20
ENDBRANCH  18  19
BRANCH  18  24
ATOM     24  O   LIG A   1      -4.736   3.122 125.444  0.00  0.00    -0.458 OA
BRANCH  24  25
ATOM     25  C   LIG A   1      -4.063   3.919 126.314  0.00  0.00    +0.304 C 
ATOM     26  C   LIG A   1      -2.728   3.318 126.621  0.00  0.00    +0.136 C 
ATOM     27  O   LIG A   1      -4.526   4.902 126.879  0.00  0.00    -0.251 OA
ENDBRANCH  24  25
ENDBRANCH  18  24
ENDBRANCH  17  18
ENDBRANCH   4  17
TORSDOF 16
ENDMDL
MODEL 4
REMARK VINA RESULT:      -5.9      2.701      4.314
REMARK  Name = NuBBE_1796
REMARK  19 active torsions:
REMARK  status: ('A' for Active; 'I' for Inactive)
REMARK    1  A    between atoms: C_4  and  C_5
REMARK    2  A    between atoms: C_5  and  C_6
REMARK    3  A    between atoms: C_6  and  O_7
REMARK    4  A    between atoms: C_6  and  C_11
REMARK    5  A    between atoms: O_7  and  C_8
REMARK    6  A    between atoms: C_8  and  C_9
REMARK    7  A    between atoms: C_11  and  O_12
REMARK    8  A    between atoms: O_12  and  C_13
REMARK    9  A    between atoms: C_13  and  C_14
REMARK   10  A    between atoms: C_17  and  C_18
REMARK   11  A    between atoms: C_18  and  C_19
REMARK   12  A    between atoms: C_19  and  C_20
REMARK   13  A    between atoms: C_20  and  C_21
REMARK   14  A    between atoms: C_21  and  C_22
REMARK   15  A    between atoms: C_22  and  C_23
REMARK   16  A    between atoms: C_23  and  C_24
REMARK   17  A    between atoms: C_24  and  C_25
REMARK   18  A    between atoms: C_25  and  C_26
REMARK   19  A    between atoms: C_26  and  C_27
REMARK                            x       y       z     vdW  Elec       q    Type
REMARK                         _______ _______ _______ _____ _____    ______ ____
ROOT
ATOM      1  O   LIG A   1     -10.559   0.383 122.382  0.00  0.00    -0.251 OA
ATOM      2  C   LIG A   1      -9.640  -0.134 123.029  0.00  0.00    +0.311 C 
ATOM      3  O   LIG A   1      -9.736  -1.340 123.659  0.00  0.00    -0.461 OA
ATOM      4  C   LIG A   1      -8.268   0.449 123.212  0.00  0.00    +0.105 C 
ATOM      5  C   LIG A   1      -7.485  -0.823 123.433  0.00  0.00    +0.059 C 
ATOM      6  C   LIG A   1      -8.456  -1.674 124.215  0.00  0.00    +0.177 C 
ENDROOT
BRANCH   6   7
ATOM      7  C   LIG A   1      -8.172  -3.153 124.005  0.00  0.00    +0.045 C 
BRANCH   7   8
ATOM      8  C   LIG A   1      -8.195  -3.954 125.310  0.00  0.00    +0.003 C 
BRANCH   8   9
ATOM      9  C   LIG A   1      -8.803  -3.161 126.469  0.00  0.00    +0.000 C 
BRANCH   9  10
ATOM     10  C   LIG A   1      -8.966  -3.965 127.760  0.00  0.00    -0.000 C 
BRANCH  10  11
ATOM     11  C   LIG A   1      -8.464  -3.216 128.999  0.00  0.00    -0.000 C 
BRANCH  11  12
ATOM     12  C   LIG A   1      -6.946  -3.191 129.095  0.00  0.00    -0.000 C 
BRANCH  12  13
ATOM     13  C   LIG A   1      -6.380  -4.197 130.096  0.00  0.00    -0.000 C 
BRANCH  13  14
ATOM     14  C   LIG A   1      -5.523  -3.516 131.160  0.00  0.00    -0.000 C 
BRANCH  14  15
ATOM     15  C   LIG A   1      -6.007  -3.838 132.575  0.00  0.00    -0.003 C 
ATOM     16  C   LIG A   1      -7.329  -3.170 132.893  0.00  0.00    +0.004 C 
ENDBRANCH  14  15
ENDBRANCH  13  14
ENDBRANCH  12  13
ENDBRANCH  11  12
ENDBRANCH  10  11
ENDBRANCH   9  10
ENDBRANCH   8   9
ENDBRANCH   7   8
ENDBRANCH   6   7
BRANCH   4  17
ATOM     17  C   LIG A   1      -8.208   1.451 124.385  0.00  0.00    +0.063 C 
BRANCH  17  18
ATOM     18  C   LIG A   1      -7.811   2.895 123.987  0.00  0.00    +0.214 C 
BRANCH  18  19
ATOM     19  C   LIG A   1      -6.876   2.952 122.757  0.00  0.00    +0.276 C 
BRANCH  19  20
ATOM     20  O   LIG A   1      -7.560   3.442 121.588  0.00  0.00    -0.461 OA
BRANCH  20  21
ATOM     21  C   LIG A   1      -6.758   3.829 120.556  0.00  0.00    +0.304 C 
ATOM     22  C   LIG A   1      -5.324   3.493 120.836  0.00  0.00    +0.136 C 
ATOM     23  O   LIG A   1      -7.126   4.413 119.546  0.00  0.00    -0.251 OA
ENDBRANCH  20  21
ENDBRANCH  19  20
ENDBRANCH  18  19
BRANCH  18  24
ATOM     24  O   LIG A   1      -7.121   3.462 125.120  0.00  0.00    -0.458 OA
BRANCH  24  25
ATOM     25  C   LIG A   1      -7.850   4.262 125.941  0.00  0.00    +0.304 C 
ATOM     26  C   LIG A   1      -7.385   4.093 127.353  0.00  0.00    +0.136 C 
ATOM     27  O   LIG A   1      -8.832   4.913 125.610  0.00  0.00    -0.251 OA
ENDBRANCH  24  25
ENDBRANCH  18  24
ENDBRANCH  17  18
ENDBRANCH   4  17
TORSDOF 16
ENDMDL
MODEL 5
REMARK VINA RESULT:      -5.9      2.106      3.118
REMARK  Name = NuBBE_1796
REMARK  19 active torsions:
REMARK  status: ('A' for Active; 'I' for Inactive)
REMARK    1  A    between atoms: C_4  and  C_5
REMARK    2  A    between atoms: C_5  and  C_6
REMARK    3  A    between atoms: C_6  and  O_7
REMARK    4  A    between atoms: C_6  and  C_11
REMARK    5  A    between atoms: O_7  and  C_8
REMARK    6  A    between atoms: C_8  and  C_9
REMARK    7  A    between atoms: C_11  and  O_12
REMARK    8  A    between atoms: O_12  and  C_13
REMARK    9  A    between atoms: C_13  and  C_14
REMARK   10  A    between atoms: C_17  and  C_18
REMARK   11  A    between atoms: C_18  and  C_19
REMARK   12  A    between atoms: C_19  and  C_20
REMARK   13  A    between atoms: C_20  and  C_21
REMARK   14  A    between atoms: C_21  and  C_22
REMARK   15  A    between atoms: C_22  and  C_23
REMARK   16  A    between atoms: C_23  and  C_24
REMARK   17  A    between atoms: C_24  and  C_25
REMARK   18  A    between atoms: C_25  and  C_26
REMARK   19  A    between atoms: C_26  and  C_27
REMARK                            x       y       z     vdW  Elec       q    Type
REMARK                         _______ _______ _______ _____ _____    ______ ____
ROOT
ATOM      1  O   LIG A   1      -8.499   1.197 127.087  0.00  0.00    -0.251 OA
ATOM      2  C   LIG A   1      -7.603   0.456 127.507  0.00  0.00    +0.311 C 
ATOM      3  O   LIG A   1      -7.807  -0.562 128.393  0.00  0.00    -0.461 OA
ATOM      4  C   LIG A   1      -6.157   0.522 127.104  0.00  0.00    +0.105 C 
ATOM      5  C   LIG A   1      -5.765  -0.916 127.348  0.00  0.00    +0.059 C 
ATOM      6  C   LIG A   1      -6.573  -1.272 128.572  0.00  0.00    +0.177 C 
ENDROOT
BRANCH   6   7
ATOM      7  C   LIG A   1      -6.843  -2.768 128.628  0.00  0.00    +0.045 C 
BRANCH   7   8
ATOM      8  C   LIG A   1      -8.337  -3.104 128.597  0.00  0.00    +0.003 C 
BRANCH   8   9
ATOM      9  C   LIG A   1      -8.745  -3.822 127.308  0.00  0.00    +0.000 C 
BRANCH   9  10
ATOM     10  C   LIG A   1      -9.477  -2.932 126.302  0.00  0.00    -0.000 C 
BRANCH  10  11
ATOM     11  C   LIG A   1      -8.541  -2.320 125.254  0.00  0.00    -0.000 C 
BRANCH  11  12
ATOM     12  C   LIG A   1      -8.142  -3.312 124.172  0.00  0.00    -0.000 C 
BRANCH  12  13
ATOM     13  C   LIG A   1      -6.735  -3.879 124.352  0.00  0.00    -0.000 C 
BRANCH  13  14
ATOM     14  C   LIG A   1      -5.667  -2.796 124.213  0.00  0.00    -0.000 C 
BRANCH  14  15
ATOM     15  C   LIG A   1      -4.472  -3.278 123.387  0.00  0.00    -0.003 C 
ATOM     16  C   LIG A   1      -4.271  -4.776 123.491  0.00  0.00    +0.004 C 
ENDBRANCH  14  15
ENDBRANCH  13  14
ENDBRANCH  12  13
ENDBRANCH  11  12
ENDBRANCH  10  11
ENDBRANCH   9  10
ENDBRANCH   8   9
ENDBRANCH   7   8
ENDBRANCH   6   7
BRANCH   4  17
ATOM     17  C   LIG A   1      -5.364   1.554 127.934  0.00  0.00    +0.063 C 
BRANCH  17  18
ATOM     18  C   LIG A   1      -4.873   2.789 127.138  0.00  0.00    +0.214 C 
BRANCH  18  19
ATOM     19  C   LIG A   1      -5.928   3.334 126.148  0.00  0.00    +0.276 C 
BRANCH  19  20
ATOM     20  O   LIG A   1      -5.703   2.853 124.809  0.00  0.00    -0.461 OA
BRANCH  20  21
ATOM     21  C   LIG A   1      -6.824   2.631 124.066  0.00  0.00    +0.304 C 
ATOM     22  C   LIG A   1      -6.928   1.188 123.673  0.00  0.00    +0.136 C 
ATOM     23  O   LIG A   1      -7.629   3.482 123.716  0.00  0.00    -0.251 OA
ENDBRANCH  20  21
ENDBRANCH  19  20
ENDBRANCH  18  19
BRANCH  18  24
ATOM     24  O   LIG A   1      -3.713   2.367 126.391  0.00  0.00    -0.458 OA
BRANCH  24  25
ATOM     25  C   LIG A   1      -2.527   2.937 126.730  0.00  0.00    +0.304 C 
ATOM     26  C   LIG A   1      -2.771   4.125 127.606  0.00  0.00    +0.136 C 
ATOM     27  O   LIG A   1      -1.434   2.624 126.276  0.00  0.00    -0.251 OA
ENDBRANCH  24  25
ENDBRANCH  18  24
ENDBRANCH  17  18
ENDBRANCH   4  17
TORSDOF 16
ENDMDL
MODEL 6
REMARK VINA RESULT:      -5.8      1.920      3.408
REMARK  Name = NuBBE_1796
REMARK  19 active torsions:
REMARK  status: ('A' for Active; 'I' for Inactive)
REMARK    1  A    between atoms: C_4  and  C_5
REMARK    2  A    between atoms: C_5  and  C_6
REMARK    3  A    between atoms: C_6  and  O_7
REMARK    4  A    between atoms: C_6  and  C_11
REMARK    5  A    between atoms: O_7  and  C_8
REMARK    6  A    between atoms: C_8  and  C_9
REMARK    7  A    between atoms: C_11  and  O_12
REMARK    8  A    between atoms: O_12  and  C_13
REMARK    9  A    between atoms: C_13  and  C_14
REMARK   10  A    between atoms: C_17  and  C_18
REMARK   11  A    between atoms: C_18  and  C_19
REMARK   12  A    between atoms: C_19  and  C_20
REMARK   13  A    between atoms: C_20  and  C_21
REMARK   14  A    between atoms: C_21  and  C_22
REMARK   15  A    between atoms: C_22  and  C_23
REMARK   16  A    between atoms: C_23  and  C_24
REMARK   17  A    between atoms: C_24  and  C_25
REMARK   18  A    between atoms: C_25  and  C_26
REMARK   19  A    between atoms: C_26  and  C_27
REMARK                            x       y       z     vdW  Elec       q    Type
REMARK                         _______ _______ _______ _____ _____    ______ ____
ROOT
ATOM      1  O   LIG A   1     -10.011   1.775 124.657  0.00  0.00    -0.251 OA
ATOM      2  C   LIG A   1      -9.161   0.931 124.347  0.00  0.00    +0.311 C 
ATOM      3  O   LIG A   1      -9.340  -0.415 124.479  0.00  0.00    -0.461 OA
ATOM      4  C   LIG A   1      -7.812   1.229 123.756  0.00  0.00    +0.105 C 
ATOM      5  C   LIG A   1      -7.578  -0.063 123.010  0.00  0.00    +0.059 C 
ATOM      6  C   LIG A   1      -8.199  -1.088 123.927  0.00  0.00    +0.177 C 
ENDROOT
BRANCH   6   7
ATOM      7  C   LIG A   1      -8.651  -2.313 123.146  0.00  0.00    +0.045 C 
BRANCH   7   8
ATOM      8  C   LIG A   1      -9.320  -3.369 124.030  0.00  0.00    +0.003 C 
BRANCH   8   9
ATOM      9  C   LIG A   1      -8.535  -3.631 125.318  0.00  0.00    +0.000 C 
BRANCH   9  10
ATOM     10  C   LIG A   1      -9.298  -3.281 126.597  0.00  0.00    -0.000 C 
BRANCH  10  11
ATOM     11  C   LIG A   1      -8.850  -4.110 127.805  0.00  0.00    -0.000 C 
BRANCH  11  12
ATOM     12  C   LIG A   1      -8.448  -3.248 128.992  0.00  0.00    -0.000 C 
BRANCH  12  13
ATOM     13  C   LIG A   1      -6.952  -2.941 129.047  0.00  0.00    -0.000 C 
BRANCH  13  14
ATOM     14  C   LIG A   1      -6.679  -1.441 128.950  0.00  0.00    -0.000 C 
BRANCH  14  15
ATOM     15  C   LIG A   1      -6.617  -0.966 127.497  0.00  0.00    -0.003 C 
ATOM     16  C   LIG A   1      -5.656  -1.790 126.666  0.00  0.00    +0.004 C 
ENDBRANCH  14  15
ENDBRANCH  13  14
ENDBRANCH  12  13
ENDBRANCH  11  12
ENDBRANCH  10  11
ENDBRANCH   9  10
ENDBRANCH   8   9
ENDBRANCH   7   8
ENDBRANCH   6   7
BRANCH   4  17
ATOM     17  C   LIG A   1      -6.756   1.548 124.835  0.00  0.00    +0.063 C 
BRANCH  17  18
ATOM     18  C   LIG A   1      -6.604   3.053 125.172  0.00  0.00    +0.214 C 
BRANCH  18  19
ATOM     19  C   LIG A   1      -5.396   3.714 124.470  0.00  0.00    +0.276 C 
BRANCH  19  20
ATOM     20  O   LIG A   1      -5.814   4.661 123.467  0.00  0.00    -0.461 OA
BRANCH  20  21
ATOM     21  C   LIG A   1      -5.252   4.500 122.235  0.00  0.00    +0.304 C 
ATOM     22  C   LIG A   1      -5.831   3.306 121.536  0.00  0.00    +0.136 C 
ATOM     23  O   LIG A   1      -4.365   5.193 121.758  0.00  0.00    -0.251 OA
ENDBRANCH  20  21
ENDBRANCH  19  20
ENDBRANCH  18  19
BRANCH  18  24
ATOM     24  O   LIG A   1      -6.415   3.141 126.599  0.00  0.00    -0.458 OA
BRANCH  24  25
ATOM     25  C   LIG A   1      -7.286   3.927 127.284  0.00  0.00    +0.304 C 
ATOM     26  C   LIG A   1      -6.828   4.074 128.701  0.00  0.00    +0.136 C 
ATOM     27  O   LIG A   1      -8.359   4.335 126.858  0.00  0.00    -0.251 OA
ENDBRANCH  24  25
ENDBRANCH  18  24
ENDBRANCH  17  18
ENDBRANCH   4  17
TORSDOF 16
ENDMDL
MODEL 7
REMARK VINA RESULT:      -5.8      1.797      4.374
REMARK  Name = NuBBE_1796
REMARK  19 active torsions:
REMARK  status: ('A' for Active; 'I' for Inactive)
REMARK    1  A    between atoms: C_4  and  C_5
REMARK    2  A    between atoms: C_5  and  C_6
REMARK    3  A    between atoms: C_6  and  O_7
REMARK    4  A    between atoms: C_6  and  C_11
REMARK    5  A    between atoms: O_7  and  C_8
REMARK    6  A    between atoms: C_8  and  C_9
REMARK    7  A    between atoms: C_11  and  O_12
REMARK    8  A    between atoms: O_12  and  C_13
REMARK    9  A    between atoms: C_13  and  C_14
REMARK   10  A    between atoms: C_17  and  C_18
REMARK   11  A    between atoms: C_18  and  C_19
REMARK   12  A    between atoms: C_19  and  C_20
REMARK   13  A    between atoms: C_20  and  C_21
REMARK   14  A    between atoms: C_21  and  C_22
REMARK   15  A    between atoms: C_22  and  C_23
REMARK   16  A    between atoms: C_23  and  C_24
REMARK   17  A    between atoms: C_24  and  C_25
REMARK   18  A    between atoms: C_25  and  C_26
REMARK   19  A    between atoms: C_26  and  C_27
REMARK                            x       y       z     vdW  Elec       q    Type
REMARK                         _______ _______ _______ _____ _____    ______ ____
ROOT
ATOM      1  O   LIG A   1      -9.026   0.722 125.655  0.00  0.00    -0.251 OA
ATOM      2  C   LIG A   1      -7.965   0.305 125.176  0.00  0.00    +0.311 C 
ATOM      3  O   LIG A   1      -7.159  -0.610 125.788  0.00  0.00    -0.461 OA
ATOM      4  C   LIG A   1      -7.395   0.702 123.843  0.00  0.00    +0.105 C 
ATOM      5  C   LIG A   1      -6.587  -0.537 123.540  0.00  0.00    +0.059 C 
ATOM      6  C   LIG A   1      -6.078  -0.939 124.903  0.00  0.00    +0.177 C 
ENDROOT
BRANCH   6   7
ATOM      7  C   LIG A   1      -5.801  -2.433 124.961  0.00  0.00    +0.045 C 
BRANCH   7   8
ATOM      8  C   LIG A   1      -6.636  -3.232 123.955  0.00  0.00    +0.003 C 
BRANCH   8   9
ATOM      9  C   LIG A   1      -7.784  -3.990 124.625  0.00  0.00    +0.000 C 
BRANCH   9  10
ATOM     10  C   LIG A   1      -9.120  -3.244 124.609  0.00  0.00    -0.000 C 
BRANCH  10  11
ATOM     11  C   LIG A   1      -9.628  -2.900 126.013  0.00  0.00    -0.000 C 
BRANCH  11  12
ATOM     12  C   LIG A   1      -8.931  -3.700 127.103  0.00  0.00    -0.000 C 
BRANCH  12  13
ATOM     13  C   LIG A   1      -8.166  -2.833 128.102  0.00  0.00    -0.000 C 
BRANCH  13  14
ATOM     14  C   LIG A   1      -7.697  -3.642 129.310  0.00  0.00    -0.000 C 
BRANCH  14  15
ATOM     15  C   LIG A   1      -6.230  -3.364 129.648  0.00  0.00    -0.003 C 
ATOM     16  C   LIG A   1      -5.571  -2.459 128.628  0.00  0.00    +0.004 C 
ENDBRANCH  14  15
ENDBRANCH  13  14
ENDBRANCH  12  13
ENDBRANCH  11  12
ENDBRANCH  10  11
ENDBRANCH   9  10
ENDBRANCH   8   9
ENDBRANCH   7   8
ENDBRANCH   6   7
BRANCH   4  17
ATOM     17  C   LIG A   1      -6.569   2.004 123.924  0.00  0.00    +0.063 C 
BRANCH  17  18
ATOM     18  C   LIG A   1      -7.362   3.297 123.607  0.00  0.00    +0.214 C 
BRANCH  18  19
ATOM     19  C   LIG A   1      -8.073   3.892 124.844  0.00  0.00    +0.276 C 
BRANCH  19  20
ATOM     20  O   LIG A   1      -7.151   4.143 125.921  0.00  0.00    -0.461 OA
BRANCH  20  21
ATOM     21  C   LIG A   1      -7.408   3.478 127.083  0.00  0.00    +0.304 C 
ATOM     22  C   LIG A   1      -6.229   2.648 127.495  0.00  0.00    +0.136 C 
ATOM     23  O   LIG A   1      -8.461   3.503 127.703  0.00  0.00    -0.251 OA
ENDBRANCH  20  21
ENDBRANCH  19  20
ENDBRANCH  18  19
BRANCH  18  24
ATOM     24  O   LIG A   1      -8.358   2.942 122.626  0.00  0.00    -0.458 OA
BRANCH  24  25
ATOM     25  C   LIG A   1      -8.209   3.474 121.384  0.00  0.00    +0.304 C 
ATOM     26  C   LIG A   1      -6.758   3.704 121.104  0.00  0.00    +0.136 C 
ATOM     27  O   LIG A   1      -9.122   3.848 120.659  0.00  0.00    -0.251 OA
ENDBRANCH  24  25
ENDBRANCH  18  24
ENDBRANCH  17  18
ENDBRANCH   4  17
TORSDOF 16
ENDMDL
MODEL 8
REMARK VINA RESULT:      -5.7      4.189      6.353
REMARK  Name = NuBBE_1796
REMARK  19 active torsions:
REMARK  status: ('A' for Active; 'I' for Inactive)
REMARK    1  A    between atoms: C_4  and  C_5
REMARK    2  A    between atoms: C_5  and  C_6
REMARK    3  A    between atoms: C_6  and  O_7
REMARK    4  A    between atoms: C_6  and  C_11
REMARK    5  A    between atoms: O_7  and  C_8
REMARK    6  A    between atoms: C_8  and  C_9
REMARK    7  A    between atoms: C_11  and  O_12
REMARK    8  A    between atoms: O_12  and  C_13
REMARK    9  A    between atoms: C_13  and  C_14
REMARK   10  A    between atoms: C_17  and  C_18
REMARK   11  A    between atoms: C_18  and  C_19
REMARK   12  A    between atoms: C_19  and  C_20
REMARK   13  A    between atoms: C_20  and  C_21
REMARK   14  A    between atoms: C_21  and  C_22
REMARK   15  A    between atoms: C_22  and  C_23
REMARK   16  A    between atoms: C_23  and  C_24
REMARK   17  A    between atoms: C_24  and  C_25
REMARK   18  A    between atoms: C_25  and  C_26
REMARK   19  A    between atoms: C_26  and  C_27
REMARK                            x       y       z     vdW  Elec       q    Type
REMARK                         _______ _______ _______ _____ _____    ______ ____
ROOT
ATOM      1  O   LIG A   1      -7.512   4.604 127.969  0.00  0.00    -0.251 OA
ATOM      2  C   LIG A   1      -7.887   3.518 128.429  0.00  0.00    +0.311 C 
ATOM      3  O   LIG A   1      -7.874   2.348 127.727  0.00  0.00    -0.461 OA
ATOM      4  C   LIG A   1      -8.390   3.290 129.826  0.00  0.00    +0.105 C 
ATOM      5  C   LIG A   1      -8.029   1.832 129.985  0.00  0.00    +0.059 C 
ATOM      6  C   LIG A   1      -8.273   1.282 128.601  0.00  0.00    +0.177 C 
ENDROOT
BRANCH   6   7
ATOM      7  C   LIG A   1      -7.410   0.056 128.344  0.00  0.00    +0.045 C 
BRANCH   7   8
ATOM      8  C   LIG A   1      -7.194  -0.793 129.601  0.00  0.00    +0.003 C 
BRANCH   8   9
ATOM      9  C   LIG A   1      -8.178  -1.961 129.691  0.00  0.00    +0.000 C 
BRANCH   9  10
ATOM     10  C   LIG A   1      -7.692  -3.241 129.009  0.00  0.00    -0.000 C 
BRANCH  10  11
ATOM     11  C   LIG A   1      -8.744  -3.860 128.082  0.00  0.00    -0.000 C 
BRANCH  11  12
ATOM     12  C   LIG A   1      -8.979  -3.035 126.827  0.00  0.00    -0.000 C 
BRANCH  12  13
ATOM     13  C   LIG A   1      -7.775  -2.995 125.887  0.00  0.00    -0.000 C 
BRANCH  13  14
ATOM     14  C   LIG A   1      -8.025  -3.797 124.612  0.00  0.00    -0.000 C 
BRANCH  14  15
ATOM     15  C   LIG A   1      -9.292  -3.336 123.888  0.00  0.00    -0.003 C 
ATOM     16  C   LIG A   1      -9.046  -2.112 123.030  0.00  0.00    +0.004 C 
ENDBRANCH  14  15
ENDBRANCH  13  14
ENDBRANCH  12  13
ENDBRANCH  11  12
ENDBRANCH  10  11
ENDBRANCH   9  10
ENDBRANCH   8   9
ENDBRANCH   7   8
ENDBRANCH   6   7
BRANCH   4  17
ATOM     17  C   LIG A   1      -9.897   3.597 129.964  0.00  0.00    +0.063 C 
BRANCH  17  18
ATOM     18  C   LIG A   1     -10.232   4.827 130.845  0.00  0.00    +0.214 C 
BRANCH  18  19
ATOM     19  C   LIG A   1     -11.626   5.425 130.550  0.00  0.00    +0.276 C 
BRANCH  19  20
ATOM     20  O   LIG A   1     -11.834   5.625 129.139  0.00  0.00    -0.461 OA
BRANCH  20  21
ATOM     21  C   LIG A   1     -12.109   6.906 128.760  0.00  0.00    +0.304 C 
ATOM     22  C   LIG A   1     -13.563   7.066 128.431  0.00  0.00    +0.136 C 
ATOM     23  O   LIG A   1     -11.292   7.810 128.652  0.00  0.00    -0.251 OA
ENDBRANCH  20  21
ENDBRANCH  19  20
ENDBRANCH  18  19
BRANCH  18  24
ATOM     24  O   LIG A   1      -9.230   5.826 130.560  0.00  0.00    -0.458 OA
BRANCH  24  25
ATOM     25  C   LIG A   1      -8.583   6.364 131.626  0.00  0.00    +0.304 C 
ATOM     26  C   LIG A   1      -7.205   6.782 131.221  0.00  0.00    +0.136 C 
ATOM     27  O   LIG A   1      -9.000   6.376 132.777  0.00  0.00    -0.251 OA
ENDBRANCH  24  25
ENDBRANCH  18  24
ENDBRANCH  17  18
ENDBRANCH   4  17
TORSDOF 16
ENDMDL
MODEL 9
REMARK VINA RESULT:      -5.7      9.026     12.075
REMARK  Name = NuBBE_1796
REMARK  19 active torsions:
REMARK  status: ('A' for Active; 'I' for Inactive)
REMARK    1  A    between atoms: C_4  and  C_5
REMARK    2  A    between atoms: C_5  and  C_6
REMARK    3  A    between atoms: C_6  and  O_7
REMARK    4  A    between atoms: C_6  and  C_11
REMARK    5  A    between atoms: O_7  and  C_8
REMARK    6  A    between atoms: C_8  and  C_9
REMARK    7  A    between atoms: C_11  and  O_12
REMARK    8  A    between atoms: O_12  and  C_13
REMARK    9  A    between atoms: C_13  and  C_14
REMARK   10  A    between atoms: C_17  and  C_18
REMARK   11  A    between atoms: C_18  and  C_19
REMARK   12  A    between atoms: C_19  and  C_20
REMARK   13  A    between atoms: C_20  and  C_21
REMARK   14  A    between atoms: C_21  and  C_22
REMARK   15  A    between atoms: C_22  and  C_23
REMARK   16  A    between atoms: C_23  and  C_24
REMARK   17  A    between atoms: C_24  and  C_25
REMARK   18  A    between atoms: C_25  and  C_26
REMARK   19  A    between atoms: C_26  and  C_27
REMARK                            x       y       z     vdW  Elec       q    Type
REMARK                         _______ _______ _______ _____ _____    ______ ____
ROOT
ATOM      1  O   LIG A   1      -9.493   4.623 129.075  0.00  0.00    -0.251 OA
ATOM      2  C   LIG A   1      -9.543   4.918 130.275  0.00  0.00    +0.311 C 
ATOM      3  O   LIG A   1      -9.504   4.004 131.288  0.00  0.00    -0.461 OA
ATOM      4  C   LIG A   1      -9.627   6.313 130.827  0.00  0.00    +0.105 C 
ATOM      5  C   LIG A   1      -8.988   6.086 132.176  0.00  0.00    +0.059 C 
ATOM      6  C   LIG A   1      -9.475   4.704 132.540  0.00  0.00    +0.177 C 
ENDROOT
BRANCH   6   7
ATOM      7  C   LIG A   1      -8.504   4.020 133.491  0.00  0.00    +0.045 C 
BRANCH   7   8
ATOM      8  C   LIG A   1      -8.398   4.729 134.844  0.00  0.00    +0.003 C 
BRANCH   8   9
ATOM      9  C   LIG A   1      -6.945   4.940 135.277  0.00  0.00    +0.000 C 
BRANCH   9  10
ATOM     10  C   LIG A   1      -6.725   6.183 136.142  0.00  0.00    -0.000 C 
BRANCH  10  11
ATOM     11  C   LIG A   1      -7.794   6.351 137.228  0.00  0.00    -0.000 C 
BRANCH  11  12
ATOM     12  C   LIG A   1      -8.565   7.656 137.096  0.00  0.00    -0.000 C 
BRANCH  12  13
ATOM     13  C   LIG A   1      -8.414   8.580 138.303  0.00  0.00    -0.000 C 
BRANCH  13  14
ATOM     14  C   LIG A   1      -7.701   9.879 137.934  0.00  0.00    -0.000 C 
BRANCH  14  15
ATOM     15  C   LIG A   1      -7.606  10.835 139.126  0.00  0.00    -0.003 C 
ATOM     16  C   LIG A   1      -6.240  11.480 139.234  0.00  0.00    +0.004 C 
ENDBRANCH  14  15
ENDBRANCH  13  14
ENDBRANCH  12  13
ENDBRANCH  11  12
ENDBRANCH  10  11
ENDBRANCH   9  10
ENDBRANCH   8   9
ENDBRANCH   7   8
ENDBRANCH   6   7
BRANCH   4  17
ATOM     17  C   LIG A   1     -11.079   6.834 130.884  0.00  0.00    +0.063 C 
BRANCH  17  18
ATOM     18  C   LIG A   1     -11.509   7.696 129.670  0.00  0.00    +0.214 C 
BRANCH  18  19
ATOM     19  C   LIG A   1     -10.313   8.212 128.836  0.00  0.00    +0.276 C 
BRANCH  19  20
ATOM     20  O   LIG A   1     -10.673   8.418 127.457  0.00  0.00    -0.461 OA
BRANCH  20  21
ATOM     21  C   LIG A   1     -10.768   7.289 126.698  0.00  0.00    +0.304 C 
ATOM     22  C   LIG A   1     -12.171   7.091 126.207  0.00  0.00    +0.136 C 
ATOM     23  O   LIG A   1      -9.860   6.503 126.470  0.00  0.00    -0.251 OA
ENDBRANCH  20  21
ENDBRANCH  19  20
ENDBRANCH  18  19
BRANCH  18  24
ATOM     24  O   LIG A   1     -12.227   8.830 130.200  0.00  0.00    -0.458 OA
BRANCH  24  25
ATOM     25  C   LIG A   1     -13.104   9.443 129.364  0.00  0.00    +0.304 C 
ATOM     26  C   LIG A   1     -13.414  10.815 129.875  0.00  0.00    +0.136 C 
ATOM     27  O   LIG A   1     -13.672   8.912 128.418  0.00  0.00    -0.251 OA
ENDBRANCH  24  25
ENDBRANCH  18  24
ENDBRANCH  17  18
ENDBRANCH   4  17
TORSDOF 16
ENDMDL
