MODEL 1
REMARK VINA RESULT:      -8.8      0.000      0.000
REMARK  Name = NuBBE_1005
REMARK  10 active torsions:
REMARK  status: ('A' for Active; 'I' for Inactive)
REMARK    1  A    between atoms: C_1  and  C_2
REMARK    2  A    between atoms: C_2  and  C_3
REMARK    3  A    between atoms: C_2  and  C_35
REMARK    4  A    between atoms: C_3  and  C_5
REMARK    5  A    between atoms: C_3  and  C_34
REMARK    6  A    between atoms: C_6  and  C_7
REMARK    7  A    between atoms: C_7  and  C_9
REMARK    8  A    between atoms: C_7  and  C_33
REMARK    9  A    between atoms: C_21  and  C_28
REMARK   10  A    between atoms: C_25  and  C_26
REMARK                            x       y       z     vdW  Elec       q    Type
REMARK                         _______ _______ _______ _____ _____    ______ ____
ROOT
ATOM      1  C   LIG A   1      -5.079   0.824 127.157  0.00  0.00    +0.005 C 
ATOM      2  C   LIG A   1      -5.332   1.691 125.901  0.00  0.00    +0.007 C 
ATOM      3  C   LIG A   1      -4.759   3.064 126.247  0.00  0.00    +0.039 C 
ATOM      4  C   LIG A   1      -4.808   3.125 127.742  0.00  0.00    +0.105 C 
ATOM      5  C   LIG A   1      -3.934   4.101 128.538  0.00  0.00    +0.110 C 
ATOM      6  C   LIG A   1      -3.036   5.068 127.816  0.00  0.00    +0.117 C 
ATOM      7  C   LIG A   1      -2.443   6.155 128.682  0.00  0.00    +0.163 C 
ATOM      8  C   LIG A   1      -2.312   5.912 130.152  0.00  0.00    +0.005 C 
ATOM      9  C   LIG A   1      -1.284   6.528 130.762  0.00  0.00    +0.053 C 
ATOM     10  C   LIG A   1      -1.087   6.402 132.221  0.00  0.00    +0.157 C 
ATOM     11  C   LIG A   1      -2.144   5.694 133.027  0.00  0.00    +0.080 C 
ATOM     12  C   LIG A   1      -2.766   4.560 132.221  0.00  0.00    +0.019 C 
ATOM     13  C   LIG A   1      -3.318   5.000 130.835  0.00  0.00    +0.002 C 
ATOM     14  C   LIG A   1      -3.524   3.727 129.945  0.00  0.00    +0.035 C 
ATOM     15  C   LIG A   1      -4.441   2.656 130.563  0.00  0.00    +0.008 C 
ATOM     16  C   LIG A   1      -4.605   1.461 129.618  0.00  0.00    +0.010 C 
ATOM     17  C   LIG A   1      -5.365   1.831 128.329  0.00  0.00    +0.003 C 
ATOM     18  C   LIG A   1      -6.877   1.971 128.611  0.00  0.00    +0.014 C 
ATOM     19  C   LIG A   1      -4.625   5.797 131.045  0.00  0.00    +0.016 C 
ATOM     20  O   LIG A   1      -0.106   6.928 132.748  0.00  0.00    -0.293 OA
ATOM     21  O   LIG A   1      -1.985   7.182 128.179  0.00  0.00    -0.292 OA
ATOM     22  O   LIG A   1      -5.328   4.334 128.314  0.00  0.00    -0.360 OA
ENDROOT
BRANCH   1  23
ATOM     23  C   LIG A   1      -5.863  -0.516 127.104  0.00  0.00    +0.012 C 
ATOM     24  C   LIG A   1      -5.240  -1.613 127.970  0.00  0.00    +0.012 C 
BRANCH  23  26
ATOM     25  C   LIG A   1      -5.753  -2.300 125.314  0.00  0.00    -0.027 C 
ATOM     26  C   LIG A   1      -5.924  -1.015 125.672  0.00  0.00    -0.027 C 
BRANCH  25  27
ATOM     27  C   LIG A   1      -5.916  -2.809 123.896  0.00  0.00    +0.011 C 
ATOM     28  C   LIG A   1      -4.888  -3.918 123.643  0.00  0.00    +0.012 C 
BRANCH  27  30
ATOM     29  C   LIG A   1      -8.247  -2.187 123.021  0.00  0.00    +0.008 C 
ATOM     30  C   LIG A   1      -7.376  -3.287 123.637  0.00  0.00    -0.011 C 
ATOM     31  C   LIG A   1      -8.047  -3.787 124.924  0.00  0.00    +0.008 C 
ENDBRANCH  27  30
ENDBRANCH  25  27
ENDBRANCH  23  26
ENDBRANCH   1  23
TORSDOF 4
ENDMDL
MODEL 2
REMARK VINA RESULT:      -8.7      5.239      6.440
REMARK  Name = NuBBE_1005
REMARK  10 active torsions:
REMARK  status: ('A' for Active; 'I' for Inactive)
REMARK    1  A    between atoms: C_1  and  C_2
REMARK    2  A    between atoms: C_2  and  C_3
REMARK    3  A    between atoms: C_2  and  C_35
REMARK    4  A    between atoms: C_3  and  C_5
REMARK    5  A    between atoms: C_3  and  C_34
REMARK    6  A    between atoms: C_6  and  C_7
REMARK    7  A    between atoms: C_7  and  C_9
REMARK    8  A    between atoms: C_7  and  C_33
REMARK    9  A    between atoms: C_21  and  C_28
REMARK   10  A    between atoms: C_25  and  C_26
REMARK                            x       y       z     vdW  Elec       q    Type
REMARK                         _______ _______ _______ _____ _____    ______ ____
ROOT
ATOM      1  C   LIG A   1      -7.020  -2.757 128.798  0.00  0.00    +0.005 C 
ATOM      2  C   LIG A   1      -5.782  -2.308 127.986  0.00  0.00    +0.007 C 
ATOM      3  C   LIG A   1      -4.722  -1.976 129.034  0.00  0.00    +0.039 C 
ATOM      4  C   LIG A   1      -5.504  -1.632 130.263  0.00  0.00    +0.105 C 
ATOM      5  C   LIG A   1      -4.874  -1.680 131.660  0.00  0.00    +0.110 C 
ATOM      6  C   LIG A   1      -3.418  -2.027 131.817  0.00  0.00    +0.117 C 
ATOM      7  C   LIG A   1      -2.848  -1.772 133.193  0.00  0.00    +0.163 C 
ATOM      8  C   LIG A   1      -3.778  -1.744 134.364  0.00  0.00    +0.005 C 
ATOM      9  C   LIG A   1      -3.261  -2.146 135.538  0.00  0.00    +0.053 C 
ATOM     10  C   LIG A   1      -4.071  -2.112 136.772  0.00  0.00    +0.157 C 
ATOM     11  C   LIG A   1      -5.437  -1.479 136.713  0.00  0.00    +0.080 C 
ATOM     12  C   LIG A   1      -6.086  -1.726 135.357  0.00  0.00    +0.019 C 
ATOM     13  C   LIG A   1      -5.211  -1.285 134.149  0.00  0.00    +0.002 C 
ATOM     14  C   LIG A   1      -5.764  -1.963 132.849  0.00  0.00    +0.035 C 
ATOM     15  C   LIG A   1      -7.248  -1.676 132.559  0.00  0.00    +0.008 C 
ATOM     16  C   LIG A   1      -7.697  -2.357 131.261  0.00  0.00    +0.010 C 
ATOM     17  C   LIG A   1      -7.004  -1.766 130.017  0.00  0.00    +0.003 C 
ATOM     18  C   LIG A   1      -7.618  -0.396 129.654  0.00  0.00    +0.014 C 
ATOM     19  C   LIG A   1      -5.215   0.258 134.062  0.00  0.00    +0.016 C 
ATOM     20  O   LIG A   1      -3.594  -2.539 137.823  0.00  0.00    -0.293 OA
ATOM     21  O   LIG A   1      -1.631  -1.685 133.364  0.00  0.00    -0.292 OA
ATOM     22  O   LIG A   1      -5.100  -0.448 130.966  0.00  0.00    -0.360 OA
ENDROOT
BRANCH   1  23
ATOM     23  C   LIG A   1      -8.293  -2.844 127.912  0.00  0.00    +0.012 C 
ATOM     24  C   LIG A   1      -9.060  -4.157 128.088  0.00  0.00    +0.012 C 
BRANCH  23  26
ATOM     25  C   LIG A   1      -8.160  -3.642 125.516  0.00  0.00    -0.027 C 
ATOM     26  C   LIG A   1      -7.908  -2.709 126.450  0.00  0.00    -0.027 C 
BRANCH  25  27
ATOM     27  C   LIG A   1      -7.865  -3.458 124.040  0.00  0.00    +0.011 C 
ATOM     28  C   LIG A   1      -9.092  -2.838 123.362  0.00  0.00    +0.012 C 
BRANCH  27  30
ATOM     29  C   LIG A   1      -6.594  -1.853 122.492  0.00  0.00    +0.008 C 
ATOM     30  C   LIG A   1      -6.579  -2.606 123.827  0.00  0.00    -0.011 C 
ATOM     31  C   LIG A   1      -5.309  -3.466 123.896  0.00  0.00    +0.008 C 
ENDBRANCH  27  30
ENDBRANCH  25  27
ENDBRANCH  23  26
ENDBRANCH   1  23
TORSDOF 4
ENDMDL
MODEL 3
REMARK VINA RESULT:      -8.5      2.023      3.613
REMARK  Name = NuBBE_1005
REMARK  10 active torsions:
REMARK  status: ('A' for Active; 'I' for Inactive)
REMARK    1  A    between atoms: C_1  and  C_2
REMARK    2  A    between atoms: C_2  and  C_3
REMARK    3  A    between atoms: C_2  and  C_35
REMARK    4  A    between atoms: C_3  and  C_5
REMARK    5  A    between atoms: C_3  and  C_34
REMARK    6  A    between atoms: C_6  and  C_7
REMARK    7  A    between atoms: C_7  and  C_9
REMARK    8  A    between atoms: C_7  and  C_33
REMARK    9  A    between atoms: C_21  and  C_28
REMARK   10  A    between atoms: C_25  and  C_26
REMARK                            x       y       z     vdW  Elec       q    Type
REMARK                         _______ _______ _______ _____ _____    ______ ____
ROOT
ATOM      1  C   LIG A   1      -7.659   2.151 125.042  0.00  0.00    +0.005 C 
ATOM      2  C   LIG A   1      -8.532   1.345 126.033  0.00  0.00    +0.007 C 
ATOM      3  C   LIG A   1      -8.183   1.903 127.411  0.00  0.00    +0.039 C 
ATOM      4  C   LIG A   1      -6.803   2.461 127.252  0.00  0.00    +0.105 C 
ATOM      5  C   LIG A   1      -6.239   3.506 128.221  0.00  0.00    +0.110 C 
ATOM      6  C   LIG A   1      -7.056   3.957 129.401  0.00  0.00    +0.117 C 
ATOM      7  C   LIG A   1      -6.299   4.767 130.428  0.00  0.00    +0.163 C 
ATOM      8  C   LIG A   1      -5.069   5.502 130.000  0.00  0.00    +0.005 C 
ATOM      9  C   LIG A   1      -4.800   6.639 130.665  0.00  0.00    +0.053 C 
ATOM     10  C   LIG A   1      -3.583   7.420 130.364  0.00  0.00    +0.157 C 
ATOM     11  C   LIG A   1      -2.580   6.839 129.403  0.00  0.00    +0.080 C 
ATOM     12  C   LIG A   1      -3.280   6.031 128.317  0.00  0.00    +0.019 C 
ATOM     13  C   LIG A   1      -4.235   4.932 128.865  0.00  0.00    +0.002 C 
ATOM     14  C   LIG A   1      -5.198   4.479 127.715  0.00  0.00    +0.035 C 
ATOM     15  C   LIG A   1      -4.486   3.977 126.445  0.00  0.00    +0.008 C 
ATOM     16  C   LIG A   1      -5.501   3.534 125.386  0.00  0.00    +0.010 C 
ATOM     17  C   LIG A   1      -6.301   2.290 125.821  0.00  0.00    +0.003 C 
ATOM     18  C   LIG A   1      -5.435   1.018 125.699  0.00  0.00    +0.014 C 
ATOM     19  C   LIG A   1      -3.389   3.766 129.426  0.00  0.00    +0.016 C 
ATOM     20  O   LIG A   1      -3.388   8.488 130.946  0.00  0.00    -0.293 OA
ATOM     21  O   LIG A   1      -6.738   4.902 131.571  0.00  0.00    -0.292 OA
ATOM     22  O   LIG A   1      -5.858   2.128 128.279  0.00  0.00    -0.360 OA
ENDROOT
BRANCH   1  23
ATOM     23  C   LIG A   1      -7.655   1.517 123.624  0.00  0.00    +0.012 C 
ATOM     24  C   LIG A   1      -8.705   2.124 122.690  0.00  0.00    +0.012 C 
BRANCH  23  26
ATOM     25  C   LIG A   1      -7.110  -0.920 123.223  0.00  0.00    -0.027 C 
ATOM     26  C   LIG A   1      -7.918   0.026 123.732  0.00  0.00    -0.027 C 
BRANCH  25  27
ATOM     27  C   LIG A   1      -7.323  -2.408 123.423  0.00  0.00    +0.011 C 
ATOM     28  C   LIG A   1      -6.090  -2.999 124.116  0.00  0.00    +0.012 C 
BRANCH  27  30
ATOM     29  C   LIG A   1      -8.408  -3.617 125.410  0.00  0.00    +0.008 C 
ATOM     30  C   LIG A   1      -8.635  -2.684 124.215  0.00  0.00    -0.011 C 
ATOM     31  C   LIG A   1      -9.726  -3.287 123.318  0.00  0.00    +0.008 C 
ENDBRANCH  27  30
ENDBRANCH  25  27
ENDBRANCH  23  26
ENDBRANCH   1  23
TORSDOF 4
ENDMDL
MODEL 4
REMARK VINA RESULT:      -8.4      2.920      9.557
REMARK  Name = NuBBE_1005
REMARK  10 active torsions:
REMARK  status: ('A' for Active; 'I' for Inactive)
REMARK    1  A    between atoms: C_1  and  C_2
REMARK    2  A    between atoms: C_2  and  C_3
REMARK    3  A    between atoms: C_2  and  C_35
REMARK    4  A    between atoms: C_3  and  C_5
REMARK    5  A    between atoms: C_3  and  C_34
REMARK    6  A    between atoms: C_6  and  C_7
REMARK    7  A    between atoms: C_7  and  C_9
REMARK    8  A    between atoms: C_7  and  C_33
REMARK    9  A    between atoms: C_21  and  C_28
REMARK   10  A    between atoms: C_25  and  C_26
REMARK                            x       y       z     vdW  Elec       q    Type
REMARK                         _______ _______ _______ _____ _____    ______ ____
ROOT
ATOM      1  C   LIG A   1      -3.965   2.533 127.737  0.00  0.00    +0.005 C 
ATOM      2  C   LIG A   1      -4.235   2.167 129.216  0.00  0.00    +0.007 C 
ATOM      3  C   LIG A   1      -5.319   1.092 129.165  0.00  0.00    +0.039 C 
ATOM      4  C   LIG A   1      -6.030   1.336 127.870  0.00  0.00    +0.105 C 
ATOM      5  C   LIG A   1      -6.870   0.248 127.194  0.00  0.00    +0.110 C 
ATOM      6  C   LIG A   1      -7.043  -1.091 127.858  0.00  0.00    +0.117 C 
ATOM      7  C   LIG A   1      -8.106  -1.973 127.245  0.00  0.00    +0.163 C 
ATOM      8  C   LIG A   1      -8.489  -1.752 125.816  0.00  0.00    +0.005 C 
ATOM      9  C   LIG A   1      -8.897  -2.840 125.140  0.00  0.00    +0.053 C 
ATOM     10  C   LIG A   1      -9.349  -2.732 123.738  0.00  0.00    +0.157 C 
ATOM     11  C   LIG A   1      -9.483  -1.359 123.134  0.00  0.00    +0.080 C 
ATOM     12  C   LIG A   1      -8.417  -0.421 123.686  0.00  0.00    +0.019 C 
ATOM     13  C   LIG A   1      -8.384  -0.350 125.240  0.00  0.00    +0.002 C 
ATOM     14  C   LIG A   1      -7.018   0.274 125.689  0.00  0.00    +0.035 C 
ATOM     15  C   LIG A   1      -6.721   1.661 125.090  0.00  0.00    +0.008 C 
ATOM     16  C   LIG A   1      -5.382   2.204 125.599  0.00  0.00    +0.010 C 
ATOM     17  C   LIG A   1      -5.406   2.504 127.111  0.00  0.00    +0.003 C 
ATOM     18  C   LIG A   1      -6.181   3.809 127.393  0.00  0.00    +0.014 C 
ATOM     19  C   LIG A   1      -9.600   0.466 125.732  0.00  0.00    +0.016 C 
ATOM     20  O   LIG A   1      -9.662  -3.751 123.121  0.00  0.00    -0.293 OA
ATOM     21  O   LIG A   1      -8.579  -2.920 127.876  0.00  0.00    -0.292 OA
ATOM     22  O   LIG A   1      -7.464   1.330 127.918  0.00  0.00    -0.360 OA
ENDROOT
BRANCH   1  23
ATOM     23  C   LIG A   1      -3.109   3.823 127.606  0.00  0.00    +0.012 C 
ATOM     24  C   LIG A   1      -1.778   3.592 126.887  0.00  0.00    +0.012 C 
BRANCH  23  26
ATOM     25  C   LIG A   1      -3.277   5.561 129.435  0.00  0.00    -0.027 C 
ATOM     26  C   LIG A   1      -2.815   4.382 128.986  0.00  0.00    -0.027 C 
BRANCH  25  27
ATOM     27  C   LIG A   1      -3.067   6.067 130.849  0.00  0.00    +0.011 C 
ATOM     28  C   LIG A   1      -4.366   5.885 131.641  0.00  0.00    +0.012 C 
BRANCH  27  30
ATOM     29  C   LIG A   1      -2.293   4.424 132.663  0.00  0.00    +0.008 C 
ATOM     30  C   LIG A   1      -1.858   5.353 131.524  0.00  0.00    -0.011 C 
ATOM     31  C   LIG A   1      -0.836   6.360 132.071  0.00  0.00    +0.008 C 
ENDBRANCH  27  30
ENDBRANCH  25  27
ENDBRANCH  23  26
ENDBRANCH   1  23
TORSDOF 4
ENDMDL
MODEL 5
REMARK VINA RESULT:      -8.4      5.134      8.972
REMARK  Name = NuBBE_1005
REMARK  10 active torsions:
REMARK  status: ('A' for Active; 'I' for Inactive)
REMARK    1  A    between atoms: C_1  and  C_2
REMARK    2  A    between atoms: C_2  and  C_3
REMARK    3  A    between atoms: C_2  and  C_35
REMARK    4  A    between atoms: C_3  and  C_5
REMARK    5  A    between atoms: C_3  and  C_34
REMARK    6  A    between atoms: C_6  and  C_7
REMARK    7  A    between atoms: C_7  and  C_9
REMARK    8  A    between atoms: C_7  and  C_33
REMARK    9  A    between atoms: C_21  and  C_28
REMARK   10  A    between atoms: C_25  and  C_26
REMARK                            x       y       z     vdW  Elec       q    Type
REMARK                         _______ _______ _______ _____ _____    ______ ____
ROOT
ATOM      1  C   LIG A   1      -8.479   4.048 131.207  0.00  0.00    +0.005 C 
ATOM      2  C   LIG A   1      -9.889   3.481 131.503  0.00  0.00    +0.007 C 
ATOM      3  C   LIG A   1      -9.677   1.982 131.705  0.00  0.00    +0.039 C 
ATOM      4  C   LIG A   1      -8.426   1.673 130.942  0.00  0.00    +0.105 C 
ATOM      5  C   LIG A   1      -7.594   0.418 131.229  0.00  0.00    +0.110 C 
ATOM      6  C   LIG A   1      -8.057  -0.570 132.265  0.00  0.00    +0.117 C 
ATOM      7  C   LIG A   1      -7.316  -1.887 132.263  0.00  0.00    +0.163 C 
ATOM      8  C   LIG A   1      -5.932  -1.934 131.698  0.00  0.00    +0.005 C 
ATOM      9  C   LIG A   1      -5.103  -2.841 132.244  0.00  0.00    +0.053 C 
ATOM     10  C   LIG A   1      -3.729  -3.013 131.731  0.00  0.00    +0.157 C 
ATOM     11  C   LIG A   1      -3.329  -2.256 130.491  0.00  0.00    +0.080 C 
ATOM     12  C   LIG A   1      -4.017  -0.898 130.444  0.00  0.00    +0.019 C 
ATOM     13  C   LIG A   1      -5.565  -0.971 130.582  0.00  0.00    +0.002 C 
ATOM     14  C   LIG A   1      -6.108   0.452 130.950  0.00  0.00    +0.035 C 
ATOM     15  C   LIG A   1      -5.717   1.563 129.958  0.00  0.00    +0.008 C 
ATOM     16  C   LIG A   1      -6.308   2.911 130.382  0.00  0.00    +0.010 C 
ATOM     17  C   LIG A   1      -7.847   2.931 130.300  0.00  0.00    +0.003 C 
ATOM     18  C   LIG A   1      -8.310   3.052 128.832  0.00  0.00    +0.014 C 
ATOM     19  C   LIG A   1      -6.163  -1.511 129.263  0.00  0.00    +0.016 C 
ATOM     20  O   LIG A   1      -2.969  -3.808 132.284  0.00  0.00    -0.293 OA
ATOM     21  O   LIG A   1      -7.801  -2.882 132.805  0.00  0.00    -0.292 OA
ATOM     22  O   LIG A   1      -8.464   0.514 130.097  0.00  0.00    -0.360 OA
ENDROOT
BRANCH   1  23
ATOM     23  C   LIG A   1      -8.542   5.507 130.677  0.00  0.00    +0.012 C 
ATOM     24  C   LIG A   1      -7.725   6.489 131.520  0.00  0.00    +0.012 C 
BRANCH  23  26
ATOM     25  C   LIG A   1     -10.597   6.477 129.568  0.00  0.00    -0.027 C 
ATOM     26  C   LIG A   1      -9.984   5.981 130.656  0.00  0.00    -0.027 C 
BRANCH  25  27
ATOM     27  C   LIG A   1     -12.066   6.852 129.526  0.00  0.00    +0.011 C 
ATOM     28  C   LIG A   1     -12.532   7.197 130.945  0.00  0.00    +0.012 C 
BRANCH  27  30
ATOM     29  C   LIG A   1     -11.071   8.354 127.699  0.00  0.00    +0.008 C 
ATOM     30  C   LIG A   1     -12.318   8.015 128.523  0.00  0.00    -0.011 C 
ATOM     31  C   LIG A   1     -12.801   9.287 129.235  0.00  0.00    +0.008 C 
ENDBRANCH  27  30
ENDBRANCH  25  27
ENDBRANCH  23  26
ENDBRANCH   1  23
TORSDOF 4
ENDMDL
MODEL 6
REMARK VINA RESULT:      -8.2      2.308      3.365
REMARK  Name = NuBBE_1005
REMARK  10 active torsions:
REMARK  status: ('A' for Active; 'I' for Inactive)
REMARK    1  A    between atoms: C_1  and  C_2
REMARK    2  A    between atoms: C_2  and  C_3
REMARK    3  A    between atoms: C_2  and  C_35
REMARK    4  A    between atoms: C_3  and  C_5
REMARK    5  A    between atoms: C_3  and  C_34
REMARK    6  A    between atoms: C_6  and  C_7
REMARK    7  A    between atoms: C_7  and  C_9
REMARK    8  A    between atoms: C_7  and  C_33
REMARK    9  A    between atoms: C_21  and  C_28
REMARK   10  A    between atoms: C_25  and  C_26
REMARK                            x       y       z     vdW  Elec       q    Type
REMARK                         _______ _______ _______ _____ _____    ______ ____
ROOT
ATOM      1  C   LIG A   1      -6.918  -0.745 128.358  0.00  0.00    +0.005 C 
ATOM      2  C   LIG A   1      -5.831  -0.414 127.307  0.00  0.00    +0.007 C 
ATOM      3  C   LIG A   1      -5.188   0.880 127.799  0.00  0.00    +0.039 C 
ATOM      4  C   LIG A   1      -6.246   1.532 128.636  0.00  0.00    +0.105 C 
ATOM      5  C   LIG A   1      -5.904   2.598 129.682  0.00  0.00    +0.110 C 
ATOM      6  C   LIG A   1      -4.481   3.056 129.852  0.00  0.00    +0.117 C 
ATOM      7  C   LIG A   1      -4.308   4.293 130.703  0.00  0.00    +0.163 C 
ATOM      8  C   LIG A   1      -5.366   4.631 131.705  0.00  0.00    +0.005 C 
ATOM      9  C   LIG A   1      -4.948   5.275 132.809  0.00  0.00    +0.053 C 
ATOM     10  C   LIG A   1      -5.911   5.705 133.843  0.00  0.00    +0.157 C 
ATOM     11  C   LIG A   1      -7.382   5.538 133.563  0.00  0.00    +0.080 C 
ATOM     12  C   LIG A   1      -7.634   4.286 132.731  0.00  0.00    +0.019 C 
ATOM     13  C   LIG A   1      -6.802   4.224 131.418  0.00  0.00    +0.002 C 
ATOM     14  C   LIG A   1      -6.807   2.750 130.885  0.00  0.00    +0.035 C 
ATOM     15  C   LIG A   1      -8.210   2.160 130.651  0.00  0.00    +0.008 C 
ATOM     16  C   LIG A   1      -8.120   0.729 130.110  0.00  0.00    +0.010 C 
ATOM     17  C   LIG A   1      -7.506   0.673 128.697  0.00  0.00    +0.003 C 
ATOM     18  C   LIG A   1      -8.531   1.138 127.641  0.00  0.00    +0.014 C 
ATOM     19  C   LIG A   1      -7.392   5.226 130.401  0.00  0.00    +0.016 C 
ATOM     20  O   LIG A   1      -5.499   6.240 134.872  0.00  0.00    -0.293 OA
ATOM     21  O   LIG A   1      -3.272   4.957 130.645  0.00  0.00    -0.292 OA
ATOM     22  O   LIG A   1      -6.467   2.931 128.409  0.00  0.00    -0.360 OA
ENDROOT
BRANCH   1  23
ATOM     23  C   LIG A   1      -7.878  -1.863 127.866  0.00  0.00    +0.012 C 
ATOM     24  C   LIG A   1      -7.980  -3.040 128.839  0.00  0.00    +0.012 C 
BRANCH  23  26
ATOM     25  C   LIG A   1      -8.212  -2.914 125.590  0.00  0.00    -0.027 C 
ATOM     26  C   LIG A   1      -7.401  -2.392 126.526  0.00  0.00    -0.027 C 
BRANCH  25  27
ATOM     27  C   LIG A   1      -7.745  -3.345 124.214  0.00  0.00    +0.011 C 
ATOM     28  C   LIG A   1      -8.806  -2.949 123.181  0.00  0.00    +0.012 C 
BRANCH  27  30
ATOM     29  C   LIG A   1      -6.347  -1.956 122.569  0.00  0.00    +0.008 C 
ATOM     30  C   LIG A   1      -6.346  -2.744 123.884  0.00  0.00    -0.011 C 
ATOM     31  C   LIG A   1      -5.263  -3.829 123.809  0.00  0.00    +0.008 C 
ENDBRANCH  27  30
ENDBRANCH  25  27
ENDBRANCH  23  26
ENDBRANCH   1  23
TORSDOF 4
ENDMDL
MODEL 7
REMARK VINA RESULT:      -8.1      5.174      8.067
REMARK  Name = NuBBE_1005
REMARK  10 active torsions:
REMARK  status: ('A' for Active; 'I' for Inactive)
REMARK    1  A    between atoms: C_1  and  C_2
REMARK    2  A    between atoms: C_2  and  C_3
REMARK    3  A    between atoms: C_2  and  C_35
REMARK    4  A    between atoms: C_3  and  C_5
REMARK    5  A    between atoms: C_3  and  C_34
REMARK    6  A    between atoms: C_6  and  C_7
REMARK    7  A    between atoms: C_7  and  C_9
REMARK    8  A    between atoms: C_7  and  C_33
REMARK    9  A    between atoms: C_21  and  C_28
REMARK   10  A    between atoms: C_25  and  C_26
REMARK                            x       y       z     vdW  Elec       q    Type
REMARK                         _______ _______ _______ _____ _____    ______ ____
ROOT
ATOM      1  C   LIG A   1      -5.776  -2.554 128.689  0.00  0.00    +0.005 C 
ATOM      2  C   LIG A   1      -7.187  -3.002 129.139  0.00  0.00    +0.007 C 
ATOM      3  C   LIG A   1      -8.153  -2.182 128.286  0.00  0.00    +0.039 C 
ATOM      4  C   LIG A   1      -7.376  -0.958 127.912  0.00  0.00    +0.105 C 
ATOM      5  C   LIG A   1      -7.769  -0.089 126.712  0.00  0.00    +0.110 C 
ATOM      6  C   LIG A   1      -8.995  -0.427 125.908  0.00  0.00    +0.117 C 
ATOM      7  C   LIG A   1      -9.434   0.645 124.937  0.00  0.00    +0.163 C 
ATOM      8  C   LIG A   1      -8.422   1.631 124.447  0.00  0.00    +0.005 C 
ATOM      9  C   LIG A   1      -8.622   2.114 123.208  0.00  0.00    +0.053 C 
ATOM     10  C   LIG A   1      -7.716   3.133 122.640  0.00  0.00    +0.157 C 
ATOM     11  C   LIG A   1      -6.656   3.724 123.532  0.00  0.00    +0.080 C 
ATOM     12  C   LIG A   1      -6.142   2.685 124.520  0.00  0.00    +0.019 C 
ATOM     13  C   LIG A   1      -7.263   2.002 125.356  0.00  0.00    +0.002 C 
ATOM     14  C   LIG A   1      -6.690   0.690 125.995  0.00  0.00    +0.035 C 
ATOM     15  C   LIG A   1      -5.434   0.898 126.862  0.00  0.00    +0.008 C 
ATOM     16  C   LIG A   1      -4.958  -0.429 127.464  0.00  0.00    +0.010 C 
ATOM     17  C   LIG A   1      -5.961  -1.007 128.481  0.00  0.00    +0.003 C 
ATOM     18  C   LIG A   1      -5.887  -0.234 129.816  0.00  0.00    +0.014 C 
ATOM     19  C   LIG A   1      -7.780   3.002 126.415  0.00  0.00    +0.016 C 
ATOM     20  O   LIG A   1      -7.885   3.518 121.483  0.00  0.00    -0.293 OA
ATOM     21  O   LIG A   1     -10.579   0.649 124.480  0.00  0.00    -0.292 OA
ATOM     22  O   LIG A   1      -8.055   0.298 128.060  0.00  0.00    -0.360 OA
ENDROOT
BRANCH   1  23
ATOM     23  C   LIG A   1      -4.671  -3.059 129.657  0.00  0.00    +0.012 C 
ATOM     24  C   LIG A   1      -3.518  -3.765 128.939  0.00  0.00    +0.012 C 
BRANCH  23  26
ATOM     25  C   LIG A   1      -4.968  -4.048 131.966  0.00  0.00    -0.027 C 
ATOM     26  C   LIG A   1      -5.275  -4.029 130.657  0.00  0.00    -0.027 C 
BRANCH  25  27
ATOM     27  C   LIG A   1      -5.648  -4.949 132.978  0.00  0.00    +0.011 C 
ATOM     28  C   LIG A   1      -4.583  -5.781 133.701  0.00  0.00    +0.012 C 
BRANCH  27  30
ATOM     29  C   LIG A   1      -7.319  -5.012 134.925  0.00  0.00    +0.008 C 
ATOM     30  C   LIG A   1      -6.522  -4.121 133.966  0.00  0.00    -0.011 C 
ATOM     31  C   LIG A   1      -7.497  -3.195 133.226  0.00  0.00    +0.008 C 
ENDBRANCH  27  30
ENDBRANCH  25  27
ENDBRANCH  23  26
ENDBRANCH   1  23
TORSDOF 4
ENDMDL
MODEL 8
REMARK VINA RESULT:      -8.0      3.082      4.008
REMARK  Name = NuBBE_1005
REMARK  10 active torsions:
REMARK  status: ('A' for Active; 'I' for Inactive)
REMARK    1  A    between atoms: C_1  and  C_2
REMARK    2  A    between atoms: C_2  and  C_3
REMARK    3  A    between atoms: C_2  and  C_35
REMARK    4  A    between atoms: C_3  and  C_5
REMARK    5  A    between atoms: C_3  and  C_34
REMARK    6  A    between atoms: C_6  and  C_7
REMARK    7  A    between atoms: C_7  and  C_9
REMARK    8  A    between atoms: C_7  and  C_33
REMARK    9  A    between atoms: C_21  and  C_28
REMARK   10  A    between atoms: C_25  and  C_26
REMARK                            x       y       z     vdW  Elec       q    Type
REMARK                         _______ _______ _______ _____ _____    ______ ____
ROOT
ATOM      1  C   LIG A   1      -5.593  -0.382 128.319  0.00  0.00    +0.005 C 
ATOM      2  C   LIG A   1      -5.295   0.546 127.117  0.00  0.00    +0.007 C 
ATOM      3  C   LIG A   1      -5.615   1.954 127.615  0.00  0.00    +0.039 C 
ATOM      4  C   LIG A   1      -6.608   1.746 128.716  0.00  0.00    +0.105 C 
ATOM      5  C   LIG A   1      -6.860   2.812 129.789  0.00  0.00    +0.110 C 
ATOM      6  C   LIG A   1      -6.139   4.130 129.722  0.00  0.00    +0.117 C 
ATOM      7  C   LIG A   1      -6.667   5.193 130.657  0.00  0.00    +0.163 C 
ATOM      8  C   LIG A   1      -7.411   4.767 131.883  0.00  0.00    +0.005 C 
ATOM      9  C   LIG A   1      -7.309   5.582 132.948  0.00  0.00    +0.053 C 
ATOM     10  C   LIG A   1      -8.042   5.290 134.196  0.00  0.00    +0.157 C 
ATOM     11  C   LIG A   1      -9.019   4.143 134.199  0.00  0.00    +0.080 C 
ATOM     12  C   LIG A   1      -8.531   3.017 133.297  0.00  0.00    +0.019 C 
ATOM     13  C   LIG A   1      -8.202   3.470 131.845  0.00  0.00    +0.002 C 
ATOM     14  C   LIG A   1      -7.324   2.369 131.158  0.00  0.00    +0.035 C 
ATOM     15  C   LIG A   1      -7.955   0.964 131.144  0.00  0.00    +0.008 C 
ATOM     16  C   LIG A   1      -7.042  -0.041 130.434  0.00  0.00    +0.010 C 
ATOM     17  C   LIG A   1      -6.891   0.261 128.930  0.00  0.00    +0.003 C 
ATOM     18  C   LIG A   1      -8.161  -0.165 128.161  0.00  0.00    +0.014 C 
ATOM     19  C   LIG A   1      -9.524   3.733 131.089  0.00  0.00    +0.016 C 
ATOM     20  O   LIG A   1      -7.887   6.019 135.176  0.00  0.00    -0.293 OA
ATOM     21  O   LIG A   1      -6.408   6.382 130.469  0.00  0.00    -0.292 OA
ATOM     22  O   LIG A   1      -7.764   2.595 128.701  0.00  0.00    -0.360 OA
ENDROOT
BRANCH   1  23
ATOM     23  C   LIG A   1      -5.615  -1.879 127.904  0.00  0.00    +0.012 C 
ATOM     24  C   LIG A   1      -4.485  -2.695 128.536  0.00  0.00    +0.012 C 
BRANCH  23  26
ATOM     25  C   LIG A   1      -6.496  -2.397 125.591  0.00  0.00    -0.027 C 
ATOM     26  C   LIG A   1      -5.498  -1.991 126.395  0.00  0.00    -0.027 C 
BRANCH  25  27
ATOM     27  C   LIG A   1      -6.407  -2.408 124.078  0.00  0.00    +0.011 C 
ATOM     28  C   LIG A   1      -5.195  -3.248 123.657  0.00  0.00    +0.012 C 
BRANCH  27  30
ATOM     29  C   LIG A   1      -8.540  -1.800 122.786  0.00  0.00    +0.008 C 
ATOM     30  C   LIG A   1      -7.732  -2.925 123.443  0.00  0.00    -0.011 C 
ATOM     31  C   LIG A   1      -8.620  -3.634 124.476  0.00  0.00    +0.008 C 
ENDBRANCH  27  30
ENDBRANCH  25  27
ENDBRANCH  23  26
ENDBRANCH   1  23
TORSDOF 4
ENDMDL
MODEL 9
REMARK VINA RESULT:      -7.9      5.700      9.352
REMARK  Name = NuBBE_1005
REMARK  10 active torsions:
REMARK  status: ('A' for Active; 'I' for Inactive)
REMARK    1  A    between atoms: C_1  and  C_2
REMARK    2  A    between atoms: C_2  and  C_3
REMARK    3  A    between atoms: C_2  and  C_35
REMARK    4  A    between atoms: C_3  and  C_5
REMARK    5  A    between atoms: C_3  and  C_34
REMARK    6  A    between atoms: C_6  and  C_7
REMARK    7  A    between atoms: C_7  and  C_9
REMARK    8  A    between atoms: C_7  and  C_33
REMARK    9  A    between atoms: C_21  and  C_28
REMARK   10  A    between atoms: C_25  and  C_26
REMARK                            x       y       z     vdW  Elec       q    Type
REMARK                         _______ _______ _______ _____ _____    ______ ____
ROOT
ATOM      1  C   LIG A   1      -9.046   3.971 131.469  0.00  0.00    +0.005 C 
ATOM      2  C   LIG A   1      -9.206   3.705 129.953  0.00  0.00    +0.007 C 
ATOM      3  C   LIG A   1      -8.779   2.251 129.760  0.00  0.00    +0.039 C 
ATOM      4  C   LIG A   1      -7.857   1.975 130.907  0.00  0.00    +0.105 C 
ATOM      5  C   LIG A   1      -7.555   0.546 131.373  0.00  0.00    +0.110 C 
ATOM      6  C   LIG A   1      -8.148  -0.626 130.639  0.00  0.00    +0.117 C 
ATOM      7  C   LIG A   1      -7.564  -1.970 131.009  0.00  0.00    +0.163 C 
ATOM      8  C   LIG A   1      -6.916  -2.129 132.348  0.00  0.00    +0.005 C 
ATOM      9  C   LIG A   1      -6.988  -3.355 132.895  0.00  0.00    +0.053 C 
ATOM     10  C   LIG A   1      -6.340  -3.643 134.190  0.00  0.00    +0.157 C 
ATOM     11  C   LIG A   1      -5.474  -2.577 134.809  0.00  0.00    +0.080 C 
ATOM     12  C   LIG A   1      -6.025  -1.190 134.501  0.00  0.00    +0.019 C 
ATOM     13  C   LIG A   1      -6.248  -0.923 132.985  0.00  0.00    +0.002 C 
ATOM     14  C   LIG A   1      -7.193   0.317 132.823  0.00  0.00    +0.035 C 
ATOM     15  C   LIG A   1      -6.695   1.597 133.519  0.00  0.00    +0.008 C 
ATOM     16  C   LIG A   1      -7.666   2.760 133.290  0.00  0.00    +0.010 C 
ATOM     17  C   LIG A   1      -7.723   3.196 131.812  0.00  0.00    +0.003 C 
ATOM     18  C   LIG A   1      -6.466   4.011 131.438  0.00  0.00    +0.014 C 
ATOM     19  C   LIG A   1      -4.876  -0.716 132.304  0.00  0.00    +0.016 C 
ATOM     20  O   LIG A   1      -6.469  -4.757 134.699  0.00  0.00    -0.293 OA
ATOM     21  O   LIG A   1      -7.704  -2.942 130.266  0.00  0.00    -0.292 OA
ATOM     22  O   LIG A   1      -6.628   1.306 130.591  0.00  0.00    -0.360 OA
ENDROOT
BRANCH   1  23
ATOM     23  C   LIG A   1      -9.145   5.484 131.806  0.00  0.00    +0.012 C 
ATOM     24  C   LIG A   1      -8.807   5.800 133.264  0.00  0.00    +0.012 C 
BRANCH  23  26
ATOM     25  C   LIG A   1     -10.865   6.846 130.548  0.00  0.00    -0.027 C 
ATOM     26  C   LIG A   1     -10.553   5.977 131.525  0.00  0.00    -0.027 C 
BRANCH  25  27
ATOM     27  C   LIG A   1     -12.284   7.256 130.206  0.00  0.00    +0.011 C 
ATOM     28  C   LIG A   1     -12.965   7.794 131.469  0.00  0.00    +0.012 C 
BRANCH  27  30
ATOM     29  C   LIG A   1     -13.325   7.922 127.956  0.00  0.00    +0.008 C 
ATOM     30  C   LIG A   1     -12.304   8.288 129.039  0.00  0.00    -0.011 C 
ATOM     31  C   LIG A   1     -10.922   8.435 128.387  0.00  0.00    +0.008 C 
ENDBRANCH  27  30
ENDBRANCH  25  27
ENDBRANCH  23  26
ENDBRANCH   1  23
TORSDOF 4
ENDMDL
