MODEL 1
REMARK VINA RESULT:      -7.0      0.000      0.000
REMARK  Name = NuBBE_1361
REMARK  5 active torsions:
REMARK  status: ('A' for Active; 'I' for Inactive)
REMARK    1  A    between atoms: C_2  and  C_3
REMARK    2  A    between atoms: C_3  and  C_4
REMARK    3  A    between atoms: N_5  and  C_7
REMARK    4  A    between atoms: C_10  and  C_12
REMARK    5  A    between atoms: C_15  and  C_16
REMARK                            x       y       z     vdW  Elec       q    Type
REMARK                         _______ _______ _______ _____ _____    ______ ____
ROOT
ATOM      1  C   LIG A   1      -7.823   0.805 123.324  0.00  0.00    +0.065 C 
ATOM      2  N   LIG A   1      -9.011  -0.075 123.504  0.00  0.00    -0.301 NA
ATOM      3  C   LIG A   1      -8.867  -1.305 122.714  0.00  0.00    +0.089 C 
ATOM      4  C   LIG A   1     -10.305   0.542 123.234  0.00  0.00    +0.105 C 
ATOM      5  C   LIG A   1      -6.490   0.050 123.735  0.00  0.00    +0.028 C 
ATOM      6  C   LIG A   1      -6.312  -0.514 125.202  0.00  0.00    +0.089 C 
ATOM      7  C   LIG A   1      -6.374  -1.157 122.781  0.00  0.00    +0.013 C 
ATOM      8  C   LIG A   1      -7.574  -2.067 123.045  0.00  0.00    +0.021 C 
ATOM      9  C   LIG A   1      -7.489  -2.583 124.502  0.00  0.00    +0.062 C 
ATOM     10  N   LIG A   1      -7.347  -1.517 125.534  0.00  0.00    -0.292 NA
ATOM     11  C   LIG A   1      -7.209  -2.181 126.836  0.00  0.00    +0.085 C 
ATOM     12  C   LIG A   1      -8.577  -2.747 127.243  0.00  0.00    +0.015 C 
ATOM     13  C   LIG A   1      -9.470  -3.078 126.044  0.00  0.00    +0.003 C 
ATOM     14  C   LIG A   1      -8.638  -3.562 124.858  0.00  0.00    +0.019 C 
ENDROOT
BRANCH   6  15
ATOM     15  C   LIG A   1      -6.123   0.592 126.253  0.00  0.00    -0.038 C 
ATOM     16  C   LIG A   1      -4.988   1.291 126.400  0.00  0.00    +0.078 C 
ATOM     17  N   LIG A   1      -4.835   2.360 127.263  0.00  0.00    -0.278 N 
ATOM     18  C   LIG A   1      -3.682   3.161 127.347  0.00  0.00    +0.216 C 
ATOM     19  C   LIG A   1      -2.509   2.782 126.475  0.00  0.00    +0.110 C 
ATOM     20  O   LIG A   1      -3.600   4.146 128.076  0.00  0.00    -0.276 OA
ATOM     21  C   LIG A   1      -6.002   2.843 128.010  0.00  0.00    +0.113 C 
ATOM     22  C   LIG A   1      -6.995   1.736 128.330  0.00  0.00    +0.024 C 
ATOM     23  C   LIG A   1      -7.351   0.961 127.065  0.00  0.00    +0.035 C 
ENDBRANCH   6  15
BRANCH   1  24
ATOM     24  C   LIG A   1      -8.002   2.239 123.887  0.00  0.00    +0.045 C 
BRANCH  24  26
ATOM     25  C   LIG A   1      -6.438   4.120 124.476  0.00  0.00    +0.004 C 
ATOM     26  C   LIG A   1      -6.844   3.167 123.627  0.00  0.00    -0.033 C 
ENDBRANCH  24  26
ENDBRANCH   1  24
TORSDOF 3
ENDMDL
MODEL 2
REMARK VINA RESULT:      -6.9      2.004      4.279
REMARK  Name = NuBBE_1361
REMARK  5 active torsions:
REMARK  status: ('A' for Active; 'I' for Inactive)
REMARK    1  A    between atoms: C_2  and  C_3
REMARK    2  A    between atoms: C_3  and  C_4
REMARK    3  A    between atoms: N_5  and  C_7
REMARK    4  A    between atoms: C_10  and  C_12
REMARK    5  A    between atoms: C_15  and  C_16
REMARK                            x       y       z     vdW  Elec       q    Type
REMARK                         _______ _______ _______ _____ _____    ______ ____
ROOT
ATOM      1  C   LIG A   1      -6.887  -3.019 123.994  0.00  0.00    +0.065 C 
ATOM      2  N   LIG A   1      -6.952  -1.922 122.990  0.00  0.00    -0.301 NA
ATOM      3  C   LIG A   1      -8.141  -2.070 122.140  0.00  0.00    +0.089 C 
ATOM      4  C   LIG A   1      -5.765  -1.749 122.160  0.00  0.00    +0.105 C 
ATOM      5  C   LIG A   1      -8.195  -3.046 124.892  0.00  0.00    +0.028 C 
ATOM      6  C   LIG A   1      -8.597  -1.782 125.753  0.00  0.00    +0.089 C 
ATOM      7  C   LIG A   1      -9.367  -3.313 123.926  0.00  0.00    +0.013 C 
ATOM      8  C   LIG A   1      -9.442  -2.133 122.957  0.00  0.00    +0.021 C 
ATOM      9  C   LIG A   1      -9.755  -0.851 123.766  0.00  0.00    +0.062 C 
ATOM     10  N   LIG A   1      -8.831  -0.592 124.906  0.00  0.00    -0.292 NA
ATOM     11  C   LIG A   1      -9.313   0.609 125.598  0.00  0.00    +0.085 C 
ATOM     12  C   LIG A   1      -8.994   1.835 124.730  0.00  0.00    +0.015 C 
ATOM     13  C   LIG A   1      -8.917   1.508 123.236  0.00  0.00    +0.003 C 
ATOM     14  C   LIG A   1      -9.904   0.404 122.865  0.00  0.00    +0.019 C 
ENDROOT
BRANCH   6  15
ATOM     15  C   LIG A   1      -7.664  -1.547 126.951  0.00  0.00    -0.038 C 
ATOM     16  C   LIG A   1      -6.762  -0.556 127.007  0.00  0.00    +0.078 C 
ATOM     17  N   LIG A   1      -5.991  -0.263 128.117  0.00  0.00    -0.278 N 
ATOM     18  C   LIG A   1      -5.120   0.837 128.217  0.00  0.00    +0.216 C 
ATOM     19  C   LIG A   1      -4.974   1.720 127.001  0.00  0.00    +0.110 C 
ATOM     20  O   LIG A   1      -4.499   1.111 129.241  0.00  0.00    -0.276 OA
ATOM     21  C   LIG A   1      -6.222  -1.008 129.360  0.00  0.00    +0.113 C 
ATOM     22  C   LIG A   1      -6.697  -2.431 129.112  0.00  0.00    +0.024 C 
ATOM     23  C   LIG A   1      -7.891  -2.433 128.162  0.00  0.00    +0.035 C 
ENDBRANCH   6  15
BRANCH   1  24
ATOM     24  C   LIG A   1      -5.535  -3.114 124.748  0.00  0.00    +0.045 C 
BRANCH  24  26
ATOM     25  C   LIG A   1      -4.145  -4.715 123.394  0.00  0.00    +0.004 C 
ATOM     26  C   LIG A   1      -4.780  -4.399 124.530  0.00  0.00    -0.033 C 
ENDBRANCH  24  26
ENDBRANCH   1  24
TORSDOF 3
ENDMDL
MODEL 3
REMARK VINA RESULT:      -6.8      1.948      4.297
REMARK  Name = NuBBE_1361
REMARK  5 active torsions:
REMARK  status: ('A' for Active; 'I' for Inactive)
REMARK    1  A    between atoms: C_2  and  C_3
REMARK    2  A    between atoms: C_3  and  C_4
REMARK    3  A    between atoms: N_5  and  C_7
REMARK    4  A    between atoms: C_10  and  C_12
REMARK    5  A    between atoms: C_15  and  C_16
REMARK                            x       y       z     vdW  Elec       q    Type
REMARK                         _______ _______ _______ _____ _____    ______ ____
ROOT
ATOM      1  C   LIG A   1      -8.062  -0.544 127.006  0.00  0.00    +0.065 C 
ATOM      2  N   LIG A   1      -6.875  -1.442 127.024  0.00  0.00    -0.301 NA
ATOM      3  C   LIG A   1      -7.293  -2.849 127.072  0.00  0.00    +0.089 C 
ATOM      4  C   LIG A   1      -5.893  -1.178 128.070  0.00  0.00    +0.105 C 
ATOM      5  C   LIG A   1      -9.004  -0.872 125.773  0.00  0.00    +0.028 C 
ATOM      6  C   LIG A   1      -8.448  -0.776 124.295  0.00  0.00    +0.089 C 
ATOM      7  C   LIG A   1      -9.474  -2.328 125.973  0.00  0.00    +0.013 C 
ATOM      8  C   LIG A   1      -8.236  -3.222 125.917  0.00  0.00    +0.021 C 
ATOM      9  C   LIG A   1      -7.605  -3.099 124.509  0.00  0.00    +0.062 C 
ATOM     10  N   LIG A   1      -7.317  -1.704 124.073  0.00  0.00    -0.292 NA
ATOM     11  C   LIG A   1      -6.796  -1.770 122.703  0.00  0.00    +0.085 C 
ATOM     12  C   LIG A   1      -5.362  -2.320 122.751  0.00  0.00    +0.015 C 
ATOM     13  C   LIG A   1      -5.108  -3.225 123.960  0.00  0.00    +0.003 C 
ATOM     14  C   LIG A   1      -6.363  -4.013 124.328  0.00  0.00    +0.019 C 
ENDROOT
BRANCH   6  15
ATOM     15  C   LIG A   1      -8.195   0.670 123.840  0.00  0.00    -0.038 C 
ATOM     16  C   LIG A   1      -7.240   1.456 124.360  0.00  0.00    +0.078 C 
ATOM     17  N   LIG A   1      -6.926   2.717 123.891  0.00  0.00    -0.278 N 
ATOM     18  C   LIG A   1      -5.860   3.504 124.364  0.00  0.00    +0.216 C 
ATOM     19  C   LIG A   1      -5.044   2.951 125.507  0.00  0.00    +0.110 C 
ATOM     20  O   LIG A   1      -5.563   4.594 123.881  0.00  0.00    -0.276 OA
ATOM     21  C   LIG A   1      -7.600   3.217 122.687  0.00  0.00    +0.113 C 
ATOM     22  C   LIG A   1      -9.013   2.673 122.536  0.00  0.00    +0.024 C 
ATOM     23  C   LIG A   1      -9.011   1.152 122.656  0.00  0.00    +0.035 C 
ENDBRANCH   6  15
BRANCH   1  24
ATOM     24  C   LIG A   1      -7.731   0.954 127.238  0.00  0.00    +0.045 C 
BRANCH  24  26
ATOM     25  C   LIG A   1      -8.316   1.333 129.655  0.00  0.00    +0.004 C 
ATOM     26  C   LIG A   1      -8.502   1.603 128.357  0.00  0.00    -0.033 C 
ENDBRANCH  24  26
ENDBRANCH   1  24
TORSDOF 3
ENDMDL
MODEL 4
REMARK VINA RESULT:      -6.8      3.622      6.723
REMARK  Name = NuBBE_1361
REMARK  5 active torsions:
REMARK  status: ('A' for Active; 'I' for Inactive)
REMARK    1  A    between atoms: C_2  and  C_3
REMARK    2  A    between atoms: C_3  and  C_4
REMARK    3  A    between atoms: N_5  and  C_7
REMARK    4  A    between atoms: C_10  and  C_12
REMARK    5  A    between atoms: C_15  and  C_16
REMARK                            x       y       z     vdW  Elec       q    Type
REMARK                         _______ _______ _______ _____ _____    ______ ____
ROOT
ATOM      1  C   LIG A   1      -6.768  -3.203 129.713  0.00  0.00    +0.065 C 
ATOM      2  N   LIG A   1      -6.503  -2.685 131.084  0.00  0.00    -0.301 NA
ATOM      3  C   LIG A   1      -5.189  -3.137 131.561  0.00  0.00    +0.089 C 
ATOM      4  C   LIG A   1      -7.524  -2.977 132.083  0.00  0.00    +0.105 C 
ATOM      5  C   LIG A   1      -5.635  -2.742 128.702  0.00  0.00    +0.028 C 
ATOM      6  C   LIG A   1      -5.354  -1.204 128.466  0.00  0.00    +0.089 C 
ATOM      7  C   LIG A   1      -4.321  -3.355 129.229  0.00  0.00    +0.013 C 
ATOM      8  C   LIG A   1      -4.050  -2.746 130.605  0.00  0.00    +0.021 C 
ATOM      9  C   LIG A   1      -3.848  -1.221 130.437  0.00  0.00    +0.062 C 
ATOM     10  N   LIG A   1      -4.947  -0.522 129.714  0.00  0.00    -0.292 NA
ATOM     11  C   LIG A   1      -4.560   0.888 129.583  0.00  0.00    +0.085 C 
ATOM     12  C   LIG A   1      -4.693   1.561 130.957  0.00  0.00    +0.015 C 
ATOM     13  C   LIG A   1      -4.520   0.583 132.123  0.00  0.00    +0.003 C 
ATOM     14  C   LIG A   1      -3.514  -0.511 131.776  0.00  0.00    +0.019 C 
ENDROOT
BRANCH   6  15
ATOM     15  C   LIG A   1      -6.474  -0.501 127.682  0.00  0.00    -0.038 C 
ATOM     16  C   LIG A   1      -6.594  -0.558 126.347  0.00  0.00    +0.078 C 
ATOM     17  N   LIG A   1      -7.652  -0.025 125.635  0.00  0.00    -0.278 N 
ATOM     18  C   LIG A   1      -7.835  -0.170 124.248  0.00  0.00    +0.216 C 
ATOM     19  C   LIG A   1      -6.765  -0.907 123.480  0.00  0.00    +0.110 C 
ATOM     20  O   LIG A   1      -8.822   0.257 123.652  0.00  0.00    -0.276 OA
ATOM     21  C   LIG A   1      -8.779   0.563 126.369  0.00  0.00    +0.113 C 
ATOM     22  C   LIG A   1      -8.359   1.181 127.693  0.00  0.00    +0.024 C 
ATOM     23  C   LIG A   1      -7.546   0.181 128.510  0.00  0.00    +0.035 C 
ENDBRANCH   6  15
BRANCH   1  24
ATOM     24  C   LIG A   1      -8.232  -3.018 129.235  0.00  0.00    +0.045 C 
BRANCH  24  26
ATOM     25  C   LIG A   1      -8.962  -3.336 126.849  0.00  0.00    +0.004 C 
ATOM     26  C   LIG A   1      -8.612  -3.847 128.036  0.00  0.00    -0.033 C 
ENDBRANCH  24  26
ENDBRANCH   1  24
TORSDOF 3
ENDMDL
MODEL 5
REMARK VINA RESULT:      -6.8      2.684      4.151
REMARK  Name = NuBBE_1361
REMARK  5 active torsions:
REMARK  status: ('A' for Active; 'I' for Inactive)
REMARK    1  A    between atoms: C_2  and  C_3
REMARK    2  A    between atoms: C_3  and  C_4
REMARK    3  A    between atoms: N_5  and  C_7
REMARK    4  A    between atoms: C_10  and  C_12
REMARK    5  A    between atoms: C_15  and  C_16
REMARK                            x       y       z     vdW  Elec       q    Type
REMARK                         _______ _______ _______ _____ _____    ______ ____
ROOT
ATOM      1  C   LIG A   1      -7.819   0.817 126.080  0.00  0.00    +0.065 C 
ATOM      2  N   LIG A   1      -8.860   0.493 125.066  0.00  0.00    -0.301 NA
ATOM      3  C   LIG A   1      -8.342   0.704 123.708  0.00  0.00    +0.089 C 
ATOM      4  C   LIG A   1     -10.138   1.180 125.225  0.00  0.00    +0.105 C 
ATOM      5  C   LIG A   1      -6.515  -0.058 125.855  0.00  0.00    +0.028 C 
ATOM      6  C   LIG A   1      -6.596  -1.636 125.903  0.00  0.00    +0.089 C 
ATOM      7  C   LIG A   1      -5.990   0.315 124.454  0.00  0.00    +0.013 C 
ATOM      8  C   LIG A   1      -7.057  -0.096 123.439  0.00  0.00    +0.021 C 
ATOM      9  C   LIG A   1      -7.232  -1.632 123.506  0.00  0.00    +0.062 C 
ATOM     10  N   LIG A   1      -7.506  -2.172 124.867  0.00  0.00    -0.292 NA
ATOM     11  C   LIG A   1      -7.571  -3.634 124.757  0.00  0.00    +0.085 C 
ATOM     12  C   LIG A   1      -8.888  -4.014 124.065  0.00  0.00    +0.015 C 
ATOM     13  C   LIG A   1      -9.413  -2.919 123.132  0.00  0.00    +0.003 C 
ATOM     14  C   LIG A   1      -8.262  -2.162 122.473  0.00  0.00    +0.019 C 
ENDROOT
BRANCH   6  15
ATOM     15  C   LIG A   1      -6.836  -2.184 127.319  0.00  0.00    -0.038 C 
ATOM     16  C   LIG A   1      -5.891  -2.225 128.270  0.00  0.00    +0.078 C 
ATOM     17  N   LIG A   1      -6.114  -2.611 129.578  0.00  0.00    -0.278 N 
ATOM     18  C   LIG A   1      -5.152  -2.558 130.603  0.00  0.00    +0.216 C 
ATOM     19  C   LIG A   1      -3.762  -2.105 130.227  0.00  0.00    +0.110 C 
ATOM     20  O   LIG A   1      -5.400  -2.844 131.772  0.00  0.00    -0.276 OA
ATOM     21  C   LIG A   1      -7.486  -2.910 130.006  0.00  0.00    +0.113 C 
ATOM     22  C   LIG A   1      -8.342  -3.475 128.884  0.00  0.00    +0.024 C 
ATOM     23  C   LIG A   1      -8.263  -2.577 127.653  0.00  0.00    +0.035 C 
ENDBRANCH   6  15
BRANCH   1  24
ATOM     24  C   LIG A   1      -8.350   0.898 127.535  0.00  0.00    +0.045 C 
BRANCH  24  26
ATOM     25  C   LIG A   1      -7.354   0.846 129.844  0.00  0.00    +0.004 C 
ATOM     26  C   LIG A   1      -7.309   1.245 128.567  0.00  0.00    -0.033 C 
ENDBRANCH  24  26
ENDBRANCH   1  24
TORSDOF 3
ENDMDL
MODEL 6
REMARK VINA RESULT:      -6.8      1.330      2.208
REMARK  Name = NuBBE_1361
REMARK  5 active torsions:
REMARK  status: ('A' for Active; 'I' for Inactive)
REMARK    1  A    between atoms: C_2  and  C_3
REMARK    2  A    between atoms: C_3  and  C_4
REMARK    3  A    between atoms: N_5  and  C_7
REMARK    4  A    between atoms: C_10  and  C_12
REMARK    5  A    between atoms: C_15  and  C_16
REMARK                            x       y       z     vdW  Elec       q    Type
REMARK                         _______ _______ _______ _____ _____    ______ ____
ROOT
ATOM      1  C   LIG A   1      -7.693   0.821 123.513  0.00  0.00    +0.065 C 
ATOM      2  N   LIG A   1      -8.966   0.067 123.676  0.00  0.00    -0.301 NA
ATOM      3  C   LIG A   1      -8.996  -1.095 122.777  0.00  0.00    +0.089 C 
ATOM      4  C   LIG A   1     -10.191   0.845 123.524  0.00  0.00    +0.105 C 
ATOM      5  C   LIG A   1      -6.440  -0.111 123.792  0.00  0.00    +0.028 C 
ATOM      6  C   LIG A   1      -6.270  -0.821 125.195  0.00  0.00    +0.089 C 
ATOM      7  C   LIG A   1      -6.502  -1.231 122.734  0.00  0.00    +0.013 C 
ATOM      8  C   LIG A   1      -7.787  -2.023 122.978  0.00  0.00    +0.021 C 
ATOM      9  C   LIG A   1      -7.704  -2.675 124.379  0.00  0.00    +0.062 C 
ATOM     10  N   LIG A   1      -7.400  -1.730 125.490  0.00  0.00    -0.292 NA
ATOM     11  C   LIG A   1      -7.288  -2.519 126.722  0.00  0.00    +0.085 C 
ATOM     12  C   LIG A   1      -8.695  -2.965 127.147  0.00  0.00    +0.015 C 
ATOM     13  C   LIG A   1      -9.666  -3.085 125.970  0.00  0.00    +0.003 C 
ATOM     14  C   LIG A   1      -8.944  -3.549 124.707  0.00  0.00    +0.019 C 
ENDROOT
BRANCH   6  15
ATOM     15  C   LIG A   1      -5.915   0.157 126.326  0.00  0.00    -0.038 C 
ATOM     16  C   LIG A   1      -6.532   0.170 127.517  0.00  0.00    +0.078 C 
ATOM     17  N   LIG A   1      -6.155   0.966 128.582  0.00  0.00    -0.278 N 
ATOM     18  C   LIG A   1      -6.732   0.910 129.864  0.00  0.00    +0.216 C 
ATOM     19  C   LIG A   1      -7.884  -0.043 130.066  0.00  0.00    +0.110 C 
ATOM     20  O   LIG A   1      -6.330   1.583 130.811  0.00  0.00    -0.276 OA
ATOM     21  C   LIG A   1      -4.947   1.790 128.462  0.00  0.00    +0.113 C 
ATOM     22  C   LIG A   1      -4.686   2.247 127.036  0.00  0.00    +0.024 C 
ATOM     23  C   LIG A   1      -4.717   1.056 126.083  0.00  0.00    +0.035 C 
ENDBRANCH   6  15
BRANCH   1  24
ATOM     24  C   LIG A   1      -7.683   2.210 124.205  0.00  0.00    +0.045 C 
BRANCH  24  26
ATOM     25  C   LIG A   1      -6.402   3.269 122.317  0.00  0.00    +0.004 C 
ATOM     26  C   LIG A   1      -6.712   3.200 123.617  0.00  0.00    -0.033 C 
ENDBRANCH  24  26
ENDBRANCH   1  24
TORSDOF 3
ENDMDL
MODEL 7
REMARK VINA RESULT:      -6.7      3.323      7.044
REMARK  Name = NuBBE_1361
REMARK  5 active torsions:
REMARK  status: ('A' for Active; 'I' for Inactive)
REMARK    1  A    between atoms: C_2  and  C_3
REMARK    2  A    between atoms: C_3  and  C_4
REMARK    3  A    between atoms: N_5  and  C_7
REMARK    4  A    between atoms: C_10  and  C_12
REMARK    5  A    between atoms: C_15  and  C_16
REMARK                            x       y       z     vdW  Elec       q    Type
REMARK                         _______ _______ _______ _____ _____    ______ ____
ROOT
ATOM      1  C   LIG A   1      -6.581  -1.715 130.386  0.00  0.00    +0.065 C 
ATOM      2  N   LIG A   1      -6.655  -0.461 131.184  0.00  0.00    -0.301 NA
ATOM      3  C   LIG A   1      -5.369  -0.189 131.839  0.00  0.00    +0.089 C 
ATOM      4  C   LIG A   1      -7.736  -0.390 132.159  0.00  0.00    +0.105 C 
ATOM      5  C   LIG A   1      -5.426  -1.633 129.301  0.00  0.00    +0.028 C 
ATOM      6  C   LIG A   1      -5.446  -0.498 128.200  0.00  0.00    +0.089 C 
ATOM      7  C   LIG A   1      -4.113  -1.458 130.092  0.00  0.00    +0.013 C 
ATOM      8  C   LIG A   1      -4.201  -0.128 130.841  0.00  0.00    +0.021 C 
ATOM      9  C   LIG A   1      -4.305   1.015 129.802  0.00  0.00    +0.062 C 
ATOM     10  N   LIG A   1      -5.398   0.853 128.803  0.00  0.00    -0.292 NA
ATOM     11  C   LIG A   1      -5.305   1.976 127.863  0.00  0.00    +0.085 C 
ATOM     12  C   LIG A   1      -5.796   3.248 128.570  0.00  0.00    +0.015 C 
ATOM     13  C   LIG A   1      -5.607   3.199 130.089  0.00  0.00    +0.003 C 
ATOM     14  C   LIG A   1      -4.348   2.419 130.461  0.00  0.00    +0.019 C 
ENDROOT
BRANCH   6  15
ATOM     15  C   LIG A   1      -6.550  -0.697 127.149  0.00  0.00    -0.038 C 
ATOM     16  C   LIG A   1      -6.446  -1.546 126.116  0.00  0.00    +0.078 C 
ATOM     17  N   LIG A   1      -7.467  -1.820 125.225  0.00  0.00    -0.278 N 
ATOM     18  C   LIG A   1      -7.398  -2.784 124.203  0.00  0.00    +0.216 C 
ATOM     19  C   LIG A   1      -6.094  -3.523 124.033  0.00  0.00    +0.110 C 
ATOM     20  O   LIG A   1      -8.346  -3.053 123.469  0.00  0.00    -0.276 OA
ATOM     21  C   LIG A   1      -8.790  -1.230 125.457  0.00  0.00    +0.113 C 
ATOM     22  C   LIG A   1      -8.718   0.124 126.146  0.00  0.00    +0.024 C 
ATOM     23  C   LIG A   1      -7.854   0.035 127.401  0.00  0.00    +0.035 C 
ENDBRANCH   6  15
BRANCH   1  24
ATOM     24  C   LIG A   1      -7.955  -2.235 129.888  0.00  0.00    +0.045 C 
BRANCH  24  26
ATOM     25  C   LIG A   1      -8.734  -3.801 128.080  0.00  0.00    +0.004 C 
ATOM     26  C   LIG A   1      -7.893  -3.504 129.078  0.00  0.00    -0.033 C 
ENDBRANCH  24  26
ENDBRANCH   1  24
TORSDOF 3
ENDMDL
MODEL 8
REMARK VINA RESULT:      -6.7      3.673      6.709
REMARK  Name = NuBBE_1361
REMARK  5 active torsions:
REMARK  status: ('A' for Active; 'I' for Inactive)
REMARK    1  A    between atoms: C_2  and  C_3
REMARK    2  A    between atoms: C_3  and  C_4
REMARK    3  A    between atoms: N_5  and  C_7
REMARK    4  A    between atoms: C_10  and  C_12
REMARK    5  A    between atoms: C_15  and  C_16
REMARK                            x       y       z     vdW  Elec       q    Type
REMARK                         _______ _______ _______ _____ _____    ______ ____
ROOT
ATOM      1  C   LIG A   1      -7.347   0.331 129.978  0.00  0.00    +0.065 C 
ATOM      2  N   LIG A   1      -5.889   0.555 130.181  0.00  0.00    -0.301 NA
ATOM      3  C   LIG A   1      -5.534   0.395 131.597  0.00  0.00    +0.089 C 
ATOM      4  C   LIG A   1      -5.364   1.819 129.675  0.00  0.00    +0.105 C 
ATOM      5  C   LIG A   1      -7.776  -1.110 130.485  0.00  0.00    +0.028 C 
ATOM      6  C   LIG A   1      -7.114  -2.405 129.863  0.00  0.00    +0.089 C 
ATOM      7  C   LIG A   1      -7.465  -1.138 131.996  0.00  0.00    +0.013 C 
ATOM      8  C   LIG A   1      -5.954  -0.974 132.157  0.00  0.00    +0.021 C 
ATOM      9  C   LIG A   1      -5.254  -2.181 131.489  0.00  0.00    +0.062 C 
ATOM     10  N   LIG A   1      -5.650  -2.429 130.074  0.00  0.00    -0.292 NA
ATOM     11  C   LIG A   1      -4.953  -3.641 129.627  0.00  0.00    +0.085 C 
ATOM     12  C   LIG A   1      -3.470  -3.302 129.418  0.00  0.00    +0.015 C 
ATOM     13  C   LIG A   1      -2.991  -2.141 130.295  0.00  0.00    +0.003 C 
ATOM     14  C   LIG A   1      -3.710  -2.138 131.642  0.00  0.00    +0.019 C 
ENDROOT
BRANCH   6  15
ATOM     15  C   LIG A   1      -7.563  -2.675 128.418  0.00  0.00    -0.038 C 
ATOM     16  C   LIG A   1      -6.921  -2.200 127.340  0.00  0.00    +0.078 C 
ATOM     17  N   LIG A   1      -7.243  -2.520 126.035  0.00  0.00    -0.278 N 
ATOM     18  C   LIG A   1      -6.511  -2.107 124.907  0.00  0.00    +0.216 C 
ATOM     19  C   LIG A   1      -5.328  -1.200 125.141  0.00  0.00    +0.110 C 
ATOM     20  O   LIG A   1      -6.783  -2.464 123.763  0.00  0.00    -0.276 OA
ATOM     21  C   LIG A   1      -8.290  -3.517 125.785  0.00  0.00    +0.113 C 
ATOM     22  C   LIG A   1      -9.363  -3.525 126.863  0.00  0.00    +0.024 C 
ATOM     23  C   LIG A   1      -8.726  -3.633 128.245  0.00  0.00    +0.035 C 
ENDBRANCH   6  15
BRANCH   1  24
ATOM     24  C   LIG A   1      -7.868   0.749 128.578  0.00  0.00    +0.045 C 
BRANCH  24  26
ATOM     25  C   LIG A   1      -9.067   2.674 129.666  0.00  0.00    +0.004 C 
ATOM     26  C   LIG A   1      -8.748   1.971 128.572  0.00  0.00    -0.033 C 
ENDBRANCH  24  26
ENDBRANCH   1  24
TORSDOF 3
ENDMDL
MODEL 9
REMARK VINA RESULT:      -6.7      1.473      4.402
REMARK  Name = NuBBE_1361
REMARK  5 active torsions:
REMARK  status: ('A' for Active; 'I' for Inactive)
REMARK    1  A    between atoms: C_2  and  C_3
REMARK    2  A    between atoms: C_3  and  C_4
REMARK    3  A    between atoms: N_5  and  C_7
REMARK    4  A    between atoms: C_10  and  C_12
REMARK    5  A    between atoms: C_15  and  C_16
REMARK                            x       y       z     vdW  Elec       q    Type
REMARK                         _______ _______ _______ _____ _____    ______ ____
ROOT
ATOM      1  C   LIG A   1      -8.617  -0.452 125.105  0.00  0.00    +0.065 C 
ATOM      2  N   LIG A   1      -7.923  -0.261 123.802  0.00  0.00    -0.301 NA
ATOM      3  C   LIG A   1      -8.871   0.191 122.775  0.00  0.00    +0.089 C 
ATOM      4  C   LIG A   1      -7.165  -1.406 123.312  0.00  0.00    +0.105 C 
ATOM      5  C   LIG A   1      -9.327   0.887 125.574  0.00  0.00    +0.028 C 
ATOM      6  C   LIG A   1      -8.479   2.203 125.798  0.00  0.00    +0.089 C 
ATOM      7  C   LIG A   1     -10.372   1.215 124.488  0.00  0.00    +0.013 C 
ATOM      8  C   LIG A   1      -9.615   1.472 123.184  0.00  0.00    +0.021 C 
ATOM      9  C   LIG A   1      -8.705   2.708 123.380  0.00  0.00    +0.062 C 
ATOM     10  N   LIG A   1      -7.796   2.635 124.558  0.00  0.00    -0.292 NA
ATOM     11  C   LIG A   1      -7.067   3.906 124.632  0.00  0.00    +0.085 C 
ATOM     12  C   LIG A   1      -6.021   3.935 123.508  0.00  0.00    +0.015 C 
ATOM     13  C   LIG A   1      -6.414   3.078 122.301  0.00  0.00    +0.003 C 
ATOM     14  C   LIG A   1      -7.926   3.087 122.092  0.00  0.00    +0.019 C 
ENDROOT
BRANCH   6  15
ATOM     15  C   LIG A   1      -7.577   2.134 127.041  0.00  0.00    -0.038 C 
ATOM     16  C   LIG A   1      -6.252   2.341 127.009  0.00  0.00    +0.078 C 
ATOM     17  N   LIG A   1      -5.443   2.391 128.128  0.00  0.00    -0.278 N 
ATOM     18  C   LIG A   1      -4.072   2.710 128.110  0.00  0.00    +0.216 C 
ATOM     19  C   LIG A   1      -3.434   2.951 126.764  0.00  0.00    +0.110 C 
ATOM     20  O   LIG A   1      -3.393   2.812 129.129  0.00  0.00    -0.276 OA
ATOM     21  C   LIG A   1      -6.060   2.310 129.457  0.00  0.00    +0.113 C 
ATOM     22  C   LIG A   1      -7.328   1.470 129.465  0.00  0.00    +0.024 C 
ATOM     23  C   LIG A   1      -8.281   1.937 128.370  0.00  0.00    +0.035 C 
ENDBRANCH   6  15
BRANCH   1  24
ATOM     24  C   LIG A   1      -7.771  -1.191 126.176  0.00  0.00    +0.045 C 
BRANCH  24  26
ATOM     25  C   LIG A   1      -9.375  -3.126 126.061  0.00  0.00    +0.004 C 
ATOM     26  C   LIG A   1      -8.364  -2.487 126.664  0.00  0.00    -0.033 C 
ENDBRANCH  24  26
ENDBRANCH   1  24
TORSDOF 3
ENDMDL
