MODEL 1
REMARK VINA RESULT:      -7.5      0.000      0.000
REMARK  Name = NuBBE_2467
REMARK  9 active torsions:
REMARK  status: ('A' for Active; 'I' for Inactive)
REMARK    1  A    between atoms: C_1  and  O_2
REMARK    2  A    between atoms: O_2  and  C_3
REMARK    3  A    between atoms: C_5  and  C_6
REMARK    4  A    between atoms: C_14  and  C_18
REMARK    5  A    between atoms: C_20  and  O_21
REMARK    6  A    between atoms: O_21  and  C_22
REMARK    7  A    between atoms: C_23  and  O_24
REMARK    8  A    between atoms: O_24  and  C_25
REMARK    9  A    between atoms: C_30  and  O_31
REMARK                            x       y       z     vdW  Elec       q    Type
REMARK                         _______ _______ _______ _____ _____    ______ ____
ROOT
ATOM      1  C   LIG A   1      -7.536   2.677 123.247  0.00  0.00    +0.154 C 
ATOM      2  C   LIG A   1      -6.751   2.756 124.564  0.00  0.00    +0.056 C 
ATOM      3  C   LIG A   1      -6.865   1.373 125.136  0.00  0.00    +0.056 C 
ATOM      4  C   LIG A   1      -6.940   0.508 123.904  0.00  0.00    +0.167 C 
ATOM      5  O   LIG A   1      -7.651   1.269 122.924  0.00  0.00    -0.371 OA
ATOM      6  C   LIG A   1      -8.166   1.441 125.937  0.00  0.00    +0.154 C 
ATOM      7  O   LIG A   1      -8.450   2.831 126.193  0.00  0.00    -0.371 OA
ATOM      8  C   LIG A   1      -7.417   3.624 125.603  0.00  0.00    +0.167 C 
ENDROOT
BRANCH   1  11
ATOM      9  C   LIG A   1      -7.016   4.375 119.835  0.00  0.00    +0.162 A 
ATOM     10  C   LIG A   1      -7.580   3.642 120.887  0.00  0.00    +0.055 A 
ATOM     11  C   LIG A   1      -6.889   3.427 122.094  0.00  0.00    -0.015 A 
ATOM     12  C   LIG A   1      -5.571   3.879 122.185  0.00  0.00    +0.010 A 
ATOM     13  C   LIG A   1      -4.984   4.589 121.133  0.00  0.00    +0.049 A 
ATOM     14  C   LIG A   1      -5.713   4.847 119.968  0.00  0.00    +0.159 A 
BRANCH   9  16
ATOM     15  C   LIG A   1      -9.218   4.230 118.974  0.00  0.00    +0.277 C 
ATOM     16  O   LIG A   1      -7.841   4.494 118.750  0.00  0.00    -0.491 OA
ENDBRANCH   9  16
BRANCH  14  17
ATOM     17  O   LIG A   1      -5.106   5.540 118.956  0.00  0.00    -0.503 OA
ATOM     18  H   LIG A   1      -4.871   4.918 118.247  0.00  0.00    +0.292 HD
ENDBRANCH  14  17
ENDBRANCH   1  11
BRANCH   6  19
ATOM     19  C   LIG A   1      -8.057   0.682 127.238  0.00  0.00    -0.015 A 
ATOM     20  C   LIG A   1      -7.825  -0.697 127.189  0.00  0.00    +0.055 A 
ATOM     21  C   LIG A   1      -7.682  -1.452 128.364  0.00  0.00    +0.162 A 
ATOM     22  C   LIG A   1      -7.804  -0.814 129.607  0.00  0.00    +0.162 A 
ATOM     23  C   LIG A   1      -8.005   0.571 129.661  0.00  0.00    +0.050 A 
ATOM     24  C   LIG A   1      -8.133   1.307 128.481  0.00  0.00    +0.010 A 
BRANCH  21  25
ATOM     25  O   LIG A   1      -7.444  -2.809 128.361  0.00  0.00    -0.491 OA
ATOM     26  C   LIG A   1      -8.563  -3.655 128.124  0.00  0.00    +0.277 C 
ENDBRANCH  21  25
BRANCH  22  27
ATOM     27  O   LIG A   1      -7.669  -1.594 130.735  0.00  0.00    -0.491 OA
ATOM     28  C   LIG A   1      -6.548  -1.297 131.561  0.00  0.00    +0.277 C 
ENDBRANCH  22  27
ENDBRANCH   6  19
TORSDOF 6
ENDMDL
MODEL 2
REMARK VINA RESULT:      -7.4      6.295      8.066
REMARK  Name = NuBBE_2467
REMARK  9 active torsions:
REMARK  status: ('A' for Active; 'I' for Inactive)
REMARK    1  A    between atoms: C_1  and  O_2
REMARK    2  A    between atoms: O_2  and  C_3
REMARK    3  A    between atoms: C_5  and  C_6
REMARK    4  A    between atoms: C_14  and  C_18
REMARK    5  A    between atoms: C_20  and  O_21
REMARK    6  A    between atoms: O_21  and  C_22
REMARK    7  A    between atoms: C_23  and  O_24
REMARK    8  A    between atoms: O_24  and  C_25
REMARK    9  A    between atoms: C_30  and  O_31
REMARK                            x       y       z     vdW  Elec       q    Type
REMARK                         _______ _______ _______ _____ _____    ______ ____
ROOT
ATOM      1  C   LIG A   1     -10.981   5.012 131.157  0.00  0.00    +0.154 C 
ATOM      2  C   LIG A   1      -9.507   4.993 131.584  0.00  0.00    +0.056 C 
ATOM      3  C   LIG A   1      -9.032   3.627 131.183  0.00  0.00    +0.056 C 
ATOM      4  C   LIG A   1      -9.870   3.328 129.966  0.00  0.00    +0.167 C 
ATOM      5  O   LIG A   1     -11.142   3.939 130.196  0.00  0.00    -0.371 OA
ATOM      6  C   LIG A   1      -9.372   2.774 132.406  0.00  0.00    +0.154 C 
ATOM      7  O   LIG A   1      -9.534   3.664 133.528  0.00  0.00    -0.371 OA
ATOM      8  C   LIG A   1      -9.322   5.005 133.082  0.00  0.00    +0.167 C 
ENDROOT
BRANCH   1  11
ATOM      9  C   LIG A   1     -11.264   8.030 128.788  0.00  0.00    +0.162 A 
ATOM     10  C   LIG A   1     -10.825   6.843 129.388  0.00  0.00    +0.055 A 
ATOM     11  C   LIG A   1     -11.433   6.330 130.549  0.00  0.00    -0.015 A 
ATOM     12  C   LIG A   1     -12.432   7.094 131.158  0.00  0.00    +0.010 A 
ATOM     13  C   LIG A   1     -12.862   8.294 130.586  0.00  0.00    +0.049 A 
ATOM     14  C   LIG A   1     -12.288   8.751 129.396  0.00  0.00    +0.159 A 
BRANCH   9  16
ATOM     15  C   LIG A   1     -10.922   7.668 126.472  0.00  0.00    +0.277 C 
ATOM     16  O   LIG A   1     -10.565   8.361 127.659  0.00  0.00    -0.491 OA
ENDBRANCH   9  16
BRANCH  14  17
ATOM     17  O   LIG A   1     -12.730   9.933 128.867  0.00  0.00    -0.503 OA
ATOM     18  H   LIG A   1     -13.541  10.200 129.331  0.00  0.00    +0.292 HD
ENDBRANCH  14  17
ENDBRANCH   1  11
BRANCH   6  19
ATOM     19  C   LIG A   1      -8.289   1.761 132.695  0.00  0.00    -0.015 A 
ATOM     20  C   LIG A   1      -8.403   0.485 132.133  0.00  0.00    +0.055 A 
ATOM     21  C   LIG A   1      -7.412  -0.490 132.338  0.00  0.00    +0.162 A 
ATOM     22  C   LIG A   1      -6.307  -0.183 133.144  0.00  0.00    +0.162 A 
ATOM     23  C   LIG A   1      -6.173   1.103 133.682  0.00  0.00    +0.050 A 
ATOM     24  C   LIG A   1      -7.163   2.063 133.458  0.00  0.00    +0.010 A 
BRANCH  21  25
ATOM     25  O   LIG A   1      -7.480  -1.755 131.797  0.00  0.00    -0.491 OA
ATOM     26  C   LIG A   1      -7.637  -1.840 130.385  0.00  0.00    +0.277 C 
ENDBRANCH  21  25
BRANCH  22  27
ATOM     27  O   LIG A   1      -5.364  -1.172 133.330  0.00  0.00    -0.491 OA
ATOM     28  C   LIG A   1      -4.128  -0.982 132.650  0.00  0.00    +0.277 C 
ENDBRANCH  22  27
ENDBRANCH   6  19
TORSDOF 6
ENDMDL
MODEL 3
REMARK VINA RESULT:      -7.3      1.321      2.545
REMARK  Name = NuBBE_2467
REMARK  9 active torsions:
REMARK  status: ('A' for Active; 'I' for Inactive)
REMARK    1  A    between atoms: C_1  and  O_2
REMARK    2  A    between atoms: O_2  and  C_3
REMARK    3  A    between atoms: C_5  and  C_6
REMARK    4  A    between atoms: C_14  and  C_18
REMARK    5  A    between atoms: C_20  and  O_21
REMARK    6  A    between atoms: O_21  and  C_22
REMARK    7  A    between atoms: C_23  and  O_24
REMARK    8  A    between atoms: O_24  and  C_25
REMARK    9  A    between atoms: C_30  and  O_31
REMARK                            x       y       z     vdW  Elec       q    Type
REMARK                         _______ _______ _______ _____ _____    ______ ____
ROOT
ATOM      1  C   LIG A   1      -8.383   2.348 123.437  0.00  0.00    +0.154 C 
ATOM      2  C   LIG A   1      -7.203   1.714 124.185  0.00  0.00    +0.056 C 
ATOM      3  C   LIG A   1      -7.752   0.410 124.688  0.00  0.00    +0.056 C 
ATOM      4  C   LIG A   1      -8.760   0.044 123.629  0.00  0.00    +0.167 C 
ATOM      5  O   LIG A   1      -9.319   1.275 123.164  0.00  0.00    -0.371 OA
ATOM      6  C   LIG A   1      -8.366   0.796 126.034  0.00  0.00    +0.154 C 
ATOM      7  O   LIG A   1      -7.769   2.040 126.447  0.00  0.00    -0.371 OA
ATOM      8  C   LIG A   1      -6.833   2.452 125.448  0.00  0.00    +0.167 C 
ENDROOT
BRANCH   1  11
ATOM      9  C   LIG A   1      -6.277   4.005 120.676  0.00  0.00    +0.162 A 
ATOM     10  C   LIG A   1      -6.659   3.409 121.885  0.00  0.00    +0.055 A 
ATOM     11  C   LIG A   1      -7.994   3.044 122.142  0.00  0.00    -0.015 A 
ATOM     12  C   LIG A   1      -8.962   3.386 121.195  0.00  0.00    +0.010 A 
ATOM     13  C   LIG A   1      -8.600   4.005 119.995  0.00  0.00    +0.049 A 
ATOM     14  C   LIG A   1      -7.259   4.299 119.733  0.00  0.00    +0.159 A 
BRANCH   9  16
ATOM     15  C   LIG A   1      -4.351   4.884 121.738  0.00  0.00    +0.277 C 
ATOM     16  O   LIG A   1      -4.937   4.272 120.599  0.00  0.00    -0.491 OA
ENDBRANCH   9  16
BRANCH  14  17
ATOM     17  O   LIG A   1      -6.941   4.910 118.551  0.00  0.00    -0.503 OA
ATOM     18  H   LIG A   1      -5.976   4.889 118.436  0.00  0.00    +0.292 HD
ENDBRANCH  14  17
ENDBRANCH   1  11
BRANCH   6  19
ATOM     19  C   LIG A   1      -8.128  -0.270 127.078  0.00  0.00    -0.015 A 
ATOM     20  C   LIG A   1      -7.896   0.131 128.399  0.00  0.00    +0.055 A 
ATOM     21  C   LIG A   1      -7.699  -0.812 129.420  0.00  0.00    +0.162 A 
ATOM     22  C   LIG A   1      -7.707  -2.178 129.101  0.00  0.00    +0.162 A 
ATOM     23  C   LIG A   1      -7.971  -2.584 127.788  0.00  0.00    +0.050 A 
ATOM     24  C   LIG A   1      -8.175  -1.631 126.787  0.00  0.00    +0.010 A 
BRANCH  21  25
ATOM     25  O   LIG A   1      -7.476  -0.462 130.734  0.00  0.00    -0.491 OA
ATOM     26  C   LIG A   1      -8.607  -0.030 131.482  0.00  0.00    +0.277 C 
ENDBRANCH  21  25
BRANCH  22  27
ATOM     27  O   LIG A   1      -7.498  -3.070 130.131  0.00  0.00    -0.491 OA
ATOM     28  C   LIG A   1      -6.288  -3.816 130.067  0.00  0.00    +0.277 C 
ENDBRANCH  22  27
ENDBRANCH   6  19
TORSDOF 6
ENDMDL
MODEL 4
REMARK VINA RESULT:      -7.3      2.625      3.861
REMARK  Name = NuBBE_2467
REMARK  9 active torsions:
REMARK  status: ('A' for Active; 'I' for Inactive)
REMARK    1  A    between atoms: C_1  and  O_2
REMARK    2  A    between atoms: O_2  and  C_3
REMARK    3  A    between atoms: C_5  and  C_6
REMARK    4  A    between atoms: C_14  and  C_18
REMARK    5  A    between atoms: C_20  and  O_21
REMARK    6  A    between atoms: O_21  and  C_22
REMARK    7  A    between atoms: C_23  and  O_24
REMARK    8  A    between atoms: O_24  and  C_25
REMARK    9  A    between atoms: C_30  and  O_31
REMARK                            x       y       z     vdW  Elec       q    Type
REMARK                         _______ _______ _______ _____ _____    ______ ____
ROOT
ATOM      1  C   LIG A   1      -6.258   3.341 123.994  0.00  0.00    +0.154 C 
ATOM      2  C   LIG A   1      -7.504   3.925 124.673  0.00  0.00    +0.056 C 
ATOM      3  C   LIG A   1      -7.076   4.129 126.098  0.00  0.00    +0.056 C 
ATOM      4  C   LIG A   1      -5.605   4.428 125.964  0.00  0.00    +0.167 C 
ATOM      5  O   LIG A   1      -5.137   3.648 124.860  0.00  0.00    -0.371 OA
ATOM      6  C   LIG A   1      -7.388   2.779 126.745  0.00  0.00    +0.154 C 
ATOM      7  O   LIG A   1      -8.344   2.102 125.905  0.00  0.00    -0.371 OA
ATOM      8  C   LIG A   1      -8.640   2.938 124.784  0.00  0.00    +0.167 C 
ENDROOT
BRANCH   1  11
ATOM      9  C   LIG A   1      -6.740   4.228 120.282  0.00  0.00    +0.162 A 
ATOM     10  C   LIG A   1      -6.938   3.692 121.561  0.00  0.00    +0.055 A 
ATOM     11  C   LIG A   1      -6.003   3.882 122.596  0.00  0.00    -0.015 A 
ATOM     12  C   LIG A   1      -4.809   4.538 122.290  0.00  0.00    +0.010 A 
ATOM     13  C   LIG A   1      -4.585   5.056 121.011  0.00  0.00    +0.049 A 
ATOM     14  C   LIG A   1      -5.557   4.912 120.016  0.00  0.00    +0.159 A 
BRANCH   9  16
ATOM     15  C   LIG A   1      -9.074   3.991 119.954  0.00  0.00    +0.277 C 
ATOM     16  O   LIG A   1      -7.762   3.956 119.413  0.00  0.00    -0.491 OA
ENDBRANCH   9  16
BRANCH  14  17
ATOM     17  O   LIG A   1      -5.302   5.426 118.773  0.00  0.00    -0.503 OA
ATOM     18  H   LIG A   1      -4.830   6.269 118.874  0.00  0.00    +0.292 HD
ENDBRANCH  14  17
ENDBRANCH   1  11
BRANCH   6  19
ATOM     19  C   LIG A   1      -7.945   2.946 128.139  0.00  0.00    -0.015 A 
ATOM     20  C   LIG A   1      -8.018   4.236 128.677  0.00  0.00    +0.055 A 
ATOM     21  C   LIG A   1      -8.555   4.460 129.955  0.00  0.00    +0.162 A 
ATOM     22  C   LIG A   1      -8.998   3.366 130.713  0.00  0.00    +0.162 A 
ATOM     23  C   LIG A   1      -8.957   2.078 130.165  0.00  0.00    +0.050 A 
ATOM     24  C   LIG A   1      -8.429   1.876 128.887  0.00  0.00    +0.010 A 
BRANCH  21  25
ATOM     25  O   LIG A   1      -8.654   5.712 130.520  0.00  0.00    -0.491 OA
ATOM     26  C   LIG A   1      -9.653   6.576 129.990  0.00  0.00    +0.277 C 
ENDBRANCH  21  25
BRANCH  22  27
ATOM     27  O   LIG A   1      -9.508   3.629 131.966  0.00  0.00    -0.491 OA
ATOM     28  C   LIG A   1      -9.051   2.775 133.010  0.00  0.00    +0.277 C 
ENDBRANCH  22  27
ENDBRANCH   6  19
TORSDOF 6
ENDMDL
MODEL 5
REMARK VINA RESULT:      -7.0      7.156     11.096
REMARK  Name = NuBBE_2467
REMARK  9 active torsions:
REMARK  status: ('A' for Active; 'I' for Inactive)
REMARK    1  A    between atoms: C_1  and  O_2
REMARK    2  A    between atoms: O_2  and  C_3
REMARK    3  A    between atoms: C_5  and  C_6
REMARK    4  A    between atoms: C_14  and  C_18
REMARK    5  A    between atoms: C_20  and  O_21
REMARK    6  A    between atoms: O_21  and  C_22
REMARK    7  A    between atoms: C_23  and  O_24
REMARK    8  A    between atoms: O_24  and  C_25
REMARK    9  A    between atoms: C_30  and  O_31
REMARK                            x       y       z     vdW  Elec       q    Type
REMARK                         _______ _______ _______ _____ _____    ______ ____
ROOT
ATOM      1  C   LIG A   1      -7.767   3.680 132.772  0.00  0.00    +0.154 C 
ATOM      2  C   LIG A   1      -7.785   4.564 131.518  0.00  0.00    +0.056 C 
ATOM      3  C   LIG A   1      -8.631   5.739 131.916  0.00  0.00    +0.056 C 
ATOM      4  C   LIG A   1      -8.356   5.861 133.393  0.00  0.00    +0.167 C 
ATOM      5  O   LIG A   1      -8.168   4.528 133.877  0.00  0.00    -0.371 OA
ATOM      6  C   LIG A   1     -10.046   5.271 131.577  0.00  0.00    +0.154 C 
ATOM      7  O   LIG A   1      -9.934   4.188 130.632  0.00  0.00    -0.371 OA
ATOM      8  C   LIG A   1      -8.549   3.952 130.369  0.00  0.00    +0.167 C 
ENDROOT
BRANCH   1  11
ATOM      9  C   LIG A   1      -3.970   3.072 132.883  0.00  0.00    +0.162 A 
ATOM     10  C   LIG A   1      -5.224   3.617 132.581  0.00  0.00    +0.055 A 
ATOM     11  C   LIG A   1      -6.416   3.045 133.063  0.00  0.00    -0.015 A 
ATOM     12  C   LIG A   1      -6.328   1.847 133.776  0.00  0.00    +0.010 A 
ATOM     13  C   LIG A   1      -5.084   1.276 134.063  0.00  0.00    +0.049 A 
ATOM     14  C   LIG A   1      -3.910   1.897 133.628  0.00  0.00    +0.159 A 
BRANCH   9  16
ATOM     15  C   LIG A   1      -2.400   4.829 133.133  0.00  0.00    +0.277 C 
ATOM     16  O   LIG A   1      -2.926   3.773 132.342  0.00  0.00    -0.491 OA
ENDBRANCH   9  16
BRANCH  14  17
ATOM     17  O   LIG A   1      -2.710   1.308 133.922  0.00  0.00    -0.503 OA
ATOM     18  H   LIG A   1      -2.327   1.748 134.700  0.00  0.00    +0.292 HD
ENDBRANCH  14  17
ENDBRANCH   1  11
BRANCH   6  19
ATOM     19  C   LIG A   1     -10.875   6.390 130.991  0.00  0.00    -0.015 A 
ATOM     20  C   LIG A   1     -10.428   7.007 129.817  0.00  0.00    +0.055 A 
ATOM     21  C   LIG A   1     -11.171   8.031 129.207  0.00  0.00    +0.162 A 
ATOM     22  C   LIG A   1     -12.365   8.459 129.804  0.00  0.00    +0.162 A 
ATOM     23  C   LIG A   1     -12.833   7.822 130.959  0.00  0.00    +0.050 A 
ATOM     24  C   LIG A   1     -12.086   6.797 131.546  0.00  0.00    +0.010 A 
BRANCH  21  25
ATOM     25  O   LIG A   1     -10.772   8.660 128.048  0.00  0.00    -0.491 OA
ATOM     26  C   LIG A   1     -10.873   7.908 126.844  0.00  0.00    +0.277 C 
ENDBRANCH  21  25
BRANCH  22  27
ATOM     27  O   LIG A   1     -13.057   9.474 129.179  0.00  0.00    -0.491 OA
ATOM     28  C   LIG A   1     -13.319  10.624 129.975  0.00  0.00    +0.277 C 
ENDBRANCH  22  27
ENDBRANCH   6  19
TORSDOF 6
ENDMDL
MODEL 6
REMARK VINA RESULT:      -7.0      4.648      6.545
REMARK  Name = NuBBE_2467
REMARK  9 active torsions:
REMARK  status: ('A' for Active; 'I' for Inactive)
REMARK    1  A    between atoms: C_1  and  O_2
REMARK    2  A    between atoms: O_2  and  C_3
REMARK    3  A    between atoms: C_5  and  C_6
REMARK    4  A    between atoms: C_14  and  C_18
REMARK    5  A    between atoms: C_20  and  O_21
REMARK    6  A    between atoms: O_21  and  C_22
REMARK    7  A    between atoms: C_23  and  O_24
REMARK    8  A    between atoms: O_24  and  C_25
REMARK    9  A    between atoms: C_30  and  O_31
REMARK                            x       y       z     vdW  Elec       q    Type
REMARK                         _______ _______ _______ _____ _____    ______ ____
ROOT
ATOM      1  C   LIG A   1      -6.132   2.673 124.922  0.00  0.00    +0.154 C 
ATOM      2  C   LIG A   1      -6.234   2.793 126.449  0.00  0.00    +0.056 C 
ATOM      3  C   LIG A   1      -5.612   4.126 126.749  0.00  0.00    +0.056 C 
ATOM      4  C   LIG A   1      -5.939   4.930 125.517  0.00  0.00    +0.167 C 
ATOM      5  O   LIG A   1      -5.909   4.014 124.420  0.00  0.00    -0.371 OA
ATOM      6  C   LIG A   1      -4.129   3.783 126.900  0.00  0.00    +0.154 C 
ATOM      7  O   LIG A   1      -4.031   2.370 127.165  0.00  0.00    -0.371 OA
ATOM      8  C   LIG A   1      -5.349   1.816 127.184  0.00  0.00    +0.167 C 
ENDROOT
BRANCH   1  11
ATOM      9  C   LIG A   1      -8.979   0.233 124.064  0.00  0.00    +0.162 A 
ATOM     10  C   LIG A   1      -7.820   0.784 124.624  0.00  0.00    +0.055 A 
ATOM     11  C   LIG A   1      -7.361   2.065 124.265  0.00  0.00    -0.015 A 
ATOM     12  C   LIG A   1      -8.036   2.743 123.248  0.00  0.00    +0.010 A 
ATOM     13  C   LIG A   1      -9.180   2.194 122.660  0.00  0.00    +0.049 A 
ATOM     14  C   LIG A   1      -9.656   0.948 123.079  0.00  0.00    +0.159 A 
BRANCH   9  16
ATOM     15  C   LIG A   1      -8.741  -2.113 123.831  0.00  0.00    +0.277 C 
ATOM     16  O   LIG A   1      -9.280  -1.012 124.547  0.00  0.00    -0.491 OA
ENDBRANCH   9  16
BRANCH  14  17
ATOM     17  O   LIG A   1     -10.774   0.439 122.478  0.00  0.00    -0.503 OA
ATOM     18  H   LIG A   1     -11.559   0.750 122.961  0.00  0.00    +0.292 HD
ENDBRANCH  14  17
ENDBRANCH   1  11
BRANCH   6  19
ATOM     19  C   LIG A   1      -3.489   4.570 128.020  0.00  0.00    -0.015 A 
ATOM     20  C   LIG A   1      -3.524   4.036 129.314  0.00  0.00    +0.055 A 
ATOM     21  C   LIG A   1      -2.918   4.704 130.391  0.00  0.00    +0.162 A 
ATOM     22  C   LIG A   1      -2.296   5.941 130.167  0.00  0.00    +0.162 A 
ATOM     23  C   LIG A   1      -2.231   6.462 128.869  0.00  0.00    +0.050 A 
ATOM     24  C   LIG A   1      -2.829   5.778 127.808  0.00  0.00    +0.010 A 
BRANCH  21  25
ATOM     25  O   LIG A   1      -2.921   4.212 131.677  0.00  0.00    -0.491 OA
ATOM     26  C   LIG A   1      -3.997   3.350 132.030  0.00  0.00    +0.277 C 
ENDBRANCH  21  25
BRANCH  22  27
ATOM     27  O   LIG A   1      -1.725   6.568 131.253  0.00  0.00    -0.491 OA
ATOM     28  C   LIG A   1      -2.504   7.598 131.852  0.00  0.00    +0.277 C 
ENDBRANCH  22  27
ENDBRANCH   6  19
TORSDOF 6
ENDMDL
MODEL 7
REMARK VINA RESULT:      -6.8      6.548     10.938
REMARK  Name = NuBBE_2467
REMARK  9 active torsions:
REMARK  status: ('A' for Active; 'I' for Inactive)
REMARK    1  A    between atoms: C_1  and  O_2
REMARK    2  A    between atoms: O_2  and  C_3
REMARK    3  A    between atoms: C_5  and  C_6
REMARK    4  A    between atoms: C_14  and  C_18
REMARK    5  A    between atoms: C_20  and  O_21
REMARK    6  A    between atoms: O_21  and  C_22
REMARK    7  A    between atoms: C_23  and  O_24
REMARK    8  A    between atoms: O_24  and  C_25
REMARK    9  A    between atoms: C_30  and  O_31
REMARK                            x       y       z     vdW  Elec       q    Type
REMARK                         _______ _______ _______ _____ _____    ______ ____
ROOT
ATOM      1  C   LIG A   1      -7.268   3.270 132.468  0.00  0.00    +0.154 C 
ATOM      2  C   LIG A   1      -8.794   3.404 132.545  0.00  0.00    +0.056 C 
ATOM      3  C   LIG A   1      -9.156   4.145 131.290  0.00  0.00    +0.056 C 
ATOM      4  C   LIG A   1      -8.099   3.687 130.318  0.00  0.00    +0.167 C 
ATOM      5  O   LIG A   1      -6.906   3.497 131.083  0.00  0.00    -0.371 OA
ATOM      6  C   LIG A   1      -9.031   5.610 131.711  0.00  0.00    +0.154 C 
ATOM      7  O   LIG A   1      -9.101   5.659 133.150  0.00  0.00    -0.371 OA
ATOM      8  C   LIG A   1      -9.256   4.327 133.646  0.00  0.00    +0.167 C 
ENDROOT
BRANCH   1  11
ATOM      9  C   LIG A   1      -6.200  -0.426 132.467  0.00  0.00    +0.162 A 
ATOM     10  C   LIG A   1      -6.729   0.809 132.070  0.00  0.00    +0.055 A 
ATOM     11  C   LIG A   1      -6.740   1.922 132.932  0.00  0.00    -0.015 A 
ATOM     12  C   LIG A   1      -6.299   1.740 134.244  0.00  0.00    +0.010 A 
ATOM     13  C   LIG A   1      -5.792   0.506 134.664  0.00  0.00    +0.049 A 
ATOM     14  C   LIG A   1      -5.731  -0.568 133.770  0.00  0.00    +0.159 A 
BRANCH   9  16
ATOM     15  C   LIG A   1      -7.438  -2.172 131.454  0.00  0.00    +0.277 C 
ATOM     16  O   LIG A   1      -6.259  -1.384 131.491  0.00  0.00    -0.491 OA
ENDBRANCH   9  16
BRANCH  14  17
ATOM     17  O   LIG A   1      -5.234  -1.763 134.216  0.00  0.00    -0.503 OA
ATOM     18  H   LIG A   1      -5.765  -2.059 134.974  0.00  0.00    +0.292 HD
ENDBRANCH  14  17
ENDBRANCH   1  11
BRANCH   6  19
ATOM     19  C   LIG A   1     -10.126   6.456 131.106  0.00  0.00    -0.015 A 
ATOM     20  C   LIG A   1      -9.866   7.122 129.902  0.00  0.00    +0.055 A 
ATOM     21  C   LIG A   1     -10.854   7.897 129.273  0.00  0.00    +0.162 A 
ATOM     22  C   LIG A   1     -12.111   8.028 129.881  0.00  0.00    +0.162 A 
ATOM     23  C   LIG A   1     -12.385   7.339 131.068  0.00  0.00    +0.050 A 
ATOM     24  C   LIG A   1     -11.393   6.563 131.673  0.00  0.00    +0.010 A 
BRANCH  21  25
ATOM     25  O   LIG A   1     -10.644   8.561 128.084  0.00  0.00    -0.491 OA
ATOM     26  C   LIG A   1     -10.831   7.810 126.890  0.00  0.00    +0.277 C 
ENDBRANCH  21  25
BRANCH  22  27
ATOM     27  O   LIG A   1     -13.047   8.809 129.237  0.00  0.00    -0.491 OA
ATOM     28  C   LIG A   1     -13.210  10.127 129.748  0.00  0.00    +0.277 C 
ENDBRANCH  22  27
ENDBRANCH   6  19
TORSDOF 6
ENDMDL
MODEL 8
REMARK VINA RESULT:      -6.8      5.892      7.572
REMARK  Name = NuBBE_2467
REMARK  9 active torsions:
REMARK  status: ('A' for Active; 'I' for Inactive)
REMARK    1  A    between atoms: C_1  and  O_2
REMARK    2  A    between atoms: O_2  and  C_3
REMARK    3  A    between atoms: C_5  and  C_6
REMARK    4  A    between atoms: C_14  and  C_18
REMARK    5  A    between atoms: C_20  and  O_21
REMARK    6  A    between atoms: O_21  and  C_22
REMARK    7  A    between atoms: C_23  and  O_24
REMARK    8  A    between atoms: O_24  and  C_25
REMARK    9  A    between atoms: C_30  and  O_31
REMARK                            x       y       z     vdW  Elec       q    Type
REMARK                         _______ _______ _______ _____ _____    ______ ____
ROOT
ATOM      1  C   LIG A   1      -9.054   4.416 130.993  0.00  0.00    +0.154 C 
ATOM      2  C   LIG A   1      -9.292   3.174 130.124  0.00  0.00    +0.056 C 
ATOM      3  C   LIG A   1      -9.139   2.028 131.082  0.00  0.00    +0.056 C 
ATOM      4  C   LIG A   1      -9.619   2.617 132.383  0.00  0.00    +0.167 C 
ATOM      5  O   LIG A   1      -9.230   3.993 132.368  0.00  0.00    -0.371 OA
ATOM      6  C   LIG A   1      -7.637   1.743 131.037  0.00  0.00    +0.154 C 
ATOM      7  O   LIG A   1      -7.120   2.315 129.819  0.00  0.00    -0.371 OA
ATOM      8  C   LIG A   1      -8.196   2.937 129.113  0.00  0.00    +0.167 C 
ENDROOT
BRANCH   1  11
ATOM      9  C   LIG A   1     -10.621   7.469 129.253  0.00  0.00    +0.162 A 
ATOM     10  C   LIG A   1      -9.746   6.426 129.583  0.00  0.00    +0.055 A 
ATOM     11  C   LIG A   1      -9.984   5.578 130.681  0.00  0.00    -0.015 A 
ATOM     12  C   LIG A   1     -11.073   5.864 131.507  0.00  0.00    +0.010 A 
ATOM     13  C   LIG A   1     -11.941   6.918 131.206  0.00  0.00    +0.049 A 
ATOM     14  C   LIG A   1     -11.721   7.707 130.073  0.00  0.00    +0.159 A 
BRANCH   9  16
ATOM     15  C   LIG A   1     -10.917   7.871 126.938  0.00  0.00    +0.277 C 
ATOM     16  O   LIG A   1     -10.235   8.174 128.145  0.00  0.00    -0.491 OA
ENDBRANCH   9  16
BRANCH  14  17
ATOM     17  O   LIG A   1     -12.587   8.734 129.812  0.00  0.00    -0.503 OA
ATOM     18  H   LIG A   1     -13.354   8.655 130.403  0.00  0.00    +0.292 HD
ENDBRANCH  14  17
ENDBRANCH   1  11
BRANCH   6  19
ATOM     19  C   LIG A   1      -7.353   0.259 131.078  0.00  0.00    -0.015 A 
ATOM     20  C   LIG A   1      -7.981  -0.567 130.139  0.00  0.00    +0.055 A 
ATOM     21  C   LIG A   1      -7.732  -1.948 130.106  0.00  0.00    +0.162 A 
ATOM     22  C   LIG A   1      -6.861  -2.510 131.050  0.00  0.00    +0.162 A 
ATOM     23  C   LIG A   1      -6.206  -1.683 131.971  0.00  0.00    +0.050 A 
ATOM     24  C   LIG A   1      -6.457  -0.308 131.981  0.00  0.00    +0.010 A 
BRANCH  21  25
ATOM     25  O   LIG A   1      -8.322  -2.796 129.194  0.00  0.00    -0.491 OA
ATOM     26  C   LIG A   1      -8.022  -2.569 127.821  0.00  0.00    +0.277 C 
ENDBRANCH  21  25
BRANCH  22  27
ATOM     27  O   LIG A   1      -6.654  -3.871 130.990  0.00  0.00    -0.491 OA
ATOM     28  C   LIG A   1      -5.390  -4.282 130.482  0.00  0.00    +0.277 C 
ENDBRANCH  22  27
ENDBRANCH   6  19
TORSDOF 6
ENDMDL
MODEL 9
REMARK VINA RESULT:      -6.8      6.534      8.314
REMARK  Name = NuBBE_2467
REMARK  9 active torsions:
REMARK  status: ('A' for Active; 'I' for Inactive)
REMARK    1  A    between atoms: C_1  and  O_2
REMARK    2  A    between atoms: O_2  and  C_3
REMARK    3  A    between atoms: C_5  and  C_6
REMARK    4  A    between atoms: C_14  and  C_18
REMARK    5  A    between atoms: C_20  and  O_21
REMARK    6  A    between atoms: O_21  and  C_22
REMARK    7  A    between atoms: C_23  and  O_24
REMARK    8  A    between atoms: O_24  and  C_25
REMARK    9  A    between atoms: C_30  and  O_31
REMARK                            x       y       z     vdW  Elec       q    Type
REMARK                         _______ _______ _______ _____ _____    ______ ____
ROOT
ATOM      1  C   LIG A   1     -10.555   4.868 130.870  0.00  0.00    +0.154 C 
ATOM      2  C   LIG A   1      -9.204   5.007 131.586  0.00  0.00    +0.056 C 
ATOM      3  C   LIG A   1      -8.395   3.858 131.058  0.00  0.00    +0.056 C 
ATOM      4  C   LIG A   1      -8.932   3.688 129.660  0.00  0.00    +0.167 C 
ATOM      5  O   LIG A   1     -10.323   4.012 129.723  0.00  0.00    -0.371 OA
ATOM      6  C   LIG A   1      -8.756   2.720 132.013  0.00  0.00    +0.154 C 
ATOM      7  O   LIG A   1      -9.288   3.310 133.216  0.00  0.00    -0.371 OA
ATOM      8  C   LIG A   1      -9.285   4.732 133.068  0.00  0.00    +0.167 C 
ENDROOT
BRANCH   1  11
ATOM      9  C   LIG A   1     -11.288   8.031 128.807  0.00  0.00    +0.162 A 
ATOM     10  C   LIG A   1     -10.707   6.840 129.259  0.00  0.00    +0.055 A 
ATOM     11  C   LIG A   1     -11.159   6.190 130.423  0.00  0.00    -0.015 A 
ATOM     12  C   LIG A   1     -12.144   6.820 131.186  0.00  0.00    +0.010 A 
ATOM     13  C   LIG A   1     -12.715   8.024 130.762  0.00  0.00    +0.049 A 
ATOM     14  C   LIG A   1     -12.296   8.618 129.568  0.00  0.00    +0.159 A 
BRANCH   9  16
ATOM     15  C   LIG A   1     -10.886   7.693 126.497  0.00  0.00    +0.277 C 
ATOM     16  O   LIG A   1     -10.730   8.506 127.651  0.00  0.00    -0.491 OA
ENDBRANCH   9  16
BRANCH  14  17
ATOM     17  O   LIG A   1     -12.872   9.799 129.186  0.00  0.00    -0.503 OA
ATOM     18  H   LIG A   1     -12.976  10.365 129.970  0.00  0.00    +0.292 HD
ENDBRANCH  14  17
ENDBRANCH   1  11
BRANCH   6  19
ATOM     19  C   LIG A   1      -7.553   1.866 132.339  0.00  0.00    -0.015 A 
ATOM     20  C   LIG A   1      -6.290   2.469 132.344  0.00  0.00    +0.055 A 
ATOM     21  C   LIG A   1      -5.137   1.736 132.671  0.00  0.00    +0.162 A 
ATOM     22  C   LIG A   1      -5.255   0.371 132.968  0.00  0.00    +0.162 A 
ATOM     23  C   LIG A   1      -6.520  -0.228 132.996  0.00  0.00    +0.050 A 
ATOM     24  C   LIG A   1      -7.658   0.520 132.679  0.00  0.00    +0.010 A 
BRANCH  21  25
ATOM     25  O   LIG A   1      -3.876   2.291 132.696  0.00  0.00    -0.491 OA
ATOM     26  C   LIG A   1      -3.687   3.484 131.944  0.00  0.00    +0.277 C 
ENDBRANCH  21  25
BRANCH  22  27
ATOM     27  O   LIG A   1      -4.098  -0.314 133.272  0.00  0.00    -0.491 OA
ATOM     28  C   LIG A   1      -3.623  -1.201 132.265  0.00  0.00    +0.277 C 
ENDBRANCH  22  27
ENDBRANCH   6  19
TORSDOF 6
ENDMDL
