MODEL 1
REMARK VINA RESULT:      -8.1      0.000      0.000
REMARK  Name = NuBBE_279
REMARK  18 active torsions:
REMARK  status: ('A' for Active; 'I' for Inactive)
REMARK    1  A    between atoms: O_1  and  C_2
REMARK    2  A    between atoms: C_3  and  C_4
REMARK    3  A    between atoms: C_5  and  C_6
REMARK    4  A    between atoms: C_9  and  C_10
REMARK    5  A    between atoms: C_9  and  C_28
REMARK    6  A    between atoms: C_10  and  C_11
REMARK    7  A    between atoms: C_11  and  C_12
REMARK    8  A    between atoms: C_13  and  C_14
REMARK    9  A    between atoms: C_13  and  C_15
REMARK   10  A    between atoms: C_15  and  C_16
REMARK   11  A    between atoms: C_16  and  C_17
REMARK   12  A    between atoms: C_18  and  C_19
REMARK   13  A    between atoms: C_18  and  C_22
REMARK   14  A    between atoms: C_19  and  O_20
REMARK   15  A    between atoms: C_22  and  C_23
REMARK   16  A    between atoms: C_23  and  C_24
REMARK   17  A    between atoms: C_25  and  C_26
REMARK   18  A    between atoms: C_25  and  C_27
REMARK                            x       y       z     vdW  Elec       q    Type
REMARK                         _______ _______ _______ _____ _____    ______ ____
ROOT
ATOM      1  C   LIG A   1      -6.910  -0.151 122.867  0.00  0.00    +0.031 C 
ENDROOT
BRANCH   1   2
ATOM      2  C   LIG A   1      -7.552  -1.449 123.324  0.00  0.00    -0.028 C 
ATOM      3  C   LIG A   1      -8.861  -1.794 123.323  0.00  0.00    -0.076 C 
ATOM      4  C   LIG A   1      -9.927  -0.958 122.657  0.00  0.00    +0.038 C 
BRANCH   3   5
ATOM      5  C   LIG A   1      -9.304  -3.164 123.831  0.00  0.00    +0.034 C 
BRANCH   5   6
ATOM      6  C   LIG A   1      -8.371  -3.976 124.752  0.00  0.00    +0.032 C 
BRANCH   6   7
ATOM      7  C   LIG A   1      -8.671  -3.988 126.227  0.00  0.00    -0.016 C 
ATOM      8  C   LIG A   1      -8.169  -3.170 127.178  0.00  0.00    +0.033 C 
BRANCH   8   9
ATOM      9  C   LIG A   1      -7.241  -2.043 126.799  0.00  0.00    +0.333 C 
ATOM     10  O   LIG A   1      -6.084  -2.111 126.554  0.00  0.00    -0.245 OA
BRANCH   9  11
ATOM     11  O   LIG A   1      -7.883  -0.865 126.662  0.00  0.00    -0.477 OA
ATOM     12  H   LIG A   1      -8.144  -0.567 127.553  0.00  0.00    +0.295 HD
ENDBRANCH   9  11
ENDBRANCH   8   9
BRANCH   8  13
ATOM     13  C   LIG A   1      -8.644  -3.274 128.626  0.00  0.00    +0.046 C 
BRANCH  13  14
ATOM     14  C   LIG A   1      -7.729  -2.596 129.669  0.00  0.00    +0.032 C 
BRANCH  14  15
ATOM     15  C   LIG A   1      -6.977  -3.591 130.489  0.00  0.00    -0.028 C 
ATOM     16  C   LIG A   1      -5.701  -3.977 130.504  0.00  0.00    -0.080 C 
ATOM     17  C   LIG A   1      -4.716  -3.539 129.489  0.00  0.00    +0.038 C 
ATOM     18  C   LIG A   1      -5.239  -4.871 131.629  0.00  0.00    +0.038 C 
ENDBRANCH  14  15
ENDBRANCH  13  14
ENDBRANCH   8  13
ENDBRANCH   6   7
ENDBRANCH   5   6
ENDBRANCH   3   5
ENDBRANCH   1   2
BRANCH   1  19
ATOM     19  C   LIG A   1      -6.078   0.609 123.928  0.00  0.00    +0.056 C 
BRANCH  19  27
ATOM     20  C   LIG A   1      -7.716   4.084 120.048  0.00  0.00    +0.121 A 
ATOM     21  C   LIG A   1      -6.383   4.411 120.338  0.00  0.00    -0.003 A 
ATOM     22  C   LIG A   1      -5.458   4.941 119.274  0.00  0.00    +0.048 C 
ATOM     23  C   LIG A   1      -5.929   4.215 121.659  0.00  0.00    -0.002 A 
ATOM     24  C   LIG A   1      -4.604   4.746 122.123  0.00  0.00    +0.048 C 
ATOM     25  C   LIG A   1      -6.718   3.496 122.566  0.00  0.00    +0.132 A 
ATOM     26  O   LIG A   1      -6.100   3.078 123.722  0.00  0.00    -0.481 OA
ATOM     27  C   LIG A   1      -6.696   1.965 124.426  0.00  0.00    +0.127 C 
ATOM     28  C   LIG A   1      -6.293   2.190 125.905  0.00  0.00    +0.060 C 
ATOM     29  C   LIG A   1      -8.210   1.992 124.339  0.00  0.00    +0.021 C 
ATOM     30  C   LIG A   1      -8.857   2.582 123.324  0.00  0.00    +0.011 C 
ATOM     31  C   LIG A   1      -8.051   3.201 122.278  0.00  0.00    +0.020 A 
ATOM     32  C   LIG A   1      -8.559   3.532 121.018  0.00  0.00    +0.057 A 
BRANCH  20  33
ATOM     33  O   LIG A   1      -8.265   4.288 118.810  0.00  0.00    -0.506 OA
ATOM     34  H   LIG A   1      -7.767   4.980 118.347  0.00  0.00    +0.292 HD
ENDBRANCH  20  33
ENDBRANCH  19  27
ENDBRANCH   1  19
TORSDOF 12
ENDMDL
MODEL 2
REMARK VINA RESULT:      -7.9      3.429      6.503
REMARK  Name = NuBBE_279
REMARK  18 active torsions:
REMARK  status: ('A' for Active; 'I' for Inactive)
REMARK    1  A    between atoms: O_1  and  C_2
REMARK    2  A    between atoms: C_3  and  C_4
REMARK    3  A    between atoms: C_5  and  C_6
REMARK    4  A    between atoms: C_9  and  C_10
REMARK    5  A    between atoms: C_9  and  C_28
REMARK    6  A    between atoms: C_10  and  C_11
REMARK    7  A    between atoms: C_11  and  C_12
REMARK    8  A    between atoms: C_13  and  C_14
REMARK    9  A    between atoms: C_13  and  C_15
REMARK   10  A    between atoms: C_15  and  C_16
REMARK   11  A    between atoms: C_16  and  C_17
REMARK   12  A    between atoms: C_18  and  C_19
REMARK   13  A    between atoms: C_18  and  C_22
REMARK   14  A    between atoms: C_19  and  O_20
REMARK   15  A    between atoms: C_22  and  C_23
REMARK   16  A    between atoms: C_23  and  C_24
REMARK   17  A    between atoms: C_25  and  C_26
REMARK   18  A    between atoms: C_25  and  C_27
REMARK                            x       y       z     vdW  Elec       q    Type
REMARK                         _______ _______ _______ _____ _____    ______ ____
ROOT
ATOM      1  C   LIG A   1      -8.712  -3.442 127.065  0.00  0.00    +0.031 C 
ENDROOT
BRANCH   1   2
ATOM      2  C   LIG A   1      -8.205  -2.356 127.998  0.00  0.00    -0.028 C 
ATOM      3  C   LIG A   1      -7.547  -2.488 129.174  0.00  0.00    -0.076 C 
ATOM      4  C   LIG A   1      -7.026  -3.813 129.677  0.00  0.00    +0.038 C 
BRANCH   3   5
ATOM      5  C   LIG A   1      -7.120  -1.256 129.968  0.00  0.00    +0.034 C 
BRANCH   5   6
ATOM      6  C   LIG A   1      -6.633   0.002 129.220  0.00  0.00    +0.032 C 
BRANCH   6   7
ATOM      7  C   LIG A   1      -7.575   1.174 129.124  0.00  0.00    -0.016 C 
ATOM      8  C   LIG A   1      -7.293   2.478 129.332  0.00  0.00    +0.033 C 
BRANCH   8   9
ATOM      9  C   LIG A   1      -5.881   2.911 129.640  0.00  0.00    +0.333 C 
ATOM     10  O   LIG A   1      -5.003   3.114 128.869  0.00  0.00    -0.245 OA
BRANCH   9  11
ATOM     11  O   LIG A   1      -5.687   3.158 130.951  0.00  0.00    -0.477 OA
ATOM     12  H   LIG A   1      -6.553   3.381 131.340  0.00  0.00    +0.295 HD
ENDBRANCH   9  11
ENDBRANCH   8   9
BRANCH   8  13
ATOM     13  C   LIG A   1      -8.358   3.551 129.115  0.00  0.00    +0.046 C 
BRANCH  13  14
ATOM     14  C   LIG A   1      -9.686   3.322 129.868  0.00  0.00    +0.032 C 
BRANCH  14  15
ATOM     15  C   LIG A   1      -9.553   3.574 131.332  0.00  0.00    -0.028 C 
ATOM     16  C   LIG A   1      -9.343   2.774 132.377  0.00  0.00    -0.080 C 
ATOM     17  C   LIG A   1      -9.349   1.297 132.272  0.00  0.00    +0.038 C 
ATOM     18  C   LIG A   1      -9.049   3.408 133.715  0.00  0.00    +0.038 C 
ENDBRANCH  14  15
ENDBRANCH  13  14
ENDBRANCH   8  13
ENDBRANCH   6   7
ENDBRANCH   5   6
ENDBRANCH   3   5
ENDBRANCH   1   2
BRANCH   1  19
ATOM     19  C   LIG A   1      -9.536  -2.964 125.846  0.00  0.00    +0.056 C 
BRANCH  19  27
ATOM     20  C   LIG A   1      -5.437   0.643 125.905  0.00  0.00    +0.121 A 
ATOM     21  C   LIG A   1      -6.575   1.341 125.478  0.00  0.00    -0.003 A 
ATOM     22  C   LIG A   1      -6.773   2.796 125.815  0.00  0.00    +0.048 C 
ATOM     23  C   LIG A   1      -7.540   0.635 124.730  0.00  0.00    -0.002 A 
ATOM     24  C   LIG A   1      -8.669   1.339 124.035  0.00  0.00    +0.048 C 
ATOM     25  C   LIG A   1      -7.464  -0.762 124.639  0.00  0.00    +0.132 A 
ATOM     26  O   LIG A   1      -8.583  -1.409 124.168  0.00  0.00    -0.481 OA
ATOM     27  C   LIG A   1      -8.730  -2.807 124.506  0.00  0.00    +0.127 C 
ATOM     28  C   LIG A   1      -9.567  -3.394 123.342  0.00  0.00    +0.060 C 
ATOM     29  C   LIG A   1      -7.392  -3.521 124.534  0.00  0.00    +0.021 C 
ATOM     30  C   LIG A   1      -6.243  -2.876 124.782  0.00  0.00    +0.011 C 
ATOM     31  C   LIG A   1      -6.316  -1.443 125.042  0.00  0.00    +0.020 A 
ATOM     32  C   LIG A   1      -5.280  -0.724 125.647  0.00  0.00    +0.057 A 
BRANCH  20  33
ATOM     33  O   LIG A   1      -4.419   1.252 126.588  0.00  0.00    -0.506 OA
ATOM     34  H   LIG A   1      -4.351   2.178 126.306  0.00  0.00    +0.292 HD
ENDBRANCH  20  33
ENDBRANCH  19  27
ENDBRANCH   1  19
TORSDOF 12
ENDMDL
MODEL 3
REMARK VINA RESULT:      -7.9      3.272      6.436
REMARK  Name = NuBBE_279
REMARK  18 active torsions:
REMARK  status: ('A' for Active; 'I' for Inactive)
REMARK    1  A    between atoms: O_1  and  C_2
REMARK    2  A    between atoms: C_3  and  C_4
REMARK    3  A    between atoms: C_5  and  C_6
REMARK    4  A    between atoms: C_9  and  C_10
REMARK    5  A    between atoms: C_9  and  C_28
REMARK    6  A    between atoms: C_10  and  C_11
REMARK    7  A    between atoms: C_11  and  C_12
REMARK    8  A    between atoms: C_13  and  C_14
REMARK    9  A    between atoms: C_13  and  C_15
REMARK   10  A    between atoms: C_15  and  C_16
REMARK   11  A    between atoms: C_16  and  C_17
REMARK   12  A    between atoms: C_18  and  C_19
REMARK   13  A    between atoms: C_18  and  C_22
REMARK   14  A    between atoms: C_19  and  O_20
REMARK   15  A    between atoms: C_22  and  C_23
REMARK   16  A    between atoms: C_23  and  C_24
REMARK   17  A    between atoms: C_25  and  C_26
REMARK   18  A    between atoms: C_25  and  C_27
REMARK                            x       y       z     vdW  Elec       q    Type
REMARK                         _______ _______ _______ _____ _____    ______ ____
ROOT
ATOM      1  C   LIG A   1      -8.551  -3.303 126.947  0.00  0.00    +0.031 C 
ENDROOT
BRANCH   1   2
ATOM      2  C   LIG A   1      -8.187  -2.262 127.991  0.00  0.00    -0.028 C 
ATOM      3  C   LIG A   1      -7.604  -2.441 129.199  0.00  0.00    -0.076 C 
ATOM      4  C   LIG A   1      -7.026  -3.764 129.641  0.00  0.00    +0.038 C 
BRANCH   3   5
ATOM      5  C   LIG A   1      -7.319  -1.249 130.109  0.00  0.00    +0.034 C 
BRANCH   5   6
ATOM      6  C   LIG A   1      -8.068  -1.116 131.451  0.00  0.00    +0.032 C 
BRANCH   6   7
ATOM      7  C   LIG A   1      -8.962   0.080 131.645  0.00  0.00    -0.016 C 
ATOM      8  C   LIG A   1      -8.672   1.230 132.289  0.00  0.00    +0.033 C 
BRANCH   8   9
ATOM      9  C   LIG A   1      -7.293   1.459 132.856  0.00  0.00    +0.333 C 
ATOM     10  O   LIG A   1      -6.897   1.163 133.933  0.00  0.00    -0.245 OA
BRANCH   9  11
ATOM     11  O   LIG A   1      -6.441   1.987 131.955  0.00  0.00    -0.477 OA
ATOM     12  H   LIG A   1      -5.946   1.251 131.550  0.00  0.00    +0.295 HD
ENDBRANCH   9  11
ENDBRANCH   8   9
BRANCH   8  13
ATOM     13  C   LIG A   1      -9.679   2.379 132.326  0.00  0.00    +0.046 C 
BRANCH  13  14
ATOM     14  C   LIG A   1     -10.131   2.903 130.946  0.00  0.00    +0.032 C 
BRANCH  14  15
ATOM     15  C   LIG A   1      -9.002   3.502 130.174  0.00  0.00    -0.028 C 
ATOM     16  C   LIG A   1      -8.349   3.121 129.076  0.00  0.00    -0.080 C 
ATOM     17  C   LIG A   1      -8.559   1.805 128.432  0.00  0.00    +0.038 C 
ATOM     18  C   LIG A   1      -7.384   4.095 128.446  0.00  0.00    +0.038 C 
ENDBRANCH  14  15
ENDBRANCH  13  14
ENDBRANCH   8  13
ENDBRANCH   6   7
ENDBRANCH   5   6
ENDBRANCH   3   5
ENDBRANCH   1   2
BRANCH   1  19
ATOM     19  C   LIG A   1      -9.547  -2.851 125.851  0.00  0.00    +0.056 C 
BRANCH  19  27
ATOM     20  C   LIG A   1      -6.593   1.687 125.147  0.00  0.00    +0.121 A 
ATOM     21  C   LIG A   1      -7.909   2.010 124.790  0.00  0.00    -0.003 A 
ATOM     22  C   LIG A   1      -8.467   3.390 125.021  0.00  0.00    +0.048 C 
ATOM     23  C   LIG A   1      -8.705   0.996 124.217  0.00  0.00    -0.002 A 
ATOM     24  C   LIG A   1     -10.036   1.296 123.593  0.00  0.00    +0.048 C 
ATOM     25  C   LIG A   1      -8.260  -0.333 124.239  0.00  0.00    +0.132 A 
ATOM     26  O   LIG A   1      -9.195  -1.300 123.951  0.00  0.00    -0.481 OA
ATOM     27  C   LIG A   1      -8.929  -2.640 124.423  0.00  0.00    +0.127 C 
ATOM     28  C   LIG A   1      -9.667  -3.553 123.413  0.00  0.00    +0.060 C 
ATOM     29  C   LIG A   1      -7.449  -2.971 124.364  0.00  0.00    +0.021 C 
ATOM     30  C   LIG A   1      -6.502  -2.024 124.428  0.00  0.00    +0.011 C 
ATOM     31  C   LIG A   1      -6.940  -0.639 124.570  0.00  0.00    +0.020 A 
ATOM     32  C   LIG A   1      -6.093   0.389 124.993  0.00  0.00    +0.057 A 
BRANCH  20  33
ATOM     33  O   LIG A   1      -5.726   2.615 125.660  0.00  0.00    -0.506 OA
ATOM     34  H   LIG A   1      -6.073   2.948 126.503  0.00  0.00    +0.292 HD
ENDBRANCH  20  33
ENDBRANCH  19  27
ENDBRANCH   1  19
TORSDOF 12
ENDMDL
MODEL 4
REMARK VINA RESULT:      -7.8      7.203     11.493
REMARK  Name = NuBBE_279
REMARK  18 active torsions:
REMARK  status: ('A' for Active; 'I' for Inactive)
REMARK    1  A    between atoms: O_1  and  C_2
REMARK    2  A    between atoms: C_3  and  C_4
REMARK    3  A    between atoms: C_5  and  C_6
REMARK    4  A    between atoms: C_9  and  C_10
REMARK    5  A    between atoms: C_9  and  C_28
REMARK    6  A    between atoms: C_10  and  C_11
REMARK    7  A    between atoms: C_11  and  C_12
REMARK    8  A    between atoms: C_13  and  C_14
REMARK    9  A    between atoms: C_13  and  C_15
REMARK   10  A    between atoms: C_15  and  C_16
REMARK   11  A    between atoms: C_16  and  C_17
REMARK   12  A    between atoms: C_18  and  C_19
REMARK   13  A    between atoms: C_18  and  C_22
REMARK   14  A    between atoms: C_19  and  O_20
REMARK   15  A    between atoms: C_22  and  C_23
REMARK   16  A    between atoms: C_23  and  C_24
REMARK   17  A    between atoms: C_25  and  C_26
REMARK   18  A    between atoms: C_25  and  C_27
REMARK                            x       y       z     vdW  Elec       q    Type
REMARK                         _______ _______ _______ _____ _____    ______ ____
ROOT
ATOM      1  C   LIG A   1      -5.756   2.504 130.742  0.00  0.00    +0.031 C 
ENDROOT
BRANCH   1   2
ATOM      2  C   LIG A   1      -6.086   3.910 131.212  0.00  0.00    -0.028 C 
ATOM      3  C   LIG A   1      -5.683   5.094 130.693  0.00  0.00    -0.076 C 
ATOM      4  C   LIG A   1      -4.948   5.204 129.380  0.00  0.00    +0.038 C 
BRANCH   3   5
ATOM      5  C   LIG A   1      -6.133   6.411 131.322  0.00  0.00    +0.034 C 
BRANCH   5   6
ATOM      6  C   LIG A   1      -7.305   7.194 130.696  0.00  0.00    +0.032 C 
BRANCH   6   7
ATOM      7  C   LIG A   1      -8.698   6.886 131.180  0.00  0.00    -0.016 C 
ATOM      8  C   LIG A   1      -9.620   6.097 130.589  0.00  0.00    +0.033 C 
BRANCH   8   9
ATOM      9  C   LIG A   1      -9.282   5.343 129.327  0.00  0.00    +0.333 C 
ATOM     10  O   LIG A   1      -8.991   4.199 129.225  0.00  0.00    -0.245 OA
BRANCH   9  11
ATOM     11  O   LIG A   1      -9.425   6.096 128.218  0.00  0.00    -0.477 OA
ATOM     12  H   LIG A   1      -8.545   6.444 127.982  0.00  0.00    +0.295 HD
ENDBRANCH   9  11
ENDBRANCH   8   9
BRANCH   8  13
ATOM     13  C   LIG A   1     -10.966   5.832 131.262  0.00  0.00    +0.046 C 
BRANCH  13  14
ATOM     14  C   LIG A   1     -12.207   6.190 130.415  0.00  0.00    +0.032 C 
BRANCH  14  15
ATOM     15  C   LIG A   1     -12.556   7.637 130.513  0.00  0.00    -0.028 C 
ATOM     16  C   LIG A   1     -12.458   8.656 129.659  0.00  0.00    -0.080 C 
ATOM     17  C   LIG A   1     -11.767   8.547 128.355  0.00  0.00    +0.038 C 
ATOM     18  C   LIG A   1     -13.115   9.964 130.029  0.00  0.00    +0.038 C 
ENDBRANCH  14  15
ENDBRANCH  13  14
ENDBRANCH   8  13
ENDBRANCH   6   7
ENDBRANCH   5   6
ENDBRANCH   3   5
ENDBRANCH   1   2
BRANCH   1  19
ATOM     19  C   LIG A   1      -6.956   1.635 130.296  0.00  0.00    +0.056 C 
BRANCH  19  27
ATOM     20  C   LIG A   1      -8.140   4.605 134.722  0.00  0.00    +0.121 A 
ATOM     21  C   LIG A   1      -6.889   4.019 134.960  0.00  0.00    -0.003 A 
ATOM     22  C   LIG A   1      -5.836   4.724 135.774  0.00  0.00    +0.048 C 
ATOM     23  C   LIG A   1      -6.638   2.749 134.399  0.00  0.00    -0.002 A 
ATOM     24  C   LIG A   1      -5.433   1.942 134.782  0.00  0.00    +0.048 C 
ATOM     25  C   LIG A   1      -7.523   2.222 133.447  0.00  0.00    +0.132 A 
ATOM     26  O   LIG A   1      -7.074   1.143 132.722  0.00  0.00    -0.481 OA
ATOM     27  C   LIG A   1      -7.714   0.887 131.451  0.00  0.00    +0.127 C 
ATOM     28  C   LIG A   1      -7.561  -0.641 131.249  0.00  0.00    +0.060 C 
ATOM     29  C   LIG A   1      -9.195   1.212 131.495  0.00  0.00    +0.021 C 
ATOM     30  C   LIG A   1      -9.704   2.115 132.346  0.00  0.00    +0.011 C 
ATOM     31  C   LIG A   1      -8.776   2.798 133.240  0.00  0.00    +0.020 A 
ATOM     32  C   LIG A   1      -9.096   3.981 133.913  0.00  0.00    +0.057 A 
BRANCH  20  33
ATOM     33  O   LIG A   1      -8.498   5.809 135.266  0.00  0.00    -0.506 OA
ATOM     34  H   LIG A   1      -7.774   6.139 135.822  0.00  0.00    +0.292 HD
ENDBRANCH  20  33
ENDBRANCH  19  27
ENDBRANCH   1  19
TORSDOF 12
ENDMDL
MODEL 5
REMARK VINA RESULT:      -7.8      3.207      6.802
REMARK  Name = NuBBE_279
REMARK  18 active torsions:
REMARK  status: ('A' for Active; 'I' for Inactive)
REMARK    1  A    between atoms: O_1  and  C_2
REMARK    2  A    between atoms: C_3  and  C_4
REMARK    3  A    between atoms: C_5  and  C_6
REMARK    4  A    between atoms: C_9  and  C_10
REMARK    5  A    between atoms: C_9  and  C_28
REMARK    6  A    between atoms: C_10  and  C_11
REMARK    7  A    between atoms: C_11  and  C_12
REMARK    8  A    between atoms: C_13  and  C_14
REMARK    9  A    between atoms: C_13  and  C_15
REMARK   10  A    between atoms: C_15  and  C_16
REMARK   11  A    between atoms: C_16  and  C_17
REMARK   12  A    between atoms: C_18  and  C_19
REMARK   13  A    between atoms: C_18  and  C_22
REMARK   14  A    between atoms: C_19  and  O_20
REMARK   15  A    between atoms: C_22  and  C_23
REMARK   16  A    between atoms: C_23  and  C_24
REMARK   17  A    between atoms: C_25  and  C_26
REMARK   18  A    between atoms: C_25  and  C_27
REMARK                            x       y       z     vdW  Elec       q    Type
REMARK                         _______ _______ _______ _____ _____    ______ ____
ROOT
ATOM      1  C   LIG A   1      -8.700  -3.432 127.062  0.00  0.00    +0.031 C 
ENDROOT
BRANCH   1   2
ATOM      2  C   LIG A   1      -8.279  -2.252 127.921  0.00  0.00    -0.028 C 
ATOM      3  C   LIG A   1      -7.694  -2.259 129.142  0.00  0.00    -0.076 C 
ATOM      4  C   LIG A   1      -7.174  -3.517 129.794  0.00  0.00    +0.038 C 
BRANCH   3   5
ATOM      5  C   LIG A   1      -7.346  -0.948 129.844  0.00  0.00    +0.034 C 
BRANCH   5   6
ATOM      6  C   LIG A   1      -7.442   0.382 129.069  0.00  0.00    +0.032 C 
BRANCH   6   7
ATOM      7  C   LIG A   1      -6.471   1.477 129.425  0.00  0.00    -0.016 C 
ATOM      8  C   LIG A   1      -6.735   2.792 129.586  0.00  0.00    +0.033 C 
BRANCH   8   9
ATOM      9  C   LIG A   1      -8.150   3.303 129.480  0.00  0.00    +0.333 C 
ATOM     10  O   LIG A   1      -8.713   3.673 128.504  0.00  0.00    -0.245 OA
BRANCH   9  11
ATOM     11  O   LIG A   1      -8.820   3.226 130.647  0.00  0.00    -0.477 OA
ATOM     12  H   LIG A   1      -8.719   2.317 130.985  0.00  0.00    +0.295 HD
ENDBRANCH   9  11
ENDBRANCH   8   9
BRANCH   8  13
ATOM     13  C   LIG A   1      -5.637   3.759 130.025  0.00  0.00    +0.046 C 
BRANCH  13  14
ATOM     14  C   LIG A   1      -4.210   3.171 130.044  0.00  0.00    +0.032 C 
BRANCH  14  15
ATOM     15  C   LIG A   1      -3.576   3.188 128.693  0.00  0.00    -0.028 C 
ATOM     16  C   LIG A   1      -2.807   4.074 128.061  0.00  0.00    -0.080 C 
ATOM     17  C   LIG A   1      -2.530   5.426 128.598  0.00  0.00    +0.038 C 
ATOM     18  C   LIG A   1      -2.163   3.661 126.759  0.00  0.00    +0.038 C 
ENDBRANCH  14  15
ENDBRANCH  13  14
ENDBRANCH   8  13
ENDBRANCH   6   7
ENDBRANCH   5   6
ENDBRANCH   3   5
ENDBRANCH   1   2
BRANCH   1  19
ATOM     19  C   LIG A   1      -9.600  -3.103 125.847  0.00  0.00    +0.056 C 
BRANCH  19  27
ATOM     20  C   LIG A   1      -5.422   0.411 125.837  0.00  0.00    +0.121 A 
ATOM     21  C   LIG A   1      -6.561   1.147 125.481  0.00  0.00    -0.003 A 
ATOM     22  C   LIG A   1      -6.712   2.594 125.870  0.00  0.00    +0.048 C 
ATOM     23  C   LIG A   1      -7.573   0.485 124.755  0.00  0.00    -0.002 A 
ATOM     24  C   LIG A   1      -8.714   1.234 124.131  0.00  0.00    +0.048 C 
ATOM     25  C   LIG A   1      -7.533  -0.910 124.619  0.00  0.00    +0.132 A 
ATOM     26  O   LIG A   1      -8.685  -1.518 124.178  0.00  0.00    -0.481 OA
ATOM     27  C   LIG A   1      -8.849  -2.922 124.480  0.00  0.00    +0.127 C 
ATOM     28  C   LIG A   1      -9.747  -3.455 123.335  0.00  0.00    +0.060 C 
ATOM     29  C   LIG A   1      -7.527  -3.665 124.428  0.00  0.00    +0.021 C 
ATOM     30  C   LIG A   1      -6.355  -3.053 124.646  0.00  0.00    +0.011 C 
ATOM     31  C   LIG A   1      -6.384  -1.627 124.951  0.00  0.00    +0.020 A 
ATOM     32  C   LIG A   1      -5.308  -0.950 125.532  0.00  0.00    +0.057 A 
BRANCH  20  33
ATOM     33  O   LIG A   1      -4.363   0.977 126.494  0.00  0.00    -0.506 OA
ATOM     34  H   LIG A   1      -4.244   0.539 127.352  0.00  0.00    +0.292 HD
ENDBRANCH  20  33
ENDBRANCH  19  27
ENDBRANCH   1  19
TORSDOF 12
ENDMDL
MODEL 6
REMARK VINA RESULT:      -7.8      2.359      8.056
REMARK  Name = NuBBE_279
REMARK  18 active torsions:
REMARK  status: ('A' for Active; 'I' for Inactive)
REMARK    1  A    between atoms: O_1  and  C_2
REMARK    2  A    between atoms: C_3  and  C_4
REMARK    3  A    between atoms: C_5  and  C_6
REMARK    4  A    between atoms: C_9  and  C_10
REMARK    5  A    between atoms: C_9  and  C_28
REMARK    6  A    between atoms: C_10  and  C_11
REMARK    7  A    between atoms: C_11  and  C_12
REMARK    8  A    between atoms: C_13  and  C_14
REMARK    9  A    between atoms: C_13  and  C_15
REMARK   10  A    between atoms: C_15  and  C_16
REMARK   11  A    between atoms: C_16  and  C_17
REMARK   12  A    between atoms: C_18  and  C_19
REMARK   13  A    between atoms: C_18  and  C_22
REMARK   14  A    between atoms: C_19  and  O_20
REMARK   15  A    between atoms: C_22  and  C_23
REMARK   16  A    between atoms: C_23  and  C_24
REMARK   17  A    between atoms: C_25  and  C_26
REMARK   18  A    between atoms: C_25  and  C_27
REMARK                            x       y       z     vdW  Elec       q    Type
REMARK                         _______ _______ _______ _____ _____    ______ ____
ROOT
ATOM      1  C   LIG A   1      -8.307  -4.041 128.070  0.00  0.00    +0.031 C 
ENDROOT
BRANCH   1   2
ATOM      2  C   LIG A   1      -9.002  -3.413 126.874  0.00  0.00    -0.028 C 
ATOM      3  C   LIG A   1      -8.471  -3.030 125.690  0.00  0.00    -0.076 C 
ATOM      4  C   LIG A   1      -7.054  -3.355 125.284  0.00  0.00    +0.038 C 
BRANCH   3   5
ATOM      5  C   LIG A   1      -9.352  -2.413 124.606  0.00  0.00    +0.034 C 
BRANCH   5   6
ATOM      6  C   LIG A   1      -8.725  -1.988 123.263  0.00  0.00    +0.032 C 
BRANCH   6   7
ATOM      7  C   LIG A   1      -7.982  -0.679 123.214  0.00  0.00    -0.016 C 
ATOM      8  C   LIG A   1      -8.502   0.567 123.241  0.00  0.00    +0.033 C 
BRANCH   8   9
ATOM      9  C   LIG A   1      -9.988   0.767 123.403  0.00  0.00    +0.333 C 
ATOM     10  O   LIG A   1     -10.560   1.209 124.343  0.00  0.00    -0.245 OA
BRANCH   9  11
ATOM     11  O   LIG A   1     -10.678   0.466 122.285  0.00  0.00    -0.477 OA
ATOM     12  H   LIG A   1     -10.030   0.300 121.575  0.00  0.00    +0.295 HD
ENDBRANCH   9  11
ENDBRANCH   8   9
BRANCH   8  13
ATOM     13  C   LIG A   1      -7.591   1.793 123.261  0.00  0.00    +0.046 C 
BRANCH  13  14
ATOM     14  C   LIG A   1      -7.961   2.904 122.254  0.00  0.00    +0.032 C 
BRANCH  14  15
ATOM     15  C   LIG A   1      -6.755   3.527 121.636  0.00  0.00    -0.028 C 
ATOM     16  C   LIG A   1      -6.550   4.160 120.480  0.00  0.00    -0.080 C 
ATOM     17  C   LIG A   1      -7.574   4.239 119.414  0.00  0.00    +0.038 C 
ATOM     18  C   LIG A   1      -5.227   4.857 120.273  0.00  0.00    +0.038 C 
ENDBRANCH  14  15
ENDBRANCH  13  14
ENDBRANCH   8  13
ENDBRANCH   6   7
ENDBRANCH   5   6
ENDBRANCH   3   5
ENDBRANCH   1   2
BRANCH   1  19
ATOM     19  C   LIG A   1      -8.520  -3.334 129.430  0.00  0.00    +0.056 C 
BRANCH  19  27
ATOM     20  C   LIG A   1      -8.613   2.113 129.077  0.00  0.00    +0.121 A 
ATOM     21  C   LIG A   1      -7.988   1.650 127.910  0.00  0.00    -0.003 A 
ATOM     22  C   LIG A   1      -8.135   2.380 126.601  0.00  0.00    +0.048 C 
ATOM     23  C   LIG A   1      -7.226   0.466 127.996  0.00  0.00    -0.002 A 
ATOM     24  C   LIG A   1      -6.337   0.018 126.873  0.00  0.00    +0.048 C 
ATOM     25  C   LIG A   1      -7.303  -0.328 129.148  0.00  0.00    +0.132 A 
ATOM     26  O   LIG A   1      -6.790  -1.601 129.053  0.00  0.00    -0.481 OA
ATOM     27  C   LIG A   1      -7.266  -2.581 130.003  0.00  0.00    +0.127 C 
ATOM     28  C   LIG A   1      -6.093  -3.582 130.139  0.00  0.00    +0.060 C 
ATOM     29  C   LIG A   1      -7.520  -1.962 131.365  0.00  0.00    +0.021 C 
ATOM     30  C   LIG A   1      -7.817  -0.663 131.516  0.00  0.00    +0.011 C 
ATOM     31  C   LIG A   1      -7.903   0.154 130.311  0.00  0.00    +0.020 A 
ATOM     32  C   LIG A   1      -8.531   1.403 130.280  0.00  0.00    +0.057 A 
BRANCH  20  33
ATOM     33  O   LIG A   1      -9.329   3.280 129.108  0.00  0.00    -0.506 OA
ATOM     34  H   LIG A   1      -9.629   3.449 130.015  0.00  0.00    +0.292 HD
ENDBRANCH  20  33
ENDBRANCH  19  27
ENDBRANCH   1  19
TORSDOF 12
ENDMDL
MODEL 7
REMARK VINA RESULT:      -7.7      1.228      2.062
REMARK  Name = NuBBE_279
REMARK  18 active torsions:
REMARK  status: ('A' for Active; 'I' for Inactive)
REMARK    1  A    between atoms: O_1  and  C_2
REMARK    2  A    between atoms: C_3  and  C_4
REMARK    3  A    between atoms: C_5  and  C_6
REMARK    4  A    between atoms: C_9  and  C_10
REMARK    5  A    between atoms: C_9  and  C_28
REMARK    6  A    between atoms: C_10  and  C_11
REMARK    7  A    between atoms: C_11  and  C_12
REMARK    8  A    between atoms: C_13  and  C_14
REMARK    9  A    between atoms: C_13  and  C_15
REMARK   10  A    between atoms: C_15  and  C_16
REMARK   11  A    between atoms: C_16  and  C_17
REMARK   12  A    between atoms: C_18  and  C_19
REMARK   13  A    between atoms: C_18  and  C_22
REMARK   14  A    between atoms: C_19  and  O_20
REMARK   15  A    between atoms: C_22  and  C_23
REMARK   16  A    between atoms: C_23  and  C_24
REMARK   17  A    between atoms: C_25  and  C_26
REMARK   18  A    between atoms: C_25  and  C_27
REMARK                            x       y       z     vdW  Elec       q    Type
REMARK                         _______ _______ _______ _____ _____    ______ ____
ROOT
ATOM      1  C   LIG A   1      -7.611  -0.995 123.235  0.00  0.00    +0.031 C 
ENDROOT
BRANCH   1   2
ATOM      2  C   LIG A   1      -7.858  -1.760 124.524  0.00  0.00    -0.028 C 
ATOM      3  C   LIG A   1      -8.718  -2.780 124.753  0.00  0.00    -0.076 C 
ATOM      4  C   LIG A   1      -9.476  -3.475 123.648  0.00  0.00    +0.038 C 
BRANCH   3   5
ATOM      5  C   LIG A   1      -8.815  -3.419 126.136  0.00  0.00    +0.034 C 
BRANCH   5   6
ATOM      6  C   LIG A   1      -8.407  -2.607 127.382  0.00  0.00    +0.032 C 
BRANCH   6   7
ATOM      7  C   LIG A   1      -8.017  -3.366 128.623  0.00  0.00    -0.016 C 
ATOM      8  C   LIG A   1      -6.854  -3.289 129.305  0.00  0.00    +0.033 C 
BRANCH   8   9
ATOM      9  C   LIG A   1      -5.789  -2.307 128.885  0.00  0.00    +0.333 C 
ATOM     10  O   LIG A   1      -4.967  -2.449 128.043  0.00  0.00    -0.245 OA
BRANCH   9  11
ATOM     11  O   LIG A   1      -5.892  -1.124 129.523  0.00  0.00    -0.477 OA
ATOM     12  H   LIG A   1      -6.809  -1.041 129.844  0.00  0.00    +0.295 HD
ENDBRANCH   9  11
ENDBRANCH   8   9
BRANCH   8  13
ATOM     13  C   LIG A   1      -6.654  -4.080 130.597  0.00  0.00    +0.046 C 
BRANCH  13  14
ATOM     14  C   LIG A   1      -5.192  -4.465 130.912  0.00  0.00    +0.032 C 
BRANCH  14  15
ATOM     15  C   LIG A   1      -5.064  -5.153 132.230  0.00  0.00    -0.028 C 
ATOM     16  C   LIG A   1      -5.375  -4.795 133.476  0.00  0.00    -0.080 C 
ATOM     17  C   LIG A   1      -5.825  -3.430 133.832  0.00  0.00    +0.038 C 
ATOM     18  C   LIG A   1      -5.301  -5.843 134.560  0.00  0.00    +0.038 C 
ENDBRANCH  14  15
ENDBRANCH  13  14
ENDBRANCH   8  13
ENDBRANCH   6   7
ENDBRANCH   5   6
ENDBRANCH   3   5
ENDBRANCH   1   2
BRANCH   1  19
ATOM     19  C   LIG A   1      -6.578   0.155 123.311  0.00  0.00    +0.056 C 
BRANCH  19  27
ATOM     20  C   LIG A   1      -7.946   4.172 119.876  0.00  0.00    +0.121 A 
ATOM     21  C   LIG A   1      -6.594   4.364 120.194  0.00  0.00    -0.003 A 
ATOM     22  C   LIG A   1      -5.629   4.946 119.194  0.00  0.00    +0.048 C 
ATOM     23  C   LIG A   1      -6.158   3.982 121.480  0.00  0.00    -0.002 A 
ATOM     24  C   LIG A   1      -4.800   4.355 121.996  0.00  0.00    +0.048 C 
ATOM     25  C   LIG A   1      -7.001   3.220 122.302  0.00  0.00    +0.132 A 
ATOM     26  O   LIG A   1      -6.418   2.626 123.397  0.00  0.00    -0.481 OA
ATOM     27  C   LIG A   1      -7.096   1.484 123.969  0.00  0.00    +0.127 C 
ATOM     28  C   LIG A   1      -6.681   1.504 125.462  0.00  0.00    +0.060 C 
ATOM     29  C   LIG A   1      -8.604   1.633 123.896  0.00  0.00    +0.021 C 
ATOM     30  C   LIG A   1      -9.203   2.384 122.961  0.00  0.00    +0.011 C 
ATOM     31  C   LIG A   1      -8.351   3.060 121.989  0.00  0.00    +0.020 A 
ATOM     32  C   LIG A   1      -8.830   3.573 120.780  0.00  0.00    +0.057 A 
BRANCH  20  33
ATOM     33  O   LIG A   1      -8.476   4.560 118.675  0.00  0.00    -0.506 OA
ATOM     34  H   LIG A   1      -8.656   5.513 118.695  0.00  0.00    +0.292 HD
ENDBRANCH  20  33
ENDBRANCH  19  27
ENDBRANCH   1  19
TORSDOF 12
ENDMDL
MODEL 8
REMARK VINA RESULT:      -7.7      4.053      7.231
REMARK  Name = NuBBE_279
REMARK  18 active torsions:
REMARK  status: ('A' for Active; 'I' for Inactive)
REMARK    1  A    between atoms: O_1  and  C_2
REMARK    2  A    between atoms: C_3  and  C_4
REMARK    3  A    between atoms: C_5  and  C_6
REMARK    4  A    between atoms: C_9  and  C_10
REMARK    5  A    between atoms: C_9  and  C_28
REMARK    6  A    between atoms: C_10  and  C_11
REMARK    7  A    between atoms: C_11  and  C_12
REMARK    8  A    between atoms: C_13  and  C_14
REMARK    9  A    between atoms: C_13  and  C_15
REMARK   10  A    between atoms: C_15  and  C_16
REMARK   11  A    between atoms: C_16  and  C_17
REMARK   12  A    between atoms: C_18  and  C_19
REMARK   13  A    between atoms: C_18  and  C_22
REMARK   14  A    between atoms: C_19  and  O_20
REMARK   15  A    between atoms: C_22  and  C_23
REMARK   16  A    between atoms: C_23  and  C_24
REMARK   17  A    between atoms: C_25  and  C_26
REMARK   18  A    between atoms: C_25  and  C_27
REMARK                            x       y       z     vdW  Elec       q    Type
REMARK                         _______ _______ _______ _____ _____    ______ ____
ROOT
ATOM      1  C   LIG A   1      -8.643  -3.450 127.152  0.00  0.00    +0.031 C 
ENDROOT
BRANCH   1   2
ATOM      2  C   LIG A   1      -8.200  -2.377 128.131  0.00  0.00    -0.028 C 
ATOM      3  C   LIG A   1      -7.500  -2.518 129.282  0.00  0.00    -0.076 C 
ATOM      4  C   LIG A   1      -6.860  -3.820 129.697  0.00  0.00    +0.038 C 
BRANCH   3   5
ATOM      5  C   LIG A   1      -7.151  -1.299 130.132  0.00  0.00    +0.034 C 
BRANCH   5   6
ATOM      6  C   LIG A   1      -7.923  -1.034 131.441  0.00  0.00    +0.032 C 
BRANCH   6   7
ATOM      7  C   LIG A   1      -8.976   0.042 131.433  0.00  0.00    -0.016 C 
ATOM      8  C   LIG A   1      -8.858   1.315 131.867  0.00  0.00    +0.033 C 
BRANCH   8   9
ATOM      9  C   LIG A   1      -7.533   1.826 132.376  0.00  0.00    +0.333 C 
ATOM     10  O   LIG A   1      -6.653   2.306 131.744  0.00  0.00    -0.245 OA
BRANCH   9  11
ATOM     11  O   LIG A   1      -7.438   1.776 133.720  0.00  0.00    -0.477 OA
ATOM     12  H   LIG A   1      -7.155   2.657 134.028  0.00  0.00    +0.295 HD
ENDBRANCH   9  11
ENDBRANCH   8   9
BRANCH   8  13
ATOM     13  C   LIG A   1     -10.014   2.302 131.714  0.00  0.00    +0.046 C 
BRANCH  13  14
ATOM     14  C   LIG A   1      -9.882   3.292 130.536  0.00  0.00    +0.032 C 
BRANCH  14  15
ATOM     15  C   LIG A   1     -10.899   4.382 130.602  0.00  0.00    -0.028 C 
ATOM     16  C   LIG A   1     -10.838   5.662 130.970  0.00  0.00    -0.080 C 
ATOM     17  C   LIG A   1      -9.637   6.262 131.592  0.00  0.00    +0.038 C 
ATOM     18  C   LIG A   1     -12.037   6.540 130.704  0.00  0.00    +0.038 C 
ENDBRANCH  14  15
ENDBRANCH  13  14
ENDBRANCH   8  13
ENDBRANCH   6   7
ENDBRANCH   5   6
ENDBRANCH   3   5
ENDBRANCH   1   2
BRANCH   1  19
ATOM     19  C   LIG A   1      -9.494  -2.967 125.952  0.00  0.00    +0.056 C 
BRANCH  19  27
ATOM     20  C   LIG A   1      -5.403   0.648 126.017  0.00  0.00    +0.121 A 
ATOM     21  C   LIG A   1      -6.550   1.353 125.625  0.00  0.00    -0.003 A 
ATOM     22  C   LIG A   1      -6.746   2.799 125.997  0.00  0.00    +0.048 C 
ATOM     23  C   LIG A   1      -7.527   0.660 124.879  0.00  0.00    -0.002 A 
ATOM     24  C   LIG A   1      -8.669   1.375 124.219  0.00  0.00    +0.048 C 
ATOM     25  C   LIG A   1      -7.449  -0.734 124.757  0.00  0.00    +0.132 A 
ATOM     26  O   LIG A   1      -8.573  -1.375 124.292  0.00  0.00    -0.481 OA
ATOM     27  C   LIG A   1      -8.712  -2.780 124.602  0.00  0.00    +0.127 C 
ATOM     28  C   LIG A   1      -9.567  -3.344 123.440  0.00  0.00    +0.060 C 
ATOM     29  C   LIG A   1      -7.371  -3.491 124.591  0.00  0.00    +0.021 C 
ATOM     30  C   LIG A   1      -6.220  -2.848 124.834  0.00  0.00    +0.011 C 
ATOM     31  C   LIG A   1      -6.292  -1.421 125.125  0.00  0.00    +0.020 A 
ATOM     32  C   LIG A   1      -5.248  -0.712 125.728  0.00  0.00    +0.057 A 
BRANCH  20  33
ATOM     33  O   LIG A   1      -4.375   1.246 126.696  0.00  0.00    -0.506 OA
ATOM     34  H   LIG A   1      -4.337   2.187 126.460  0.00  0.00    +0.292 HD
ENDBRANCH  20  33
ENDBRANCH  19  27
ENDBRANCH   1  19
TORSDOF 12
ENDMDL
MODEL 9
REMARK VINA RESULT:      -7.7      4.408      6.960
REMARK  Name = NuBBE_279
REMARK  18 active torsions:
REMARK  status: ('A' for Active; 'I' for Inactive)
REMARK    1  A    between atoms: O_1  and  C_2
REMARK    2  A    between atoms: C_3  and  C_4
REMARK    3  A    between atoms: C_5  and  C_6
REMARK    4  A    between atoms: C_9  and  C_10
REMARK    5  A    between atoms: C_9  and  C_28
REMARK    6  A    between atoms: C_10  and  C_11
REMARK    7  A    between atoms: C_11  and  C_12
REMARK    8  A    between atoms: C_13  and  C_14
REMARK    9  A    between atoms: C_13  and  C_15
REMARK   10  A    between atoms: C_15  and  C_16
REMARK   11  A    between atoms: C_16  and  C_17
REMARK   12  A    between atoms: C_18  and  C_19
REMARK   13  A    between atoms: C_18  and  C_22
REMARK   14  A    between atoms: C_19  and  O_20
REMARK   15  A    between atoms: C_22  and  C_23
REMARK   16  A    between atoms: C_23  and  C_24
REMARK   17  A    between atoms: C_25  and  C_26
REMARK   18  A    between atoms: C_25  and  C_27
REMARK                            x       y       z     vdW  Elec       q    Type
REMARK                         _______ _______ _______ _____ _____    ______ ____
ROOT
ATOM      1  C   LIG A   1      -8.522  -3.260 127.117  0.00  0.00    +0.031 C 
ENDROOT
BRANCH   1   2
ATOM      2  C   LIG A   1      -8.160  -2.047 127.956  0.00  0.00    -0.028 C 
ATOM      3  C   LIG A   1      -7.035  -1.819 128.674  0.00  0.00    -0.076 C 
ATOM      4  C   LIG A   1      -5.820  -2.710 128.597  0.00  0.00    +0.038 C 
BRANCH   3   5
ATOM      5  C   LIG A   1      -6.864  -0.519 129.458  0.00  0.00    +0.034 C 
BRANCH   5   6
ATOM      6  C   LIG A   1      -8.056   0.450 129.599  0.00  0.00    +0.032 C 
BRANCH   6   7
ATOM      7  C   LIG A   1      -8.453   0.884 130.985  0.00  0.00    -0.016 C 
ATOM      8  C   LIG A   1      -8.744   2.133 131.406  0.00  0.00    +0.033 C 
BRANCH   8   9
ATOM      9  C   LIG A   1      -8.762   3.281 130.429  0.00  0.00    +0.333 C 
ATOM     10  O   LIG A   1      -7.859   3.986 130.125  0.00  0.00    -0.245 OA
BRANCH   9  11
ATOM     11  O   LIG A   1      -9.949   3.413 129.803  0.00  0.00    -0.477 OA
ATOM     12  H   LIG A   1      -9.789   3.881 128.963  0.00  0.00    +0.295 HD
ENDBRANCH   9  11
ENDBRANCH   8   9
BRANCH   8  13
ATOM     13  C   LIG A   1      -9.205   2.385 132.841  0.00  0.00    +0.046 C 
BRANCH  13  14
ATOM     14  C   LIG A   1      -9.331   3.871 133.241  0.00  0.00    +0.032 C 
BRANCH  14  15
ATOM     15  C   LIG A   1      -8.456   4.217 134.399  0.00  0.00    -0.028 C 
ATOM     16  C   LIG A   1      -7.371   4.982 134.522  0.00  0.00    -0.080 C 
ATOM     17  C   LIG A   1      -6.674   5.581 133.362  0.00  0.00    +0.038 C 
ATOM     18  C   LIG A   1      -6.861   5.278 135.912  0.00  0.00    +0.038 C 
ENDBRANCH  14  15
ENDBRANCH  13  14
ENDBRANCH   8  13
ENDBRANCH   6   7
ENDBRANCH   5   6
ENDBRANCH   3   5
ENDBRANCH   1   2
BRANCH   1  19
ATOM     19  C   LIG A   1      -9.443  -2.997 125.901  0.00  0.00    +0.056 C 
BRANCH  19  27
ATOM     20  C   LIG A   1      -5.388   0.657 126.013  0.00  0.00    +0.121 A 
ATOM     21  C   LIG A   1      -6.554   1.367 125.690  0.00  0.00    -0.003 A 
ATOM     22  C   LIG A   1      -6.752   2.792 126.136  0.00  0.00    +0.048 C 
ATOM     23  C   LIG A   1      -7.546   0.699 124.943  0.00  0.00    -0.002 A 
ATOM     24  C   LIG A   1      -8.715   1.431 124.352  0.00  0.00    +0.048 C 
ATOM     25  C   LIG A   1      -7.458  -0.687 124.752  0.00  0.00    +0.132 A 
ATOM     26  O   LIG A   1      -8.591  -1.318 124.291  0.00  0.00    -0.481 OA
ATOM     27  C   LIG A   1      -8.706  -2.737 124.539  0.00  0.00    +0.127 C 
ATOM     28  C   LIG A   1      -9.591  -3.256 123.378  0.00  0.00    +0.060 C 
ATOM     29  C   LIG A   1      -7.359  -3.432 124.453  0.00  0.00    +0.021 C 
ATOM     30  C   LIG A   1      -6.207  -2.788 124.691  0.00  0.00    +0.011 C 
ATOM     31  C   LIG A   1      -6.284  -1.377 125.052  0.00  0.00    +0.020 A 
ATOM     32  C   LIG A   1      -5.229  -0.686 125.655  0.00  0.00    +0.057 A 
BRANCH  20  33
ATOM     33  O   LIG A   1      -4.346   1.234 126.688  0.00  0.00    -0.506 OA
ATOM     34  H   LIG A   1      -4.678   1.650 127.499  0.00  0.00    +0.292 HD
ENDBRANCH  20  33
ENDBRANCH  19  27
ENDBRANCH   1  19
TORSDOF 12
ENDMDL
