MODEL 1
REMARK VINA RESULT:      -9.4      0.000      0.000
REMARK  Name = NuBBE_612
REMARK  10 active torsions:
REMARK  status: ('A' for Active; 'I' for Inactive)
REMARK    1  A    between atoms: C_1  and  C_2
REMARK    2  A    between atoms: C_3  and  C_48
REMARK    3  A    between atoms: C_6  and  C_10
REMARK    4  A    between atoms: C_10  and  C_11
REMARK    5  A    between atoms: C_20  and  O_22
REMARK    6  A    between atoms: O_22  and  C_23
REMARK    7  A    between atoms: C_23  and  C_24
REMARK    8  A    between atoms: C_30  and  O_31
REMARK    9  A    between atoms: C_30  and  C_45
REMARK   10  A    between atoms: C_33  and  C_43
REMARK                            x       y       z     vdW  Elec       q    Type
REMARK                         _______ _______ _______ _____ _____    ______ ____
ROOT
ATOM      1  C   LIG A   1      -9.972   1.443 124.745  0.00  0.00    +0.044 C 
ATOM      2  C   LIG A   1      -8.737   1.415 125.591  0.00  0.00    +0.097 C 
ATOM      3  C   LIG A   1      -7.479   0.825 124.976  0.00  0.00    +0.026 C 
ATOM      4  C   LIG A   1      -6.630   0.144 126.064  0.00  0.00    +0.034 C 
ATOM      5  C   LIG A   1      -5.289  -0.508 125.719  0.00  0.00    +0.082 C 
ATOM      6  N   LIG A   1      -4.801  -0.794 127.049  0.00  0.00    -0.311 N 
ATOM      7  H   LIG A   1      -4.050  -1.434 127.275  0.00  0.00    +0.149 HD
ATOM      8  C   LIG A   1      -6.395   0.933 127.407  0.00  0.00    +0.100 C 
ATOM      9  C   LIG A   1      -5.421  -0.060 128.050  0.00  0.00    +0.224 C 
ATOM     10  O   LIG A   1      -5.152  -0.215 129.235  0.00  0.00    -0.275 OA
ATOM     11  C   LIG A   1      -5.659   2.345 127.335  0.00  0.00    +0.224 C 
ATOM     12  C   LIG A   1      -5.275   3.051 128.654  0.00  0.00    +0.192 C 
ATOM     13  C   LIG A   1      -6.123   3.813 129.754  0.00  0.00    +0.190 C 
ATOM     14  C   LIG A   1      -7.594   4.165 129.750  0.00  0.00    +0.149 C 
ATOM     15  C   LIG A   1      -8.669   3.141 130.226  0.00  0.00    +0.170 C 
ATOM     16  C   LIG A   1      -8.478   2.280 131.479  0.00  0.00    +0.059 C 
ATOM     17  C   LIG A   1      -7.834   0.892 131.270  0.00  0.00    +0.037 C 
ATOM     18  C   LIG A   1      -8.398  -0.092 130.271  0.00  0.00    -0.030 C 
ATOM     19  C   LIG A   1      -8.295  -0.079 128.928  0.00  0.00    -0.024 C 
ATOM     20  C   LIG A   1      -7.781   1.064 128.075  0.00  0.00    +0.062 C 
ATOM     21  C   LIG A   1      -8.870   1.504 127.104  0.00  0.00    +0.159 C 
ATOM     22  O   LIG A   1      -8.535   2.644 126.306  0.00  0.00    -0.364 OA
ATOM     23  C   LIG A   1      -9.838   2.116 132.178  0.00  0.00    +0.016 C 
ATOM     24  O   LIG A   1      -9.741   3.096 129.598  0.00  0.00    -0.294 OA
ATOM     25  C   LIG A   1      -7.842   5.411 130.624  0.00  0.00    +0.052 C 
ATOM     26  O   LIG A   1      -5.747   2.452 129.855  0.00  0.00    -0.361 OA
ATOM     27  C   LIG A   1      -6.792   1.818 124.047  0.00  0.00    +0.011 C 
ENDROOT
BRANCH  14  28
ATOM     28  O   LIG A   1      -7.898   4.589 128.416  0.00  0.00    -0.379 OA
ATOM     29  H   LIG A   1      -8.721   4.124 128.152  0.00  0.00    +0.211 HD
ENDBRANCH  14  28
BRANCH   5  30
ATOM     30  C   LIG A   1      -5.422  -1.775 124.851  0.00  0.00    +0.057 C 
BRANCH  30  31
ATOM     31  C   LIG A   1      -6.835  -2.316 124.761  0.00  0.00    -0.046 A 
ATOM     32  C   LIG A   1      -7.499  -2.389 123.526  0.00  0.00    +0.003 A 
ATOM     33  C   LIG A   1      -8.799  -2.895 123.444  0.00  0.00    +0.000 A 
ATOM     34  C   LIG A   1      -9.451  -3.336 124.593  0.00  0.00    +0.000 A 
ATOM     35  C   LIG A   1      -8.803  -3.272 125.825  0.00  0.00    +0.000 A 
ATOM     36  C   LIG A   1      -7.503  -2.766 125.909  0.00  0.00    +0.003 A 
ENDBRANCH  30  31
ENDBRANCH   5  30
BRANCH  11  37
ATOM     37  O   LIG A   1      -4.388   2.133 126.630  0.00  0.00    -0.458 OA
BRANCH  37  38
ATOM     38  C   LIG A   1      -3.671   3.191 126.173  0.00  0.00    +0.304 C 
ATOM     39  C   LIG A   1      -2.235   3.067 126.600  0.00  0.00    +0.136 C 
ATOM     40  O   LIG A   1      -4.100   4.107 125.496  0.00  0.00    -0.251 OA
ENDBRANCH  37  38
ENDBRANCH  11  37
TORSDOF 5
ENDMDL
MODEL 2
REMARK VINA RESULT:      -9.2      3.915      7.264
REMARK  Name = NuBBE_612
REMARK  10 active torsions:
REMARK  status: ('A' for Active; 'I' for Inactive)
REMARK    1  A    between atoms: C_1  and  C_2
REMARK    2  A    between atoms: C_3  and  C_48
REMARK    3  A    between atoms: C_6  and  C_10
REMARK    4  A    between atoms: C_10  and  C_11
REMARK    5  A    between atoms: C_20  and  O_22
REMARK    6  A    between atoms: O_22  and  C_23
REMARK    7  A    between atoms: C_23  and  C_24
REMARK    8  A    between atoms: C_30  and  O_31
REMARK    9  A    between atoms: C_30  and  C_45
REMARK   10  A    between atoms: C_33  and  C_43
REMARK                            x       y       z     vdW  Elec       q    Type
REMARK                         _______ _______ _______ _____ _____    ______ ____
ROOT
ATOM      1  C   LIG A   1      -6.479   4.741 134.958  0.00  0.00    +0.044 C 
ATOM      2  C   LIG A   1      -6.710   4.385 133.522  0.00  0.00    +0.097 C 
ATOM      3  C   LIG A   1      -7.161   5.495 132.589  0.00  0.00    +0.026 C 
ATOM      4  C   LIG A   1      -8.079   4.923 131.494  0.00  0.00    +0.034 C 
ATOM      5  C   LIG A   1      -8.652   5.826 130.399  0.00  0.00    +0.082 C 
ATOM      6  N   LIG A   1      -9.235   4.827 129.532  0.00  0.00    -0.311 N 
ATOM      7  H   LIG A   1      -9.919   5.005 128.806  0.00  0.00    +0.149 HD
ATOM      8  C   LIG A   1      -7.615   3.605 130.768  0.00  0.00    +0.100 C 
ATOM      9  C   LIG A   1      -8.739   3.547 129.727  0.00  0.00    +0.224 C 
ATOM     10  O   LIG A   1      -9.158   2.581 129.102  0.00  0.00    -0.275 OA
ATOM     11  C   LIG A   1      -6.231   3.624 129.976  0.00  0.00    +0.224 C 
ATOM     12  C   LIG A   1      -5.845   2.395 129.125  0.00  0.00    +0.192 C 
ATOM     13  C   LIG A   1      -5.340   0.941 129.500  0.00  0.00    +0.190 C 
ATOM     14  C   LIG A   1      -4.978   0.377 130.856  0.00  0.00    +0.149 C 
ATOM     15  C   LIG A   1      -6.071  -0.208 131.802  0.00  0.00    +0.170 C 
ATOM     16  C   LIG A   1      -7.193  -1.117 131.290  0.00  0.00    +0.059 C 
ATOM     17  C   LIG A   1      -8.506  -0.420 130.871  0.00  0.00    +0.037 C 
ATOM     18  C   LIG A   1      -9.234   0.513 131.812  0.00  0.00    -0.030 C 
ATOM     19  C   LIG A   1      -8.921   1.779 132.150  0.00  0.00    -0.024 C 
ATOM     20  C   LIG A   1      -7.621   2.497 131.845  0.00  0.00    +0.062 C 
ATOM     21  C   LIG A   1      -6.961   2.932 133.148  0.00  0.00    +0.159 C 
ATOM     22  O   LIG A   1      -5.676   3.541 132.994  0.00  0.00    -0.364 OA
ATOM     23  C   LIG A   1      -7.494  -2.182 132.358  0.00  0.00    +0.016 C 
ATOM     24  O   LIG A   1      -5.961   0.018 133.020  0.00  0.00    -0.294 OA
ATOM     25  C   LIG A   1      -3.958  -0.768 130.698  0.00  0.00    +0.052 C 
ATOM     26  O   LIG A   1      -6.692   1.258 129.231  0.00  0.00    -0.361 OA
ATOM     27  C   LIG A   1      -5.993   6.373 132.158  0.00  0.00    +0.011 C 
ENDROOT
BRANCH  14  28
ATOM     28  O   LIG A   1      -4.262   1.413 131.540  0.00  0.00    -0.379 OA
ATOM     29  H   LIG A   1      -4.234   2.185 130.935  0.00  0.00    +0.211 HD
ENDBRANCH  14  28
BRANCH   5  30
ATOM     30  C   LIG A   1      -9.690   6.842 130.916  0.00  0.00    +0.057 C 
BRANCH  30  31
ATOM     31  C   LIG A   1     -10.726   7.245 129.885  0.00  0.00    -0.046 A 
ATOM     32  C   LIG A   1     -10.362   7.994 128.756  0.00  0.00    +0.003 A 
ATOM     33  C   LIG A   1     -11.317   8.359 127.803  0.00  0.00    +0.000 A 
ATOM     34  C   LIG A   1     -12.646   7.977 127.964  0.00  0.00    +0.000 A 
ATOM     35  C   LIG A   1     -13.021   7.228 129.079  0.00  0.00    +0.000 A 
ATOM     36  C   LIG A   1     -12.067   6.864 130.034  0.00  0.00    +0.003 A 
ENDBRANCH  30  31
ENDBRANCH   5  30
BRANCH  11  37
ATOM     37  O   LIG A   1      -6.294   4.744 129.027  0.00  0.00    -0.458 OA
BRANCH  37  38
ATOM     38  C   LIG A   1      -5.198   5.100 128.312  0.00  0.00    +0.304 C 
ATOM     39  C   LIG A   1      -4.044   5.379 129.235  0.00  0.00    +0.136 C 
ATOM     40  O   LIG A   1      -5.126   5.169 127.099  0.00  0.00    -0.251 OA
ENDBRANCH  37  38
ENDBRANCH  11  37
TORSDOF 5
ENDMDL
MODEL 3
REMARK VINA RESULT:      -8.9      2.625      4.217
REMARK  Name = NuBBE_612
REMARK  10 active torsions:
REMARK  status: ('A' for Active; 'I' for Inactive)
REMARK    1  A    between atoms: C_1  and  C_2
REMARK    2  A    between atoms: C_3  and  C_48
REMARK    3  A    between atoms: C_6  and  C_10
REMARK    4  A    between atoms: C_10  and  C_11
REMARK    5  A    between atoms: C_20  and  O_22
REMARK    6  A    between atoms: O_22  and  C_23
REMARK    7  A    between atoms: C_23  and  C_24
REMARK    8  A    between atoms: C_30  and  O_31
REMARK    9  A    between atoms: C_30  and  C_45
REMARK   10  A    between atoms: C_33  and  C_43
REMARK                            x       y       z     vdW  Elec       q    Type
REMARK                         _______ _______ _______ _____ _____    ______ ____
ROOT
ATOM      1  C   LIG A   1     -10.266   3.407 130.509  0.00  0.00    +0.044 C 
ATOM      2  C   LIG A   1      -8.815   3.051 130.407  0.00  0.00    +0.097 C 
ATOM      3  C   LIG A   1      -8.461   1.745 129.716  0.00  0.00    +0.026 C 
ATOM      4  C   LIG A   1      -7.195   1.140 130.349  0.00  0.00    +0.034 C 
ATOM      5  C   LIG A   1      -6.600  -0.166 129.819  0.00  0.00    +0.082 C 
ATOM      6  N   LIG A   1      -5.359  -0.193 130.559  0.00  0.00    -0.311 N 
ATOM      7  H   LIG A   1      -4.766  -1.005 130.684  0.00  0.00    +0.149 HD
ATOM      8  C   LIG A   1      -5.973   2.102 130.599  0.00  0.00    +0.100 C 
ATOM      9  C   LIG A   1      -4.979   1.037 131.074  0.00  0.00    +0.224 C 
ATOM     10  O   LIG A   1      -3.974   1.176 131.760  0.00  0.00    -0.275 OA
ATOM     11  C   LIG A   1      -5.322   2.838 129.344  0.00  0.00    +0.224 C 
ATOM     12  C   LIG A   1      -4.025   3.651 129.550  0.00  0.00    +0.192 C 
ATOM     13  C   LIG A   1      -3.729   5.052 130.228  0.00  0.00    +0.190 C 
ATOM     14  C   LIG A   1      -4.702   6.067 130.785  0.00  0.00    +0.149 C 
ATOM     15  C   LIG A   1      -5.248   5.946 132.240  0.00  0.00    +0.170 C 
ATOM     16  C   LIG A   1      -4.346   5.582 133.424  0.00  0.00    +0.059 C 
ATOM     17  C   LIG A   1      -4.237   4.082 133.772  0.00  0.00    +0.037 C 
ATOM     18  C   LIG A   1      -5.470   3.243 134.022  0.00  0.00    -0.030 C 
ATOM     19  C   LIG A   1      -6.349   2.753 133.126  0.00  0.00    -0.024 C 
ATOM     20  C   LIG A   1      -6.442   3.124 131.659  0.00  0.00    +0.062 C 
ATOM     21  C   LIG A   1      -7.824   3.695 131.364  0.00  0.00    +0.159 C 
ATOM     22  O   LIG A   1      -8.002   4.170 130.026  0.00  0.00    -0.364 OA
ATOM     23  C   LIG A   1      -4.815   6.365 134.662  0.00  0.00    +0.016 C 
ATOM     24  O   LIG A   1      -6.442   6.236 132.434  0.00  0.00    -0.294 OA
ATOM     25  C   LIG A   1      -4.084   7.479 130.727  0.00  0.00    +0.052 C 
ATOM     26  O   LIG A   1      -3.583   3.811 130.892  0.00  0.00    -0.361 OA
ATOM     27  C   LIG A   1      -8.509   1.884 128.200  0.00  0.00    +0.011 C 
ENDROOT
BRANCH  14  28
ATOM     28  O   LIG A   1      -5.800   6.111 129.866  0.00  0.00    -0.379 OA
ATOM     29  H   LIG A   1      -5.646   5.402 129.206  0.00  0.00    +0.211 HD
ENDBRANCH  14  28
BRANCH   5  30
ATOM     30  C   LIG A   1      -7.480  -1.402 130.092  0.00  0.00    +0.057 C 
BRANCH  30  31
ATOM     31  C   LIG A   1      -7.921  -2.134 128.839  0.00  0.00    -0.046 A 
ATOM     32  C   LIG A   1      -8.539  -3.392 128.923  0.00  0.00    +0.003 A 
ATOM     33  C   LIG A   1      -8.952  -4.062 127.768  0.00  0.00    +0.000 A 
ATOM     34  C   LIG A   1      -8.756  -3.484 126.517  0.00  0.00    +0.000 A 
ATOM     35  C   LIG A   1      -8.148  -2.233 126.420  0.00  0.00    +0.000 A 
ATOM     36  C   LIG A   1      -7.733  -1.562 127.574  0.00  0.00    +0.003 A 
ENDBRANCH  30  31
ENDBRANCH   5  30
BRANCH  11  37
ATOM     37  O   LIG A   1      -4.971   1.798 128.369  0.00  0.00    -0.458 OA
BRANCH  37  38
ATOM     38  C   LIG A   1      -5.151   2.013 127.041  0.00  0.00    +0.304 C 
ATOM     39  C   LIG A   1      -5.165   0.704 126.301  0.00  0.00    +0.136 C 
ATOM     40  O   LIG A   1      -5.303   3.095 126.506  0.00  0.00    -0.251 OA
ENDBRANCH  37  38
ENDBRANCH  11  37
TORSDOF 5
ENDMDL
MODEL 4
REMARK VINA RESULT:      -8.7      4.233      6.170
REMARK  Name = NuBBE_612
REMARK  10 active torsions:
REMARK  status: ('A' for Active; 'I' for Inactive)
REMARK    1  A    between atoms: C_1  and  C_2
REMARK    2  A    between atoms: C_3  and  C_48
REMARK    3  A    between atoms: C_6  and  C_10
REMARK    4  A    between atoms: C_10  and  C_11
REMARK    5  A    between atoms: C_20  and  O_22
REMARK    6  A    between atoms: O_22  and  C_23
REMARK    7  A    between atoms: C_23  and  C_24
REMARK    8  A    between atoms: C_30  and  O_31
REMARK    9  A    between atoms: C_30  and  C_45
REMARK   10  A    between atoms: C_33  and  C_43
REMARK                            x       y       z     vdW  Elec       q    Type
REMARK                         _______ _______ _______ _____ _____    ______ ____
ROOT
ATOM      1  C   LIG A   1      -9.199   0.882 131.820  0.00  0.00    +0.044 C 
ATOM      2  C   LIG A   1      -8.151  -0.179 131.686  0.00  0.00    +0.097 C 
ATOM      3  C   LIG A   1      -7.939  -0.784 130.310  0.00  0.00    +0.026 C 
ATOM      4  C   LIG A   1      -7.517  -2.258 130.441  0.00  0.00    +0.034 C 
ATOM      5  C   LIG A   1      -7.209  -3.101 129.201  0.00  0.00    +0.082 C 
ATOM      6  N   LIG A   1      -6.672  -4.285 129.832  0.00  0.00    -0.311 N 
ATOM      7  H   LIG A   1      -6.557  -5.188 129.387  0.00  0.00    +0.149 HD
ATOM      8  C   LIG A   1      -6.395  -2.606 131.490  0.00  0.00    +0.100 C 
ATOM      9  C   LIG A   1      -6.249  -4.090 131.138  0.00  0.00    +0.224 C 
ATOM     10  O   LIG A   1      -5.808  -5.003 131.825  0.00  0.00    -0.275 OA
ATOM     11  C   LIG A   1      -4.961  -1.930 131.315  0.00  0.00    +0.224 C 
ATOM     12  C   LIG A   1      -3.807  -2.386 132.234  0.00  0.00    +0.192 C 
ATOM     13  C   LIG A   1      -3.482  -2.128 133.762  0.00  0.00    +0.190 C 
ATOM     14  C   LIG A   1      -4.192  -1.229 134.750  0.00  0.00    +0.149 C 
ATOM     15  C   LIG A   1      -5.449  -1.724 135.530  0.00  0.00    +0.170 C 
ATOM     16  C   LIG A   1      -5.527  -3.123 136.151  0.00  0.00    +0.059 C 
ATOM     17  C   LIG A   1      -6.137  -4.234 135.269  0.00  0.00    +0.037 C 
ATOM     18  C   LIG A   1      -7.500  -4.073 134.636  0.00  0.00    -0.030 C 
ATOM     19  C   LIG A   1      -7.848  -3.330 133.567  0.00  0.00    -0.024 C 
ATOM     20  C   LIG A   1      -6.991  -2.285 132.879  0.00  0.00    +0.062 C 
ATOM     21  C   LIG A   1      -7.698  -0.936 132.925  0.00  0.00    +0.159 C 
ATOM     22  O   LIG A   1      -6.943   0.154 132.387  0.00  0.00    -0.364 OA
ATOM     23  C   LIG A   1      -6.301  -3.033 137.476  0.00  0.00    +0.016 C 
ATOM     24  O   LIG A   1      -6.373  -0.911 135.710  0.00  0.00    -0.294 OA
ATOM     25  C   LIG A   1      -3.214  -0.777 135.853  0.00  0.00    +0.052 C 
ATOM     26  O   LIG A   1      -4.149  -3.281 133.286  0.00  0.00    -0.361 OA
ATOM     27  C   LIG A   1      -7.099   0.125 129.422  0.00  0.00    +0.011 C 
ENDROOT
BRANCH  14  28
ATOM     28  O   LIG A   1      -4.516  -0.030 134.036  0.00  0.00    -0.379 OA
ATOM     29  H   LIG A   1      -4.778   0.637 134.706  0.00  0.00    +0.211 HD
ENDBRANCH  14  28
BRANCH   5  30
ATOM     30  C   LIG A   1      -8.447  -3.401 128.334  0.00  0.00    +0.057 C 
BRANCH  30  31
ATOM     31  C   LIG A   1      -8.273  -3.055 126.868  0.00  0.00    -0.046 A 
ATOM     32  C   LIG A   1      -9.304  -3.292 125.946  0.00  0.00    +0.003 A 
ATOM     33  C   LIG A   1      -9.145  -2.967 124.597  0.00  0.00    +0.000 A 
ATOM     34  C   LIG A   1      -7.954  -2.397 124.152  0.00  0.00    +0.000 A 
ATOM     35  C   LIG A   1      -6.923  -2.152 125.057  0.00  0.00    +0.000 A 
ATOM     36  C   LIG A   1      -7.081  -2.479 126.407  0.00  0.00    +0.003 A 
ENDBRANCH  30  31
ENDBRANCH   5  30
BRANCH  11  37
ATOM     37  O   LIG A   1      -4.507  -2.232 129.951  0.00  0.00    -0.458 OA
BRANCH  37  38
ATOM     38  C   LIG A   1      -3.224  -2.606 129.721  0.00  0.00    +0.304 C 
ATOM     39  C   LIG A   1      -3.189  -3.926 129.002  0.00  0.00    +0.136 C 
ATOM     40  O   LIG A   1      -2.229  -1.973 130.023  0.00  0.00    -0.251 OA
ENDBRANCH  37  38
ENDBRANCH  11  37
TORSDOF 5
ENDMDL
MODEL 5
REMARK VINA RESULT:      -8.6      3.173      7.523
REMARK  Name = NuBBE_612
REMARK  10 active torsions:
REMARK  status: ('A' for Active; 'I' for Inactive)
REMARK    1  A    between atoms: C_1  and  C_2
REMARK    2  A    between atoms: C_3  and  C_48
REMARK    3  A    between atoms: C_6  and  C_10
REMARK    4  A    between atoms: C_10  and  C_11
REMARK    5  A    between atoms: C_20  and  O_22
REMARK    6  A    between atoms: O_22  and  C_23
REMARK    7  A    between atoms: C_23  and  C_24
REMARK    8  A    between atoms: C_30  and  O_31
REMARK    9  A    between atoms: C_30  and  C_45
REMARK   10  A    between atoms: C_33  and  C_43
REMARK                            x       y       z     vdW  Elec       q    Type
REMARK                         _______ _______ _______ _____ _____    ______ ____
ROOT
ATOM      1  C   LIG A   1      -2.299   3.583 127.213  0.00  0.00    +0.044 C 
ATOM      2  C   LIG A   1      -3.438   3.322 128.150  0.00  0.00    +0.097 C 
ATOM      3  C   LIG A   1      -3.443   4.070 129.472  0.00  0.00    +0.026 C 
ATOM      4  C   LIG A   1      -4.090   3.203 130.566  0.00  0.00    +0.034 C 
ATOM      5  C   LIG A   1      -4.251   3.730 131.994  0.00  0.00    +0.082 C 
ATOM      6  N   LIG A   1      -5.072   2.683 132.556  0.00  0.00    -0.311 N 
ATOM      7  H   LIG A   1      -5.219   2.517 133.544  0.00  0.00    +0.149 HD
ATOM      8  C   LIG A   1      -5.444   2.479 130.218  0.00  0.00    +0.100 C 
ATOM      9  C   LIG A   1      -5.725   1.905 131.611  0.00  0.00    +0.224 C 
ATOM     10  O   LIG A   1      -6.426   0.951 131.922  0.00  0.00    -0.275 OA
ATOM     11  C   LIG A   1      -6.698   3.375 129.809  0.00  0.00    +0.224 C 
ATOM     12  C   LIG A   1      -8.071   2.694 129.626  0.00  0.00    +0.192 C 
ATOM     13  C   LIG A   1      -8.667   1.760 128.493  0.00  0.00    +0.190 C 
ATOM     14  C   LIG A   1      -8.057   1.356 127.170  0.00  0.00    +0.149 C 
ATOM     15  C   LIG A   1      -7.075   0.149 127.070  0.00  0.00    +0.170 C 
ATOM     16  C   LIG A   1      -7.330  -1.174 127.800  0.00  0.00    +0.059 C 
ATOM     17  C   LIG A   1      -6.715  -1.312 129.209  0.00  0.00    +0.037 C 
ATOM     18  C   LIG A   1      -5.241  -1.077 129.449  0.00  0.00    -0.030 C 
ATOM     19  C   LIG A   1      -4.575   0.094 129.507  0.00  0.00    -0.024 C 
ATOM     20  C   LIG A   1      -5.110   1.455 129.110  0.00  0.00    +0.062 C 
ATOM     21  C   LIG A   1      -4.242   2.040 128.002  0.00  0.00    +0.159 C 
ATOM     22  O   LIG A   1      -4.704   3.288 127.476  0.00  0.00    -0.364 OA
ATOM     23  C   LIG A   1      -6.844  -2.330 126.910  0.00  0.00    +0.016 C 
ATOM     24  O   LIG A   1      -6.101   0.260 126.303  0.00  0.00    -0.294 OA
ATOM     25  C   LIG A   1      -9.168   1.028 126.153  0.00  0.00    +0.052 C 
ATOM     26  O   LIG A   1      -8.088   1.273 129.689  0.00  0.00    -0.361 OA
ATOM     27  C   LIG A   1      -3.940   5.500 129.304  0.00  0.00    +0.011 C 
ENDROOT
BRANCH  14  28
ATOM     28  O   LIG A   1      -7.422   2.531 126.650  0.00  0.00    -0.379 OA
ATOM     29  H   LIG A   1      -6.722   2.226 126.035  0.00  0.00    +0.211 HD
ENDBRANCH  14  28
BRANCH   5  30
ATOM     30  C   LIG A   1      -2.915   3.904 132.743  0.00  0.00    +0.057 C 
BRANCH  30  31
ATOM     31  C   LIG A   1      -2.373   5.319 132.720  0.00  0.00    -0.046 A 
ATOM     32  C   LIG A   1      -1.016   5.565 132.457  0.00  0.00    +0.003 A 
ATOM     33  C   LIG A   1      -0.519   6.870 132.429  0.00  0.00    +0.000 A 
ATOM     34  C   LIG A   1      -1.371   7.947 132.659  0.00  0.00    +0.000 A 
ATOM     35  C   LIG A   1      -2.722   7.718 132.917  0.00  0.00    +0.000 A 
ATOM     36  C   LIG A   1      -3.220   6.412 132.947  0.00  0.00    +0.003 A 
ENDBRANCH  30  31
ENDBRANCH   5  30
BRANCH  11  37
ATOM     37  O   LIG A   1      -6.896   4.355 130.885  0.00  0.00    -0.458 OA
BRANCH  37  38
ATOM     38  C   LIG A   1      -7.321   5.611 130.600  0.00  0.00    +0.304 C 
ATOM     39  C   LIG A   1      -6.696   6.597 131.548  0.00  0.00    +0.136 C 
ATOM     40  O   LIG A   1      -8.078   5.923 129.700  0.00  0.00    -0.251 OA
ENDBRANCH  37  38
ENDBRANCH  11  37
TORSDOF 5
ENDMDL
MODEL 6
REMARK VINA RESULT:      -8.6      1.799      2.312
REMARK  Name = NuBBE_612
REMARK  10 active torsions:
REMARK  status: ('A' for Active; 'I' for Inactive)
REMARK    1  A    between atoms: C_1  and  C_2
REMARK    2  A    between atoms: C_3  and  C_48
REMARK    3  A    between atoms: C_6  and  C_10
REMARK    4  A    between atoms: C_10  and  C_11
REMARK    5  A    between atoms: C_20  and  O_22
REMARK    6  A    between atoms: O_22  and  C_23
REMARK    7  A    between atoms: C_23  and  C_24
REMARK    8  A    between atoms: C_30  and  O_31
REMARK    9  A    between atoms: C_30  and  C_45
REMARK   10  A    between atoms: C_33  and  C_43
REMARK                            x       y       z     vdW  Elec       q    Type
REMARK                         _______ _______ _______ _____ _____    ______ ____
ROOT
ATOM      1  C   LIG A   1      -8.441   4.808 126.054  0.00  0.00    +0.044 C 
ATOM      2  C   LIG A   1      -7.444   4.076 126.897  0.00  0.00    +0.097 C 
ATOM      3  C   LIG A   1      -6.407   3.229 126.178  0.00  0.00    +0.026 C 
ATOM      4  C   LIG A   1      -6.037   2.007 127.038  0.00  0.00    +0.034 C 
ATOM      5  C   LIG A   1      -4.988   1.000 126.561  0.00  0.00    +0.082 C 
ATOM      6  N   LIG A   1      -4.845   0.203 127.758  0.00  0.00    -0.311 N 
ATOM      7  H   LIG A   1      -4.420  -0.715 127.806  0.00  0.00    +0.149 HD
ATOM      8  C   LIG A   1      -5.739   2.251 128.564  0.00  0.00    +0.100 C 
ATOM      9  C   LIG A   1      -5.301   0.824 128.911  0.00  0.00    +0.224 C 
ATOM     10  O   LIG A   1      -5.290   0.267 130.001  0.00  0.00    -0.275 OA
ATOM     11  C   LIG A   1      -4.540   3.227 128.954  0.00  0.00    +0.224 C 
ATOM     12  C   LIG A   1      -4.132   3.347 130.438  0.00  0.00    +0.192 C 
ATOM     13  C   LIG A   1      -4.803   4.056 131.686  0.00  0.00    +0.190 C 
ATOM     14  C   LIG A   1      -6.028   4.942 131.735  0.00  0.00    +0.149 C 
ATOM     15  C   LIG A   1      -7.460   4.333 131.836  0.00  0.00    +0.170 C 
ATOM     16  C   LIG A   1      -7.786   3.166 132.774  0.00  0.00    +0.059 C 
ATOM     17  C   LIG A   1      -7.664   1.748 132.176  0.00  0.00    +0.037 C 
ATOM     18  C   LIG A   1      -8.388   1.367 130.904  0.00  0.00    -0.030 C 
ATOM     19  C   LIG A   1      -8.085   1.697 129.633  0.00  0.00    -0.024 C 
ATOM     20  C   LIG A   1      -7.069   2.731 129.189  0.00  0.00    +0.062 C 
ATOM     21  C   LIG A   1      -7.763   3.803 128.358  0.00  0.00    +0.159 C 
ATOM     22  O   LIG A   1      -6.922   4.889 127.958  0.00  0.00    -0.364 OA
ATOM     23  C   LIG A   1      -9.203   3.367 133.338  0.00  0.00    +0.016 C 
ATOM     24  O   LIG A   1      -8.367   4.880 131.184  0.00  0.00    -0.294 OA
ATOM     25  C   LIG A   1      -5.938   5.904 132.937  0.00  0.00    +0.052 C 
ATOM     26  O   LIG A   1      -4.965   2.684 131.381  0.00  0.00    -0.361 OA
ATOM     27  C   LIG A   1      -5.275   4.082 125.622  0.00  0.00    +0.011 C 
ENDROOT
BRANCH  14  28
ATOM     28  O   LIG A   1      -5.952   5.791 130.582  0.00  0.00    -0.379 OA
ATOM     29  H   LIG A   1      -6.873   5.944 130.282  0.00  0.00    +0.211 HD
ENDBRANCH  14  28
BRANCH   5  30
ATOM     30  C   LIG A   1      -5.437   0.168 125.344  0.00  0.00    +0.057 C 
BRANCH  30  31
ATOM     31  C   LIG A   1      -6.681  -0.663 125.590  0.00  0.00    -0.046 A 
ATOM     32  C   LIG A   1      -7.959  -0.094 125.479  0.00  0.00    +0.003 A 
ATOM     33  C   LIG A   1      -9.105  -0.863 125.699  0.00  0.00    +0.000 A 
ATOM     34  C   LIG A   1      -8.989  -2.210 126.029  0.00  0.00    +0.000 A 
ATOM     35  C   LIG A   1      -7.726  -2.790 126.138  0.00  0.00    +0.000 A 
ATOM     36  C   LIG A   1      -6.579  -2.022 125.920  0.00  0.00    +0.003 A 
ENDBRANCH  30  31
ENDBRANCH   5  30
BRANCH  11  37
ATOM     37  O   LIG A   1      -3.342   2.732 128.265  0.00  0.00    -0.458 OA
BRANCH  37  38
ATOM     38  C   LIG A   1      -2.493   3.598 127.656  0.00  0.00    +0.304 C 
ATOM     39  C   LIG A   1      -1.672   2.879 126.622  0.00  0.00    +0.136 C 
ATOM     40  O   LIG A   1      -2.407   4.792 127.879  0.00  0.00    -0.251 OA
ENDBRANCH  37  38
ENDBRANCH  11  37
TORSDOF 5
ENDMDL
MODEL 7
REMARK VINA RESULT:      -8.6      4.165      9.300
REMARK  Name = NuBBE_612
REMARK  10 active torsions:
REMARK  status: ('A' for Active; 'I' for Inactive)
REMARK    1  A    between atoms: C_1  and  C_2
REMARK    2  A    between atoms: C_3  and  C_48
REMARK    3  A    between atoms: C_6  and  C_10
REMARK    4  A    between atoms: C_10  and  C_11
REMARK    5  A    between atoms: C_20  and  O_22
REMARK    6  A    between atoms: O_22  and  C_23
REMARK    7  A    between atoms: C_23  and  C_24
REMARK    8  A    between atoms: C_30  and  O_31
REMARK    9  A    between atoms: C_30  and  C_45
REMARK   10  A    between atoms: C_33  and  C_43
REMARK                            x       y       z     vdW  Elec       q    Type
REMARK                         _______ _______ _______ _____ _____    ______ ____
ROOT
ATOM      1  C   LIG A   1      -2.844   3.632 132.865  0.00  0.00    +0.044 C 
ATOM      2  C   LIG A   1      -4.329   3.756 132.719  0.00  0.00    +0.097 C 
ATOM      3  C   LIG A   1      -5.033   4.795 133.575  0.00  0.00    +0.026 C 
ATOM      4  C   LIG A   1      -6.448   4.310 133.937  0.00  0.00    +0.034 C 
ATOM      5  C   LIG A   1      -7.388   5.183 134.771  0.00  0.00    +0.082 C 
ATOM      6  N   LIG A   1      -8.608   4.418 134.653  0.00  0.00    -0.311 N 
ATOM      7  H   LIG A   1      -9.424   4.518 135.246  0.00  0.00    +0.149 HD
ATOM      8  C   LIG A   1      -7.331   3.706 132.781  0.00  0.00    +0.100 C 
ATOM      9  C   LIG A   1      -8.620   3.528 133.590  0.00  0.00    +0.224 C 
ATOM     10  O   LIG A   1      -9.563   2.777 133.377  0.00  0.00    -0.275 OA
ATOM     11  C   LIG A   1      -7.676   4.633 131.530  0.00  0.00    +0.224 C 
ATOM     12  C   LIG A   1      -8.673   4.113 130.472  0.00  0.00    +0.192 C 
ATOM     13  C   LIG A   1      -8.559   3.019 129.332  0.00  0.00    +0.190 C 
ATOM     14  C   LIG A   1      -7.349   2.232 128.882  0.00  0.00    +0.149 C 
ATOM     15  C   LIG A   1      -6.926   0.919 129.609  0.00  0.00    +0.170 C 
ATOM     16  C   LIG A   1      -7.944  -0.144 130.034  0.00  0.00    +0.059 C 
ATOM     17  C   LIG A   1      -8.516  -0.016 131.463  0.00  0.00    +0.037 C 
ATOM     18  C   LIG A   1      -7.607   0.076 132.667  0.00  0.00    -0.030 C 
ATOM     19  C   LIG A   1      -6.881   1.128 133.094  0.00  0.00    -0.024 C 
ATOM     20  C   LIG A   1      -6.619   2.411 132.330  0.00  0.00    +0.062 C 
ATOM     21  C   LIG A   1      -5.119   2.592 132.139  0.00  0.00    +0.159 C 
ATOM     22  O   LIG A   1      -4.749   3.726 131.347  0.00  0.00    -0.364 OA
ATOM     23  C   LIG A   1      -7.312  -1.534 129.854  0.00  0.00    +0.016 C 
ATOM     24  O   LIG A   1      -5.709   0.713 129.766  0.00  0.00    -0.294 OA
ATOM     25  C   LIG A   1      -7.507   1.816 127.406  0.00  0.00    +0.052 C 
ATOM     26  O   LIG A   1      -9.102   2.764 130.614  0.00  0.00    -0.361 OA
ATOM     27  C   LIG A   1      -4.883   6.194 132.992  0.00  0.00    +0.011 C 
ENDROOT
BRANCH  14  28
ATOM     28  O   LIG A   1      -6.251   3.153 128.886  0.00  0.00    -0.379 OA
ATOM     29  H   LIG A   1      -5.444   2.633 128.684  0.00  0.00    +0.211 HD
ENDBRANCH  14  28
BRANCH   5  30
ATOM     30  C   LIG A   1      -6.935   5.356 136.234  0.00  0.00    +0.057 C 
BRANCH  30  31
ATOM     31  C   LIG A   1      -7.142   6.754 136.783  0.00  0.00    -0.046 A 
ATOM     32  C   LIG A   1      -8.435   7.252 137.011  0.00  0.00    +0.003 A 
ATOM     33  C   LIG A   1      -8.624   8.538 137.523  0.00  0.00    +0.000 A 
ATOM     34  C   LIG A   1      -7.525   9.341 137.819  0.00  0.00    +0.000 A 
ATOM     35  C   LIG A   1      -6.236   8.858 137.602  0.00  0.00    +0.000 A 
ATOM     36  C   LIG A   1      -6.045   7.572 137.088  0.00  0.00    +0.003 A 
ENDBRANCH  30  31
ENDBRANCH   5  30
BRANCH  11  37
ATOM     37  O   LIG A   1      -8.284   5.861 132.060  0.00  0.00    -0.458 OA
BRANCH  37  38
ATOM     38  C   LIG A   1      -9.078   6.629 131.272  0.00  0.00    +0.304 C 
ATOM     39  C   LIG A   1     -10.519   6.457 131.664  0.00  0.00    +0.136 C 
ATOM     40  O   LIG A   1      -8.701   7.373 130.385  0.00  0.00    -0.251 OA
ENDBRANCH  37  38
ENDBRANCH  11  37
TORSDOF 5
ENDMDL
MODEL 8
REMARK VINA RESULT:      -8.6      2.190      7.022
REMARK  Name = NuBBE_612
REMARK  10 active torsions:
REMARK  status: ('A' for Active; 'I' for Inactive)
REMARK    1  A    between atoms: C_1  and  C_2
REMARK    2  A    between atoms: C_3  and  C_48
REMARK    3  A    between atoms: C_6  and  C_10
REMARK    4  A    between atoms: C_10  and  C_11
REMARK    5  A    between atoms: C_20  and  O_22
REMARK    6  A    between atoms: O_22  and  C_23
REMARK    7  A    between atoms: C_23  and  C_24
REMARK    8  A    between atoms: C_30  and  O_31
REMARK    9  A    between atoms: C_30  and  C_45
REMARK   10  A    between atoms: C_33  and  C_43
REMARK                            x       y       z     vdW  Elec       q    Type
REMARK                         _______ _______ _______ _____ _____    ______ ____
ROOT
ATOM      1  C   LIG A   1      -8.881   5.277 129.484  0.00  0.00    +0.044 C 
ATOM      2  C   LIG A   1      -7.955   4.227 128.953  0.00  0.00    +0.097 C 
ATOM      3  C   LIG A   1      -6.837   3.753 129.866  0.00  0.00    +0.026 C 
ATOM      4  C   LIG A   1      -5.601   3.372 129.032  0.00  0.00    +0.034 C 
ATOM      5  C   LIG A   1      -4.337   2.831 129.703  0.00  0.00    +0.082 C 
ATOM      6  N   LIG A   1      -3.585   2.432 128.535  0.00  0.00    -0.311 N 
ATOM      7  H   LIG A   1      -2.591   2.236 128.514  0.00  0.00    +0.149 HD
ATOM      8  C   LIG A   1      -5.830   2.476 127.756  0.00  0.00    +0.100 C 
ATOM      9  C   LIG A   1      -4.355   2.271 127.393  0.00  0.00    +0.224 C 
ATOM     10  O   LIG A   1      -3.864   1.976 126.310  0.00  0.00    -0.275 OA
ATOM     11  C   LIG A   1      -6.479   1.033 127.952  0.00  0.00    +0.224 C 
ATOM     12  C   LIG A   1      -6.557   0.083 126.737  0.00  0.00    +0.192 C 
ATOM     13  C   LIG A   1      -7.471   0.060 125.444  0.00  0.00    +0.190 C 
ATOM     14  C   LIG A   1      -8.645   0.946 125.090  0.00  0.00    +0.149 C 
ATOM     15  C   LIG A   1      -8.432   2.332 124.410  0.00  0.00    +0.170 C 
ATOM     16  C   LIG A   1      -7.433   2.536 123.266  0.00  0.00    +0.059 C 
ATOM     17  C   LIG A   1      -6.006   2.967 123.666  0.00  0.00    +0.037 C 
ATOM     18  C   LIG A   1      -5.768   4.180 124.537  0.00  0.00    -0.030 C 
ATOM     19  C   LIG A   1      -5.950   4.310 125.866  0.00  0.00    -0.024 C 
ATOM     20  C   LIG A   1      -6.664   3.331 126.777  0.00  0.00    +0.062 C 
ATOM     21  C   LIG A   1      -7.841   4.028 127.450  0.00  0.00    +0.159 C 
ATOM     22  O   LIG A   1      -8.652   3.178 128.266  0.00  0.00    -0.364 OA
ATOM     23  C   LIG A   1      -8.020   3.553 122.273  0.00  0.00    +0.016 C 
ATOM     24  O   LIG A   1      -9.165   3.270 124.770  0.00  0.00    -0.294 OA
ATOM     25  C   LIG A   1      -9.605   0.199 124.142  0.00  0.00    +0.052 C 
ATOM     26  O   LIG A   1      -6.175   0.627 125.480  0.00  0.00    -0.361 OA
ATOM     27  C   LIG A   1      -7.342   2.753 130.897  0.00  0.00    +0.011 C 
ENDROOT
BRANCH  14  28
ATOM     28  O   LIG A   1      -9.391   1.120 126.302  0.00  0.00    -0.379 OA
ATOM     29  H   LIG A   1     -10.291   1.412 126.040  0.00  0.00    +0.211 HD
ENDBRANCH  14  28
BRANCH   5  30
ATOM     30  C   LIG A   1      -3.594   3.878 130.557  0.00  0.00    +0.057 C 
BRANCH  30  31
ATOM     31  C   LIG A   1      -3.552   5.261 129.939  0.00  0.00    -0.046 A 
ATOM     32  C   LIG A   1      -4.320   6.309 130.470  0.00  0.00    +0.003 A 
ATOM     33  C   LIG A   1      -4.274   7.585 129.904  0.00  0.00    +0.000 A 
ATOM     34  C   LIG A   1      -3.459   7.832 128.802  0.00  0.00    +0.000 A 
ATOM     35  C   LIG A   1      -2.688   6.802 128.267  0.00  0.00    +0.000 A 
ATOM     36  C   LIG A   1      -2.733   5.524 128.832  0.00  0.00    +0.003 A 
ENDBRANCH  30  31
ENDBRANCH   5  30
BRANCH  11  37
ATOM     37  O   LIG A   1      -5.660   0.324 128.943  0.00  0.00    -0.458 OA
BRANCH  37  38
ATOM     38  C   LIG A   1      -6.049  -0.887 129.415  0.00  0.00    +0.304 C 
ATOM     39  C   LIG A   1      -7.396  -0.777 130.075  0.00  0.00    +0.136 C 
ATOM     40  O   LIG A   1      -5.428  -1.929 129.313  0.00  0.00    -0.251 OA
ENDBRANCH  37  38
ENDBRANCH  11  37
TORSDOF 5
ENDMDL
MODEL 9
REMARK VINA RESULT:      -8.5      4.761      9.134
REMARK  Name = NuBBE_612
REMARK  10 active torsions:
REMARK  status: ('A' for Active; 'I' for Inactive)
REMARK    1  A    between atoms: C_1  and  C_2
REMARK    2  A    between atoms: C_3  and  C_48
REMARK    3  A    between atoms: C_6  and  C_10
REMARK    4  A    between atoms: C_10  and  C_11
REMARK    5  A    between atoms: C_20  and  O_22
REMARK    6  A    between atoms: O_22  and  C_23
REMARK    7  A    between atoms: C_23  and  C_24
REMARK    8  A    between atoms: C_30  and  O_31
REMARK    9  A    between atoms: C_30  and  C_45
REMARK   10  A    between atoms: C_33  and  C_43
REMARK                            x       y       z     vdW  Elec       q    Type
REMARK                         _______ _______ _______ _____ _____    ______ ____
ROOT
ATOM      1  C   LIG A   1      -4.941   2.554 134.910  0.00  0.00    +0.044 C 
ATOM      2  C   LIG A   1      -4.872   3.430 133.698  0.00  0.00    +0.097 C 
ATOM      3  C   LIG A   1      -3.670   4.349 133.565  0.00  0.00    +0.026 C 
ATOM      4  C   LIG A   1      -4.073   5.643 132.837  0.00  0.00    +0.034 C 
ATOM      5  C   LIG A   1      -3.041   6.734 132.543  0.00  0.00    +0.082 C 
ATOM      6  N   LIG A   1      -3.826   7.598 131.692  0.00  0.00    -0.311 N 
ATOM      7  H   LIG A   1      -3.600   8.558 131.461  0.00  0.00    +0.149 HD
ATOM      8  C   LIG A   1      -4.941   5.506 131.530  0.00  0.00    +0.100 C 
ATOM      9  C   LIG A   1      -4.940   6.987 131.137  0.00  0.00    +0.224 C 
ATOM     10  O   LIG A   1      -5.732   7.594 130.426  0.00  0.00    -0.275 OA
ATOM     11  C   LIG A   1      -4.337   4.686 130.304  0.00  0.00    +0.224 C 
ATOM     12  C   LIG A   1      -5.102   4.682 128.963  0.00  0.00    +0.192 C 
ATOM     13  C   LIG A   1      -6.430   3.965 128.483  0.00  0.00    +0.190 C 
ATOM     14  C   LIG A   1      -7.287   2.955 129.214  0.00  0.00    +0.149 C 
ATOM     15  C   LIG A   1      -8.388   3.410 130.219  0.00  0.00    +0.170 C 
ATOM     16  C   LIG A   1      -9.334   4.578 129.922  0.00  0.00    +0.059 C 
ATOM     17  C   LIG A   1      -8.882   5.971 130.412  0.00  0.00    +0.037 C 
ATOM     18  C   LIG A   1      -8.501   6.210 131.855  0.00  0.00    -0.030 C 
ATOM     19  C   LIG A   1      -7.370   5.854 132.495  0.00  0.00    -0.024 C 
ATOM     20  C   LIG A   1      -6.298   4.916 131.976  0.00  0.00    +0.062 C 
ATOM     21  C   LIG A   1      -6.148   3.736 132.929  0.00  0.00    +0.159 C 
ATOM     22  O   LIG A   1      -5.228   2.730 132.496  0.00  0.00    -0.364 OA
ATOM     23  C   LIG A   1     -10.720   4.252 130.502  0.00  0.00    +0.016 C 
ATOM     24  O   LIG A   1      -8.537   2.737 131.254  0.00  0.00    -0.294 OA
ATOM     25  C   LIG A   1      -8.039   2.068 128.201  0.00  0.00    +0.052 C 
ATOM     26  O   LIG A   1      -6.385   5.296 128.963  0.00  0.00    -0.361 OA
ATOM     27  C   LIG A   1      -2.444   3.597 133.062  0.00  0.00    +0.011 C 
ENDROOT
BRANCH  14  28
ATOM     28  O   LIG A   1      -6.377   2.066 129.873  0.00  0.00    -0.379 OA
ATOM     29  H   LIG A   1      -5.627   1.921 129.258  0.00  0.00    +0.211 HD
ENDBRANCH  14  28
BRANCH   5  30
ATOM     30  C   LIG A   1      -2.525   7.453 133.805  0.00  0.00    +0.057 C 
BRANCH  30  31
ATOM     31  C   LIG A   1      -1.674   8.674 133.515  0.00  0.00    -0.046 A 
ATOM     32  C   LIG A   1      -2.270   9.917 133.249  0.00  0.00    +0.003 A 
ATOM     33  C   LIG A   1      -1.485  11.043 132.989  0.00  0.00    +0.000 A 
ATOM     34  C   LIG A   1      -0.096  10.944 132.995  0.00  0.00    +0.000 A 
ATOM     35  C   LIG A   1       0.509   9.717 133.263  0.00  0.00    +0.000 A 
ATOM     36  C   LIG A   1      -0.275   8.588 133.522  0.00  0.00    +0.003 A 
ENDBRANCH  30  31
ENDBRANCH   5  30
BRANCH  11  37
ATOM     37  O   LIG A   1      -3.027   5.274 129.997  0.00  0.00    -0.458 OA
BRANCH  37  38
ATOM     38  C   LIG A   1      -2.581   5.328 128.716  0.00  0.00    +0.304 C 
ATOM     39  C   LIG A   1      -2.379   6.757 128.297  0.00  0.00    +0.136 C 
ATOM     40  O   LIG A   1      -2.349   4.372 127.999  0.00  0.00    -0.251 OA
ENDBRANCH  37  38
ENDBRANCH  11  37
TORSDOF 5
ENDMDL
