MODEL 1
REMARK VINA RESULT:      -7.7      0.000      0.000
REMARK  Name = NuBBE_321
REMARK  12 active torsions:
REMARK  status: ('A' for Active; 'I' for Inactive)
REMARK    1  A    between atoms: O_1  and  C_2
REMARK    2  A    between atoms: C_5  and  O_6
REMARK    3  A    between atoms: O_6  and  C_7
REMARK    4  A    between atoms: C_9  and  O_11
REMARK    5  A    between atoms: C_12  and  O_14
REMARK    6  A    between atoms: C_15  and  O_17
REMARK    7  A    between atoms: C_18  and  C_20
REMARK    8  A    between atoms: C_22  and  C_23
REMARK    9  A    between atoms: C_25  and  O_26
REMARK   10  A    between atoms: C_27  and  O_28
REMARK   11  A    between atoms: C_34  and  O_35
REMARK   12  A    between atoms: O_35  and  C_36
REMARK                            x       y       z     vdW  Elec       q    Type
REMARK                         _______ _______ _______ _____ _____    ______ ____
ROOT
ATOM      1  C   LIG A   1      -8.061   3.024 122.546  0.00  0.00    +0.135 A 
ATOM      2  C   LIG A   1      -7.134   3.195 123.580  0.00  0.00    +0.109 A 
ATOM      3  C   LIG A   1      -7.323   2.659 124.935  0.00  0.00    +0.238 A 
ATOM      4  C   LIG A   1      -6.443   3.199 126.011  0.00  0.00    +0.214 A 
ATOM      5  C   LIG A   1      -5.374   3.923 125.617  0.00  0.00    +0.181 A 
ATOM      6  O   LIG A   1      -5.027   4.163 124.302  0.00  0.00    -0.451 OA
ATOM      7  C   LIG A   1      -5.929   3.834 123.323  0.00  0.00    +0.146 A 
ATOM      8  C   LIG A   1      -5.586   4.186 122.021  0.00  0.00    +0.092 A 
ATOM      9  C   LIG A   1      -6.467   3.931 120.969  0.00  0.00    +0.127 A 
ATOM     10  C   LIG A   1      -7.730   3.396 121.240  0.00  0.00    +0.092 A 
ATOM     11  O   LIG A   1      -8.123   1.748 125.170  0.00  0.00    -0.283 OA
ENDROOT
BRANCH   5  12
ATOM     12  C   LIG A   1      -4.453   4.564 126.574  0.00  0.00    +0.025 A 
ATOM     13  C   LIG A   1      -4.700   5.848 127.086  0.00  0.00    +0.060 A 
ATOM     14  C   LIG A   1      -3.800   6.409 127.991  0.00  0.00    +0.159 A 
ATOM     15  C   LIG A   1      -2.667   5.705 128.395  0.00  0.00    +0.158 A 
ATOM     16  C   LIG A   1      -2.415   4.433 127.908  0.00  0.00    +0.050 A 
ATOM     17  C   LIG A   1      -3.311   3.861 127.000  0.00  0.00    +0.015 A 
BRANCH  14  18
ATOM     18  O   LIG A   1      -3.980   7.660 128.517  0.00  0.00    -0.503 OA
ATOM     19  H   LIG A   1      -3.363   8.270 128.080  0.00  0.00    +0.292 HD
ENDBRANCH  14  18
BRANCH  15  20
ATOM     20  O   LIG A   1      -1.789   6.264 129.279  0.00  0.00    -0.503 OA
ATOM     21  H   LIG A   1      -1.239   5.519 129.592  0.00  0.00    +0.292 HD
ENDBRANCH  15  20
ENDBRANCH   5  12
BRANCH   1  22
ATOM     22  O   LIG A   1      -9.302   2.525 122.816  0.00  0.00    -0.506 OA
ATOM     23  H   LIG A   1      -9.383   2.286 123.753  0.00  0.00    +0.292 HD
ENDBRANCH   1  22
BRANCH   9  24
ATOM     24  O   LIG A   1      -6.188   4.218 119.658  0.00  0.00    -0.495 OA
ATOM     25  C   LIG A   1      -5.455   5.428 119.461  0.00  0.00    +0.277 C 
ENDBRANCH   9  24
BRANCH   4  26
ATOM     26  O   LIG A   1      -6.651   2.888 127.342  0.00  0.00    -0.453 OA
BRANCH  26  27
ATOM     27  C   LIG A   1      -7.750   3.531 128.010  0.00  0.00    +0.340 C 
ATOM     28  C   LIG A   1      -8.544   2.507 128.851  0.00  0.00    +0.214 C 
ATOM     29  C   LIG A   1      -7.603   1.898 129.890  0.00  0.00    +0.180 C 
ATOM     30  C   LIG A   1      -6.988   2.998 130.760  0.00  0.00    +0.174 C 
ATOM     31  C   LIG A   1      -6.380   4.125 129.902  0.00  0.00    +0.150 C 
ATOM     32  C   LIG A   1      -6.096   5.351 130.764  0.00  0.00    +0.040 C 
ATOM     33  O   LIG A   1      -7.237   4.575 128.854  0.00  0.00    -0.334 OA
BRANCH  28  34
ATOM     34  O   LIG A   1      -9.651   3.139 129.522  0.00  0.00    -0.383 OA
ATOM     35  H   LIG A   1      -9.720   4.031 129.130  0.00  0.00    +0.210 HD
ENDBRANCH  28  34
BRANCH  29  36
ATOM     36  O   LIG A   1      -8.318   0.970 130.722  0.00  0.00    -0.386 OA
ATOM     37  H   LIG A   1      -9.099   0.696 130.199  0.00  0.00    +0.210 HD
ENDBRANCH  29  36
BRANCH  30  38
ATOM     38  O   LIG A   1      -6.002   2.395 131.617  0.00  0.00    -0.387 OA
ATOM     39  H   LIG A   1      -5.157   2.372 131.133  0.00  0.00    +0.210 HD
ENDBRANCH  30  38
ENDBRANCH  26  27
ENDBRANCH   4  26
TORSDOF 10
ENDMDL
MODEL 2
REMARK VINA RESULT:      -7.7      4.233      8.759
REMARK  Name = NuBBE_321
REMARK  12 active torsions:
REMARK  status: ('A' for Active; 'I' for Inactive)
REMARK    1  A    between atoms: O_1  and  C_2
REMARK    2  A    between atoms: C_5  and  O_6
REMARK    3  A    between atoms: O_6  and  C_7
REMARK    4  A    between atoms: C_9  and  O_11
REMARK    5  A    between atoms: C_12  and  O_14
REMARK    6  A    between atoms: C_15  and  O_17
REMARK    7  A    between atoms: C_18  and  C_20
REMARK    8  A    between atoms: C_22  and  C_23
REMARK    9  A    between atoms: C_25  and  O_26
REMARK   10  A    between atoms: C_27  and  O_28
REMARK   11  A    between atoms: C_34  and  O_35
REMARK   12  A    between atoms: O_35  and  C_36
REMARK                            x       y       z     vdW  Elec       q    Type
REMARK                         _______ _______ _______ _____ _____    ______ ____
ROOT
ATOM      1  C   LIG A   1      -4.149  -0.316 130.438  0.00  0.00    +0.135 A 
ATOM      2  C   LIG A   1      -4.784  -0.577 129.220  0.00  0.00    +0.109 A 
ATOM      3  C   LIG A   1      -5.183   0.472 128.272  0.00  0.00    +0.238 A 
ATOM      4  C   LIG A   1      -6.143   0.090 127.196  0.00  0.00    +0.214 A 
ATOM      5  C   LIG A   1      -6.354  -1.231 127.009  0.00  0.00    +0.181 A 
ATOM      6  O   LIG A   1      -5.722  -2.236 127.714  0.00  0.00    -0.451 OA
ATOM      7  C   LIG A   1      -4.992  -1.891 128.823  0.00  0.00    +0.146 A 
ATOM      8  C   LIG A   1      -4.458  -2.940 129.564  0.00  0.00    +0.092 A 
ATOM      9  C   LIG A   1      -3.740  -2.681 130.732  0.00  0.00    +0.127 A 
ATOM     10  C   LIG A   1      -3.631  -1.368 131.199  0.00  0.00    +0.092 A 
ATOM     11  O   LIG A   1      -4.696   1.606 128.311  0.00  0.00    -0.283 OA
ENDROOT
BRANCH   5  12
ATOM     12  C   LIG A   1      -7.318  -1.748 126.020  0.00  0.00    +0.025 A 
ATOM     13  C   LIG A   1      -7.086  -1.640 124.640  0.00  0.00    +0.060 A 
ATOM     14  C   LIG A   1      -8.028  -2.148 123.745  0.00  0.00    +0.159 A 
ATOM     15  C   LIG A   1      -9.187  -2.766 124.210  0.00  0.00    +0.158 A 
ATOM     16  C   LIG A   1      -9.425  -2.891 125.569  0.00  0.00    +0.050 A 
ATOM     17  C   LIG A   1      -8.488  -2.385 126.474  0.00  0.00    +0.015 A 
BRANCH  14  18
ATOM     18  O   LIG A   1      -7.864  -2.064 122.389  0.00  0.00    -0.503 OA
ATOM     19  H   LIG A   1      -7.770  -1.127 122.147  0.00  0.00    +0.292 HD
ENDBRANCH  14  18
BRANCH  15  20
ATOM     20  O   LIG A   1     -10.106  -3.257 123.327  0.00  0.00    -0.503 OA
ATOM     21  H   LIG A   1     -10.300  -4.162 123.643  0.00  0.00    +0.292 HD
ENDBRANCH  15  20
ENDBRANCH   5  12
BRANCH   1  22
ATOM     22  O   LIG A   1      -4.065   0.965 130.905  0.00  0.00    -0.506 OA
ATOM     23  H   LIG A   1      -4.848   1.194 131.429  0.00  0.00    +0.292 HD
ENDBRANCH   1  22
BRANCH   9  24
ATOM     24  O   LIG A   1      -3.158  -3.657 131.498  0.00  0.00    -0.495 OA
ATOM     25  C   LIG A   1      -3.963  -4.113 132.587  0.00  0.00    +0.277 C 
ENDBRANCH   9  24
BRANCH   4  26
ATOM     26  O   LIG A   1      -6.709   1.035 126.361  0.00  0.00    -0.453 OA
BRANCH  26  27
ATOM     27  C   LIG A   1      -7.792   1.822 126.886  0.00  0.00    +0.340 C 
ATOM     28  C   LIG A   1      -7.484   3.329 126.742  0.00  0.00    +0.214 C 
ATOM     29  C   LIG A   1      -7.297   3.646 125.259  0.00  0.00    +0.180 C 
ATOM     30  C   LIG A   1      -8.544   3.239 124.467  0.00  0.00    +0.174 C 
ATOM     31  C   LIG A   1      -8.967   1.790 124.782  0.00  0.00    +0.150 C 
ATOM     32  C   LIG A   1     -10.379   1.529 124.268  0.00  0.00    +0.040 C 
ATOM     33  O   LIG A   1      -8.997   1.492 126.177  0.00  0.00    -0.334 OA
BRANCH  28  34
ATOM     34  O   LIG A   1      -8.559   4.128 127.271  0.00  0.00    -0.383 OA
ATOM     35  H   LIG A   1      -8.577   3.941 128.229  0.00  0.00    +0.210 HD
ENDBRANCH  28  34
BRANCH  29  36
ATOM     36  O   LIG A   1      -7.051   5.051 125.081  0.00  0.00    -0.386 OA
ATOM     37  H   LIG A   1      -6.299   5.109 124.458  0.00  0.00    +0.210 HD
ENDBRANCH  29  36
BRANCH  30  38
ATOM     38  O   LIG A   1      -8.265   3.417 123.067  0.00  0.00    -0.387 OA
ATOM     39  H   LIG A   1      -7.556   4.079 122.984  0.00  0.00    +0.210 HD
ENDBRANCH  30  38
ENDBRANCH  26  27
ENDBRANCH   4  26
TORSDOF 10
ENDMDL
MODEL 3
REMARK VINA RESULT:      -7.5      3.550      8.210
REMARK  Name = NuBBE_321
REMARK  12 active torsions:
REMARK  status: ('A' for Active; 'I' for Inactive)
REMARK    1  A    between atoms: O_1  and  C_2
REMARK    2  A    between atoms: C_5  and  O_6
REMARK    3  A    between atoms: O_6  and  C_7
REMARK    4  A    between atoms: C_9  and  O_11
REMARK    5  A    between atoms: C_12  and  O_14
REMARK    6  A    between atoms: C_15  and  O_17
REMARK    7  A    between atoms: C_18  and  C_20
REMARK    8  A    between atoms: C_22  and  C_23
REMARK    9  A    between atoms: C_25  and  O_26
REMARK   10  A    between atoms: C_27  and  O_28
REMARK   11  A    between atoms: C_34  and  O_35
REMARK   12  A    between atoms: O_35  and  C_36
REMARK                            x       y       z     vdW  Elec       q    Type
REMARK                         _______ _______ _______ _____ _____    ______ ____
ROOT
ATOM      1  C   LIG A   1      -7.768   0.758 131.114  0.00  0.00    +0.135 A 
ATOM      2  C   LIG A   1      -8.045   0.903 129.750  0.00  0.00    +0.109 A 
ATOM      3  C   LIG A   1      -7.748  -0.131 128.748  0.00  0.00    +0.238 A 
ATOM      4  C   LIG A   1      -7.773   0.282 127.315  0.00  0.00    +0.214 A 
ATOM      5  C   LIG A   1      -8.327   1.481 127.037  0.00  0.00    +0.181 A 
ATOM      6  O   LIG A   1      -8.895   2.323 127.973  0.00  0.00    -0.451 OA
ATOM      7  C   LIG A   1      -8.704   2.038 129.301  0.00  0.00    +0.146 A 
ATOM      8  C   LIG A   1      -9.204   2.965 130.211  0.00  0.00    +0.092 A 
ATOM      9  C   LIG A   1      -9.014   2.777 131.580  0.00  0.00    +0.127 A 
ATOM     10  C   LIG A   1      -8.247   1.698 132.031  0.00  0.00    +0.092 A 
ATOM     11  O   LIG A   1      -7.556  -1.309 129.064  0.00  0.00    -0.283 OA
ENDROOT
BRANCH   5  12
ATOM     12  C   LIG A   1      -8.368   2.039 125.672  0.00  0.00    +0.025 A 
ATOM     13  C   LIG A   1      -7.347   2.871 125.186  0.00  0.00    +0.060 A 
ATOM     14  C   LIG A   1      -7.430   3.371 123.887  0.00  0.00    +0.159 A 
ATOM     15  C   LIG A   1      -8.511   3.044 123.069  0.00  0.00    +0.158 A 
ATOM     16  C   LIG A   1      -9.520   2.215 123.529  0.00  0.00    +0.050 A 
ATOM     17  C   LIG A   1      -9.446   1.709 124.830  0.00  0.00    +0.015 A 
BRANCH  14  18
ATOM     18  O   LIG A   1      -6.473   4.195 123.360  0.00  0.00    -0.503 OA
ATOM     19  H   LIG A   1      -6.722   5.116 123.548  0.00  0.00    +0.292 HD
ENDBRANCH  14  18
BRANCH  15  20
ATOM     20  O   LIG A   1      -8.587   3.542 121.799  0.00  0.00    -0.503 OA
ATOM     21  H   LIG A   1      -9.462   3.257 121.470  0.00  0.00    +0.292 HD
ENDBRANCH  15  20
ENDBRANCH   5  12
BRANCH   1  22
ATOM     22  O   LIG A   1      -6.998  -0.283 131.548  0.00  0.00    -0.506 OA
ATOM     23  H   LIG A   1      -7.551  -1.027 131.833  0.00  0.00    +0.292 HD
ENDBRANCH   1  22
BRANCH   9  24
ATOM     24  O   LIG A   1      -9.502   3.627 132.538  0.00  0.00    -0.495 OA
ATOM     25  C   LIG A   1      -8.842   3.535 133.803  0.00  0.00    +0.277 C 
ENDBRANCH   9  24
BRANCH   4  26
ATOM     26  O   LIG A   1      -7.346  -0.565 126.310  0.00  0.00    -0.453 OA
BRANCH  26  27
ATOM     27  C   LIG A   1      -7.980  -1.852 126.212  0.00  0.00    +0.340 C 
ATOM     28  C   LIG A   1      -9.149  -1.803 125.204  0.00  0.00    +0.214 C 
ATOM     29  C   LIG A   1      -8.594  -1.403 123.837  0.00  0.00    +0.180 C 
ATOM     30  C   LIG A   1      -7.502  -2.384 123.399  0.00  0.00    +0.174 C 
ATOM     31  C   LIG A   1      -6.447  -2.587 124.503  0.00  0.00    +0.150 C 
ATOM     32  C   LIG A   1      -5.584  -3.806 124.193  0.00  0.00    +0.040 C 
ATOM     33  O   LIG A   1      -7.005  -2.823 125.795  0.00  0.00    -0.334 OA
BRANCH  28  34
ATOM     34  O   LIG A   1      -9.796  -3.086 125.101  0.00  0.00    -0.383 OA
ATOM     35  H   LIG A   1      -9.613  -3.539 125.947  0.00  0.00    +0.210 HD
ENDBRANCH  28  34
BRANCH  29  36
ATOM     36  O   LIG A   1      -9.649  -1.389 122.860  0.00  0.00    -0.386 OA
ATOM     37  H   LIG A   1      -9.309  -0.854 122.115  0.00  0.00    +0.210 HD
ENDBRANCH  29  36
BRANCH  30  38
ATOM     38  O   LIG A   1      -6.911  -1.886 122.186  0.00  0.00    -0.387 OA
ATOM     39  H   LIG A   1      -5.998  -2.223 122.137  0.00  0.00    +0.210 HD
ENDBRANCH  30  38
ENDBRANCH  26  27
ENDBRANCH   4  26
TORSDOF 10
ENDMDL
MODEL 4
REMARK VINA RESULT:      -7.2      3.258      7.068
REMARK  Name = NuBBE_321
REMARK  12 active torsions:
REMARK  status: ('A' for Active; 'I' for Inactive)
REMARK    1  A    between atoms: O_1  and  C_2
REMARK    2  A    between atoms: C_5  and  O_6
REMARK    3  A    between atoms: O_6  and  C_7
REMARK    4  A    between atoms: C_9  and  O_11
REMARK    5  A    between atoms: C_12  and  O_14
REMARK    6  A    between atoms: C_15  and  O_17
REMARK    7  A    between atoms: C_18  and  C_20
REMARK    8  A    between atoms: C_22  and  C_23
REMARK    9  A    between atoms: C_25  and  O_26
REMARK   10  A    between atoms: C_27  and  O_28
REMARK   11  A    between atoms: C_34  and  O_35
REMARK   12  A    between atoms: O_35  and  C_36
REMARK                            x       y       z     vdW  Elec       q    Type
REMARK                         _______ _______ _______ _____ _____    ______ ____
ROOT
ATOM      1  C   LIG A   1      -6.548  -2.561 129.219  0.00  0.00    +0.135 A 
ATOM      2  C   LIG A   1      -6.170  -1.221 129.087  0.00  0.00    +0.109 A 
ATOM      3  C   LIG A   1      -6.794  -0.291 128.135  0.00  0.00    +0.238 A 
ATOM      4  C   LIG A   1      -6.076   0.986 127.859  0.00  0.00    +0.214 A 
ATOM      5  C   LIG A   1      -5.067   1.311 128.695  0.00  0.00    +0.181 A 
ATOM      6  O   LIG A   1      -4.685   0.567 129.794  0.00  0.00    -0.451 OA
ATOM      7  C   LIG A   1      -5.210  -0.692 129.939  0.00  0.00    +0.146 A 
ATOM      8  C   LIG A   1      -4.723  -1.447 131.001  0.00  0.00    +0.092 A 
ATOM      9  C   LIG A   1      -5.169  -2.755 131.196  0.00  0.00    +0.127 A 
ATOM     10  C   LIG A   1      -6.044  -3.332 130.270  0.00  0.00    +0.092 A 
ATOM     11  O   LIG A   1      -7.900  -0.516 127.635  0.00  0.00    -0.283 OA
ENDROOT
BRANCH   5  12
ATOM     12  C   LIG A   1      -4.236   2.515 128.506  0.00  0.00    +0.025 A 
ATOM     13  C   LIG A   1      -3.235   2.572 127.523  0.00  0.00    +0.060 A 
ATOM     14  C   LIG A   1      -2.478   3.734 127.383  0.00  0.00    +0.159 A 
ATOM     15  C   LIG A   1      -2.713   4.837 128.202  0.00  0.00    +0.158 A 
ATOM     16  C   LIG A   1      -3.704   4.801 129.169  0.00  0.00    +0.050 A 
ATOM     17  C   LIG A   1      -4.468   3.641 129.318  0.00  0.00    +0.015 A 
BRANCH  14  18
ATOM     18  O   LIG A   1      -1.482   3.847 126.451  0.00  0.00    -0.503 OA
ATOM     19  H   LIG A   1      -1.889   3.908 125.571  0.00  0.00    +0.292 HD
ENDBRANCH  14  18
BRANCH  15  20
ATOM     20  O   LIG A   1      -1.964   5.970 128.061  0.00  0.00    -0.503 OA
ATOM     21  H   LIG A   1      -1.992   6.401 128.938  0.00  0.00    +0.292 HD
ENDBRANCH  15  20
ENDBRANCH   5  12
BRANCH   1  22
ATOM     22  O   LIG A   1      -7.384  -3.129 128.300  0.00  0.00    -0.506 OA
ATOM     23  H   LIG A   1      -8.232  -3.369 128.705  0.00  0.00    +0.292 HD
ENDBRANCH   1  22
BRANCH   9  24
ATOM     24  O   LIG A   1      -4.761  -3.550 132.235  0.00  0.00    -0.495 OA
ATOM     25  C   LIG A   1      -5.202  -4.907 132.150  0.00  0.00    +0.277 C 
ENDBRANCH   9  24
BRANCH   4  26
ATOM     26  O   LIG A   1      -6.488   1.848 126.859  0.00  0.00    -0.453 OA
BRANCH  26  27
ATOM     27  C   LIG A   1      -7.654   2.650 127.113  0.00  0.00    +0.340 C 
ATOM     28  C   LIG A   1      -7.363   4.136 126.806  0.00  0.00    +0.214 C 
ATOM     29  C   LIG A   1      -6.971   4.260 125.334  0.00  0.00    +0.180 C 
ATOM     30  C   LIG A   1      -8.080   3.697 124.440  0.00  0.00    +0.174 C 
ATOM     31  C   LIG A   1      -8.510   2.287 124.890  0.00  0.00    +0.150 C 
ATOM     32  C   LIG A   1      -9.826   1.898 124.224  0.00  0.00    +0.040 C 
ATOM     33  O   LIG A   1      -8.736   2.177 126.294  0.00  0.00    -0.334 OA
BRANCH  28  34
ATOM     34  O   LIG A   1      -8.522   4.952 127.062  0.00  0.00    -0.383 OA
ATOM     35  H   LIG A   1      -8.831   4.695 127.953  0.00  0.00    +0.210 HD
ENDBRANCH  28  34
BRANCH  29  36
ATOM     36  O   LIG A   1      -6.735   5.637 124.999  0.00  0.00    -0.386 OA
ATOM     37  H   LIG A   1      -5.771   5.771 125.102  0.00  0.00    +0.210 HD
ENDBRANCH  29  36
BRANCH  30  38
ATOM     38  O   LIG A   1      -7.606   3.697 123.081  0.00  0.00    -0.387 OA
ATOM     39  H   LIG A   1      -8.381   3.738 122.493  0.00  0.00    +0.210 HD
ENDBRANCH  30  38
ENDBRANCH  26  27
ENDBRANCH   4  26
TORSDOF 10
ENDMDL
MODEL 5
REMARK VINA RESULT:      -7.1      2.145      2.852
REMARK  Name = NuBBE_321
REMARK  12 active torsions:
REMARK  status: ('A' for Active; 'I' for Inactive)
REMARK    1  A    between atoms: O_1  and  C_2
REMARK    2  A    between atoms: C_5  and  O_6
REMARK    3  A    between atoms: O_6  and  C_7
REMARK    4  A    between atoms: C_9  and  O_11
REMARK    5  A    between atoms: C_12  and  O_14
REMARK    6  A    between atoms: C_15  and  O_17
REMARK    7  A    between atoms: C_18  and  C_20
REMARK    8  A    between atoms: C_22  and  C_23
REMARK    9  A    between atoms: C_25  and  O_26
REMARK   10  A    between atoms: C_27  and  O_28
REMARK   11  A    between atoms: C_34  and  O_35
REMARK   12  A    between atoms: O_35  and  C_36
REMARK                            x       y       z     vdW  Elec       q    Type
REMARK                         _______ _______ _______ _____ _____    ______ ____
ROOT
ATOM      1  C   LIG A   1      -7.848   3.585 124.856  0.00  0.00    +0.135 A 
ATOM      2  C   LIG A   1      -7.050   3.711 125.999  0.00  0.00    +0.109 A 
ATOM      3  C   LIG A   1      -7.523   3.402 127.355  0.00  0.00    +0.238 A 
ATOM      4  C   LIG A   1      -6.699   3.901 128.494  0.00  0.00    +0.214 A 
ATOM      5  C   LIG A   1      -5.461   4.350 128.199  0.00  0.00    +0.181 A 
ATOM      6  O   LIG A   1      -4.901   4.345 126.937  0.00  0.00    -0.451 OA
ATOM      7  C   LIG A   1      -5.716   4.069 125.868  0.00  0.00    +0.146 A 
ATOM      8  C   LIG A   1      -5.139   4.175 124.606  0.00  0.00    +0.092 A 
ATOM      9  C   LIG A   1      -5.907   3.957 123.462  0.00  0.00    +0.127 A 
ATOM     10  C   LIG A   1      -7.278   3.713 123.586  0.00  0.00    +0.092 A 
ATOM     11  O   LIG A   1      -8.518   2.700 127.555  0.00  0.00    -0.283 OA
ENDROOT
BRANCH   5  12
ATOM     12  C   LIG A   1      -4.561   4.923 129.217  0.00  0.00    +0.025 A 
ATOM     13  C   LIG A   1      -4.544   6.300 129.493  0.00  0.00    +0.060 A 
ATOM     14  C   LIG A   1      -3.677   6.792 130.467  0.00  0.00    +0.159 A 
ATOM     15  C   LIG A   1      -2.837   5.931 131.172  0.00  0.00    +0.158 A 
ATOM     16  C   LIG A   1      -2.850   4.569 130.920  0.00  0.00    +0.050 A 
ATOM     17  C   LIG A   1      -3.715   4.065 129.945  0.00  0.00    +0.015 A 
BRANCH  14  18
ATOM     18  O   LIG A   1      -3.606   8.124 130.774  0.00  0.00    -0.503 OA
ATOM     19  H   LIG A   1      -4.151   8.617 130.138  0.00  0.00    +0.292 HD
ENDBRANCH  14  18
BRANCH  15  20
ATOM     20  O   LIG A   1      -1.988   6.422 132.121  0.00  0.00    -0.503 OA
ATOM     21  H   LIG A   1      -2.243   7.360 132.226  0.00  0.00    +0.292 HD
ENDBRANCH  15  20
ENDBRANCH   5  12
BRANCH   1  22
ATOM     22  O   LIG A   1      -9.191   3.372 124.980  0.00  0.00    -0.506 OA
ATOM     23  H   LIG A   1      -9.380   2.777 125.722  0.00  0.00    +0.292 HD
ENDBRANCH   1  22
BRANCH   9  24
ATOM     24  O   LIG A   1      -5.404   4.011 122.188  0.00  0.00    -0.495 OA
ATOM     25  C   LIG A   1      -6.367   3.761 121.161  0.00  0.00    +0.277 C 
ENDBRANCH   9  24
BRANCH   4  26
ATOM     26  O   LIG A   1      -7.141   3.812 129.801  0.00  0.00    -0.453 OA
BRANCH  26  27
ATOM     27  C   LIG A   1      -7.799   4.962 130.359  0.00  0.00    +0.340 C 
ATOM     28  C   LIG A   1      -9.307   4.938 130.025  0.00  0.00    +0.214 C 
ATOM     29  C   LIG A   1      -9.914   3.666 130.617  0.00  0.00    +0.180 C 
ATOM     30  C   LIG A   1      -9.663   3.610 132.127  0.00  0.00    +0.174 C 
ATOM     31  C   LIG A   1      -8.177   3.848 132.463  0.00  0.00    +0.150 C 
ATOM     32  C   LIG A   1      -8.012   4.135 133.951  0.00  0.00    +0.040 C 
ATOM     33  O   LIG A   1      -7.607   4.966 131.784  0.00  0.00    -0.334 OA
BRANCH  28  34
ATOM     34  O   LIG A   1      -9.976   6.088 130.574  0.00  0.00    -0.383 OA
ATOM     35  H   LIG A   1     -10.227   5.835 131.484  0.00  0.00    +0.210 HD
ENDBRANCH  28  34
BRANCH  29  36
ATOM     36  O   LIG A   1     -11.328   3.629 130.362  0.00  0.00    -0.386 OA
ATOM     37  H   LIG A   1     -11.651   2.810 130.792  0.00  0.00    +0.210 HD
ENDBRANCH  29  36
BRANCH  30  38
ATOM     38  O   LIG A   1     -10.118   2.335 132.612  0.00  0.00    -0.387 OA
ATOM     39  H   LIG A   1     -10.760   2.496 133.325  0.00  0.00    +0.210 HD
ENDBRANCH  30  38
ENDBRANCH  26  27
ENDBRANCH   4  26
TORSDOF 10
ENDMDL
MODEL 6
REMARK VINA RESULT:      -7.1      3.736      8.490
REMARK  Name = NuBBE_321
REMARK  12 active torsions:
REMARK  status: ('A' for Active; 'I' for Inactive)
REMARK    1  A    between atoms: O_1  and  C_2
REMARK    2  A    between atoms: C_5  and  O_6
REMARK    3  A    between atoms: O_6  and  C_7
REMARK    4  A    between atoms: C_9  and  O_11
REMARK    5  A    between atoms: C_12  and  O_14
REMARK    6  A    between atoms: C_15  and  O_17
REMARK    7  A    between atoms: C_18  and  C_20
REMARK    8  A    between atoms: C_22  and  C_23
REMARK    9  A    between atoms: C_25  and  O_26
REMARK   10  A    between atoms: C_27  and  O_28
REMARK   11  A    between atoms: C_34  and  O_35
REMARK   12  A    between atoms: O_35  and  C_36
REMARK                            x       y       z     vdW  Elec       q    Type
REMARK                         _______ _______ _______ _____ _____    ______ ____
ROOT
ATOM      1  C   LIG A   1      -6.711  -2.287 131.338  0.00  0.00    +0.135 A 
ATOM      2  C   LIG A   1      -7.063  -1.449 130.275  0.00  0.00    +0.109 A 
ATOM      3  C   LIG A   1      -7.789  -1.911 129.084  0.00  0.00    +0.238 A 
ATOM      4  C   LIG A   1      -7.793  -1.010 127.896  0.00  0.00    +0.214 A 
ATOM      5  C   LIG A   1      -7.374   0.259 128.092  0.00  0.00    +0.181 A 
ATOM      6  O   LIG A   1      -6.982   0.778 129.310  0.00  0.00    -0.451 OA
ATOM      7  C   LIG A   1      -6.794  -0.090 130.355  0.00  0.00    +0.146 A 
ATOM      8  C   LIG A   1      -6.299   0.459 131.534  0.00  0.00    +0.092 A 
ATOM      9  C   LIG A   1      -6.036  -0.360 132.633  0.00  0.00    +0.127 A 
ATOM     10  C   LIG A   1      -6.192  -1.745 132.517  0.00  0.00    +0.092 A 
ATOM     11  O   LIG A   1      -8.431  -2.966 129.080  0.00  0.00    -0.283 OA
ENDROOT
BRANCH   5  12
ATOM     12  C   LIG A   1      -7.273   1.240 126.995  0.00  0.00    +0.025 A 
ATOM     13  C   LIG A   1      -8.412   1.857 126.453  0.00  0.00    +0.060 A 
ATOM     14  C   LIG A   1      -8.263   2.780 125.419  0.00  0.00    +0.159 A 
ATOM     15  C   LIG A   1      -6.998   3.099 124.928  0.00  0.00    +0.158 A 
ATOM     16  C   LIG A   1      -5.864   2.508 125.461  0.00  0.00    +0.050 A 
ATOM     17  C   LIG A   1      -6.002   1.580 126.497  0.00  0.00    +0.015 A 
BRANCH  14  18
ATOM     18  O   LIG A   1      -9.334   3.408 124.842  0.00  0.00    -0.503 OA
ATOM     19  H   LIG A   1      -9.418   4.294 125.231  0.00  0.00    +0.292 HD
ENDBRANCH  14  18
BRANCH  15  20
ATOM     20  O   LIG A   1      -6.861   4.001 123.912  0.00  0.00    -0.503 OA
ATOM     21  H   LIG A   1      -7.581   4.648 124.052  0.00  0.00    +0.292 HD
ENDBRANCH  15  20
ENDBRANCH   5  12
BRANCH   1  22
ATOM     22  O   LIG A   1      -6.841  -3.641 131.214  0.00  0.00    -0.506 OA
ATOM     23  H   LIG A   1      -7.523  -3.980 131.814  0.00  0.00    +0.292 HD
ENDBRANCH   1  22
BRANCH   9  24
ATOM     24  O   LIG A   1      -5.578   0.109 133.837  0.00  0.00    -0.495 OA
ATOM     25  C   LIG A   1      -5.864   1.487 134.082  0.00  0.00    +0.277 C 
ENDBRANCH   9  24
BRANCH   4  26
ATOM     26  O   LIG A   1      -8.300  -1.421 126.676  0.00  0.00    -0.453 OA
BRANCH  26  27
ATOM     27  C   LIG A   1      -7.464  -2.256 125.858  0.00  0.00    +0.340 C 
ATOM     28  C   LIG A   1      -8.306  -3.351 125.167  0.00  0.00    +0.214 C 
ATOM     29  C   LIG A   1      -9.360  -2.673 124.292  0.00  0.00    +0.180 C 
ATOM     30  C   LIG A   1      -8.689  -1.742 123.277  0.00  0.00    +0.174 C 
ATOM     31  C   LIG A   1      -7.688  -0.789 123.959  0.00  0.00    +0.150 C 
ATOM     32  C   LIG A   1      -6.792  -0.130 122.915  0.00  0.00    +0.040 C 
ATOM     33  O   LIG A   1      -6.807  -1.440 124.873  0.00  0.00    -0.334 OA
BRANCH  28  34
ATOM     34  O   LIG A   1      -7.478  -4.199 124.347  0.00  0.00    -0.383 OA
ATOM     35  H   LIG A   1      -6.578  -4.125 124.721  0.00  0.00    +0.210 HD
ENDBRANCH  28  34
BRANCH  29  36
ATOM     36  O   LIG A   1     -10.138  -3.662 123.598  0.00  0.00    -0.386 OA
ATOM     37  H   LIG A   1     -10.849  -3.167 123.144  0.00  0.00    +0.210 HD
ENDBRANCH  29  36
BRANCH  30  38
ATOM     38  O   LIG A   1      -9.720  -1.018 122.582  0.00  0.00    -0.387 OA
ATOM     39  H   LIG A   1      -9.740  -1.334 121.661  0.00  0.00    +0.210 HD
ENDBRANCH  30  38
ENDBRANCH  26  27
ENDBRANCH   4  26
TORSDOF 10
ENDMDL
MODEL 7
REMARK VINA RESULT:      -7.1      3.509      7.218
REMARK  Name = NuBBE_321
REMARK  12 active torsions:
REMARK  status: ('A' for Active; 'I' for Inactive)
REMARK    1  A    between atoms: O_1  and  C_2
REMARK    2  A    between atoms: C_5  and  O_6
REMARK    3  A    between atoms: O_6  and  C_7
REMARK    4  A    between atoms: C_9  and  O_11
REMARK    5  A    between atoms: C_12  and  O_14
REMARK    6  A    between atoms: C_15  and  O_17
REMARK    7  A    between atoms: C_18  and  C_20
REMARK    8  A    between atoms: C_22  and  C_23
REMARK    9  A    between atoms: C_25  and  O_26
REMARK   10  A    between atoms: C_27  and  O_28
REMARK   11  A    between atoms: C_34  and  O_35
REMARK   12  A    between atoms: O_35  and  C_36
REMARK                            x       y       z     vdW  Elec       q    Type
REMARK                         _______ _______ _______ _____ _____    ______ ____
ROOT
ATOM      1  C   LIG A   1      -5.757  -2.822 129.632  0.00  0.00    +0.135 A 
ATOM      2  C   LIG A   1      -5.508  -1.456 129.458  0.00  0.00    +0.109 A 
ATOM      3  C   LIG A   1      -6.363  -0.573 128.653  0.00  0.00    +0.238 A 
ATOM      4  C   LIG A   1      -5.803   0.757 128.274  0.00  0.00    +0.214 A 
ATOM      5  C   LIG A   1      -4.685   1.153 128.919  0.00  0.00    +0.181 A 
ATOM      6  O   LIG A   1      -4.055   0.435 129.917  0.00  0.00    -0.451 OA
ATOM      7  C   LIG A   1      -4.451  -0.861 130.131  0.00  0.00    +0.146 A 
ATOM      8  C   LIG A   1      -3.724  -1.582 131.073  0.00  0.00    +0.092 A 
ATOM      9  C   LIG A   1      -4.028  -2.921 131.321  0.00  0.00    +0.127 A 
ATOM     10  C   LIG A   1      -5.013  -3.558 130.559  0.00  0.00    +0.092 A 
ATOM     11  O   LIG A   1      -7.522  -0.878 128.358  0.00  0.00    -0.283 OA
ENDROOT
BRANCH   5  12
ATOM     12  C   LIG A   1      -3.993   2.417 128.605  0.00  0.00    +0.025 A 
ATOM     13  C   LIG A   1      -3.051   2.503 127.568  0.00  0.00    +0.060 A 
ATOM     14  C   LIG A   1      -2.427   3.722 127.309  0.00  0.00    +0.159 A 
ATOM     15  C   LIG A   1      -2.736   4.853 128.063  0.00  0.00    +0.158 A 
ATOM     16  C   LIG A   1      -3.672   4.788 129.081  0.00  0.00    +0.050 A 
ATOM     17  C   LIG A   1      -4.304   3.570 129.350  0.00  0.00    +0.015 A 
BRANCH  14  18
ATOM     18  O   LIG A   1      -1.492   3.866 126.319  0.00  0.00    -0.503 OA
ATOM     19  H   LIG A   1      -1.881   3.565 125.481  0.00  0.00    +0.292 HD
ENDBRANCH  14  18
BRANCH  15  20
ATOM     20  O   LIG A   1      -2.117   6.042 127.805  0.00  0.00    -0.503 OA
ATOM     21  H   LIG A   1      -2.806   6.601 127.394  0.00  0.00    +0.292 HD
ENDBRANCH  15  20
ENDBRANCH   5  12
BRANCH   1  22
ATOM     22  O   LIG A   1      -6.702  -3.447 128.870  0.00  0.00    -0.506 OA
ATOM     23  H   LIG A   1      -7.377  -3.864 129.428  0.00  0.00    +0.292 HD
ENDBRANCH   1  22
BRANCH   9  24
ATOM     24  O   LIG A   1      -3.380  -3.688 132.253  0.00  0.00    -0.495 OA
ATOM     25  C   LIG A   1      -4.245  -4.456 133.092  0.00  0.00    +0.277 C 
ENDBRANCH   9  24
BRANCH   4  26
ATOM     26  O   LIG A   1      -6.454   1.589 127.382  0.00  0.00    -0.453 OA
BRANCH  26  27
ATOM     27  C   LIG A   1      -6.297   1.313 125.980  0.00  0.00    +0.340 C 
ATOM     28  C   LIG A   1      -7.677   1.161 125.302  0.00  0.00    +0.214 C 
ATOM     29  C   LIG A   1      -8.451   2.466 125.480  0.00  0.00    +0.180 C 
ATOM     30  C   LIG A   1      -7.655   3.640 124.900  0.00  0.00    +0.174 C 
ATOM     31  C   LIG A   1      -6.206   3.657 125.427  0.00  0.00    +0.150 C 
ATOM     32  C   LIG A   1      -5.350   4.598 124.586  0.00  0.00    +0.040 C 
ATOM     33  O   LIG A   1      -5.560   2.386 125.371  0.00  0.00    -0.334 OA
BRANCH  28  34
ATOM     34  O   LIG A   1      -7.533   0.878 123.897  0.00  0.00    -0.383 OA
ATOM     35  H   LIG A   1      -8.443   0.835 123.545  0.00  0.00    +0.210 HD
ENDBRANCH  28  34
BRANCH  29  36
ATOM     36  O   LIG A   1      -9.726   2.379 124.823  0.00  0.00    -0.386 OA
ATOM     37  H   LIG A   1     -10.324   2.966 125.329  0.00  0.00    +0.210 HD
ENDBRANCH  29  36
BRANCH  30  38
ATOM     38  O   LIG A   1      -8.350   4.857 125.222  0.00  0.00    -0.387 OA
ATOM     39  H   LIG A   1      -9.130   4.920 124.643  0.00  0.00    +0.210 HD
ENDBRANCH  30  38
ENDBRANCH  26  27
ENDBRANCH   4  26
TORSDOF 10
ENDMDL
MODEL 8
REMARK VINA RESULT:      -7.1      1.834      5.108
REMARK  Name = NuBBE_321
REMARK  12 active torsions:
REMARK  status: ('A' for Active; 'I' for Inactive)
REMARK    1  A    between atoms: O_1  and  C_2
REMARK    2  A    between atoms: C_5  and  O_6
REMARK    3  A    between atoms: O_6  and  C_7
REMARK    4  A    between atoms: C_9  and  O_11
REMARK    5  A    between atoms: C_12  and  O_14
REMARK    6  A    between atoms: C_15  and  O_17
REMARK    7  A    between atoms: C_18  and  C_20
REMARK    8  A    between atoms: C_22  and  C_23
REMARK    9  A    between atoms: C_25  and  O_26
REMARK   10  A    between atoms: C_27  and  O_28
REMARK   11  A    between atoms: C_34  and  O_35
REMARK   12  A    between atoms: O_35  and  C_36
REMARK                            x       y       z     vdW  Elec       q    Type
REMARK                         _______ _______ _______ _____ _____    ______ ____
ROOT
ATOM      1  C   LIG A   1      -7.081   3.727 123.429  0.00  0.00    +0.135 A 
ATOM      2  C   LIG A   1      -7.321   3.689 124.807  0.00  0.00    +0.109 A 
ATOM      3  C   LIG A   1      -6.617   4.539 125.777  0.00  0.00    +0.238 A 
ATOM      4  C   LIG A   1      -6.717   4.160 127.216  0.00  0.00    +0.214 A 
ATOM      5  C   LIG A   1      -7.655   3.244 127.540  0.00  0.00    +0.181 A 
ATOM      6  O   LIG A   1      -8.538   2.672 126.647  0.00  0.00    -0.451 OA
ATOM      7  C   LIG A   1      -8.325   2.871 125.306  0.00  0.00    +0.146 A 
ATOM      8  C   LIG A   1      -9.175   2.194 124.437  0.00  0.00    +0.092 A 
ATOM      9  C   LIG A   1      -9.000   2.303 123.057  0.00  0.00    +0.127 A 
ATOM     10  C   LIG A   1      -7.916   3.029 122.552  0.00  0.00    +0.092 A 
ATOM     11  O   LIG A   1      -6.025   5.567 125.434  0.00  0.00    -0.283 OA
ENDROOT
BRANCH   5  12
ATOM     12  C   LIG A   1      -7.826   2.736 128.914  0.00  0.00    +0.025 A 
ATOM     13  C   LIG A   1      -8.879   3.171 129.734  0.00  0.00    +0.060 A 
ATOM     14  C   LIG A   1      -8.998   2.657 131.025  0.00  0.00    +0.159 A 
ATOM     15  C   LIG A   1      -8.089   1.714 131.501  0.00  0.00    +0.158 A 
ATOM     16  C   LIG A   1      -7.052   1.265 130.700  0.00  0.00    +0.050 A 
ATOM     17  C   LIG A   1      -6.923   1.774 129.405  0.00  0.00    +0.015 A 
BRANCH  14  18
ATOM     18  O   LIG A   1      -9.996   3.049 131.876  0.00  0.00    -0.503 OA
ATOM     19  H   LIG A   1     -10.504   3.759 131.449  0.00  0.00    +0.292 HD
ENDBRANCH  14  18
BRANCH  15  20
ATOM     20  O   LIG A   1      -8.211   1.219 132.768  0.00  0.00    -0.503 OA
ATOM     21  H   LIG A   1      -8.691   1.913 133.263  0.00  0.00    +0.292 HD
ENDBRANCH  15  20
ENDBRANCH   5  12
BRANCH   1  22
ATOM     22  O   LIG A   1      -6.008   4.416 122.941  0.00  0.00    -0.506 OA
ATOM     23  H   LIG A   1      -6.295   5.214 122.470  0.00  0.00    +0.292 HD
ENDBRANCH   1  22
BRANCH   9  24
ATOM     24  O   LIG A   1      -9.813   1.693 122.138  0.00  0.00    -0.495 OA
ATOM     25  C   LIG A   1     -10.212   0.367 122.489  0.00  0.00    +0.277 C 
ENDBRANCH   9  24
BRANCH   4  26
ATOM     26  O   LIG A   1      -5.959   4.789 128.186  0.00  0.00    -0.453 OA
BRANCH  26  27
ATOM     27  C   LIG A   1      -4.539   4.567 128.166  0.00  0.00    +0.340 C 
ATOM     28  C   LIG A   1      -3.783   5.912 128.090  0.00  0.00    +0.214 C 
ATOM     29  C   LIG A   1      -4.151   6.746 129.316  0.00  0.00    +0.180 C 
ATOM     30  C   LIG A   1      -3.822   5.977 130.600  0.00  0.00    +0.174 C 
ATOM     31  C   LIG A   1      -4.409   4.552 130.573  0.00  0.00    +0.150 C 
ATOM     32  C   LIG A   1      -3.785   3.703 131.676  0.00  0.00    +0.040 C 
ATOM     33  O   LIG A   1      -4.161   3.852 129.355  0.00  0.00    -0.334 OA
BRANCH  28  34
ATOM     34  O   LIG A   1      -2.358   5.702 128.064  0.00  0.00    -0.383 OA
ATOM     35  H   LIG A   1      -2.112   5.463 128.979  0.00  0.00    +0.210 HD
ENDBRANCH  28  34
BRANCH  29  36
ATOM     36  O   LIG A   1      -3.431   7.990 129.303  0.00  0.00    -0.386 OA
ATOM     37  H   LIG A   1      -3.494   8.320 128.384  0.00  0.00    +0.210 HD
ENDBRANCH  29  36
BRANCH  30  38
ATOM     38  O   LIG A   1      -4.320   6.734 131.717  0.00  0.00    -0.387 OA
ATOM     39  H   LIG A   1      -3.762   6.532 132.490  0.00  0.00    +0.210 HD
ENDBRANCH  30  38
ENDBRANCH  26  27
ENDBRANCH   4  26
TORSDOF 10
ENDMDL
MODEL 9
REMARK VINA RESULT:      -7.0      3.223      5.861
REMARK  Name = NuBBE_321
REMARK  12 active torsions:
REMARK  status: ('A' for Active; 'I' for Inactive)
REMARK    1  A    between atoms: O_1  and  C_2
REMARK    2  A    between atoms: C_5  and  O_6
REMARK    3  A    between atoms: O_6  and  C_7
REMARK    4  A    between atoms: C_9  and  O_11
REMARK    5  A    between atoms: C_12  and  O_14
REMARK    6  A    between atoms: C_15  and  O_17
REMARK    7  A    between atoms: C_18  and  C_20
REMARK    8  A    between atoms: C_22  and  C_23
REMARK    9  A    between atoms: C_25  and  O_26
REMARK   10  A    between atoms: C_27  and  O_28
REMARK   11  A    between atoms: C_34  and  O_35
REMARK   12  A    between atoms: O_35  and  C_36
REMARK                            x       y       z     vdW  Elec       q    Type
REMARK                         _______ _______ _______ _____ _____    ______ ____
ROOT
ATOM      1  C   LIG A   1      -6.635   0.298 125.709  0.00  0.00    +0.135 A 
ATOM      2  C   LIG A   1      -7.073   1.412 126.434  0.00  0.00    +0.109 A 
ATOM      3  C   LIG A   1      -6.252   2.611 126.651  0.00  0.00    +0.238 A 
ATOM      4  C   LIG A   1      -6.699   3.560 127.712  0.00  0.00    +0.214 A 
ATOM      5  C   LIG A   1      -7.948   3.390 128.194  0.00  0.00    +0.181 A 
ATOM      6  O   LIG A   1      -8.840   2.433 127.751  0.00  0.00    -0.451 OA
ATOM      7  C   LIG A   1      -8.372   1.446 126.921  0.00  0.00    +0.146 A 
ATOM      8  C   LIG A   1      -9.275   0.444 126.580  0.00  0.00    +0.092 A 
ATOM      9  C   LIG A   1      -8.871  -0.622 125.777  0.00  0.00    +0.127 A 
ATOM     10  C   LIG A   1      -7.532  -0.723 125.384  0.00  0.00    +0.092 A 
ATOM     11  O   LIG A   1      -5.274   2.869 125.943  0.00  0.00    -0.283 OA
ENDROOT
BRANCH   5  12
ATOM     12  C   LIG A   1      -8.498   4.219 129.284  0.00  0.00    +0.025 A 
ATOM     13  C   LIG A   1      -9.034   5.493 129.040  0.00  0.00    +0.060 A 
ATOM     14  C   LIG A   1      -9.544   6.236 130.104  0.00  0.00    +0.159 A 
ATOM     15  C   LIG A   1      -9.533   5.721 131.399  0.00  0.00    +0.158 A 
ATOM     16  C   LIG A   1      -9.018   4.461 131.654  0.00  0.00    +0.050 A 
ATOM     17  C   LIG A   1      -8.504   3.708 130.595  0.00  0.00    +0.015 A 
BRANCH  14  18
ATOM     18  O   LIG A   1     -10.071   7.488 129.933  0.00  0.00    -0.503 OA
ATOM     19  H   LIG A   1      -9.370   8.142 130.095  0.00  0.00    +0.292 HD
ENDBRANCH  14  18
BRANCH  15  20
ATOM     20  O   LIG A   1     -10.031   6.458 132.436  0.00  0.00    -0.503 OA
ATOM     21  H   LIG A   1      -9.265   6.616 133.023  0.00  0.00    +0.292 HD
ENDBRANCH  15  20
ENDBRANCH   5  12
BRANCH   1  22
ATOM     22  O   LIG A   1      -5.323   0.190 125.348  0.00  0.00    -0.506 OA
ATOM     23  H   LIG A   1      -5.166   0.605 124.485  0.00  0.00    +0.292 HD
ENDBRANCH   1  22
BRANCH   9  24
ATOM     24  O   LIG A   1      -9.708  -1.629 125.373  0.00  0.00    -0.495 OA
ATOM     25  C   LIG A   1      -9.387  -2.915 125.908  0.00  0.00    +0.277 C 
ENDBRANCH   9  24
BRANCH   4  26
ATOM     26  O   LIG A   1      -5.912   4.625 128.109  0.00  0.00    -0.453 OA
BRANCH  26  27
ATOM     27  C   LIG A   1      -4.870   4.361 129.064  0.00  0.00    +0.340 C 
ATOM     28  C   LIG A   1      -3.556   5.051 128.634  0.00  0.00    +0.214 C 
ATOM     29  C   LIG A   1      -3.802   6.557 128.553  0.00  0.00    +0.180 C 
ATOM     30  C   LIG A   1      -4.312   7.085 129.897  0.00  0.00    +0.174 C 
ATOM     31  C   LIG A   1      -5.498   6.252 130.421  0.00  0.00    +0.150 C 
ATOM     32  C   LIG A   1      -5.756   6.565 131.891  0.00  0.00    +0.040 C 
ATOM     33  O   LIG A   1      -5.284   4.843 130.354  0.00  0.00    -0.334 OA
BRANCH  28  34
ATOM     34  O   LIG A   1      -2.502   4.789 129.580  0.00  0.00    -0.383 OA
ATOM     35  H   LIG A   1      -2.794   5.200 130.417  0.00  0.00    +0.210 HD
ENDBRANCH  28  34
BRANCH  29  36
ATOM     36  O   LIG A   1      -2.588   7.239 128.196  0.00  0.00    -0.386 OA
ATOM     37  H   LIG A   1      -2.867   8.114 127.859  0.00  0.00    +0.210 HD
ENDBRANCH  29  36
BRANCH  30  38
ATOM     38  O   LIG A   1      -4.670   8.469 129.730  0.00  0.00    -0.387 OA
ATOM     39  H   LIG A   1      -5.468   8.639 130.262  0.00  0.00    +0.210 HD
ENDBRANCH  30  38
ENDBRANCH  26  27
ENDBRANCH   4  26
TORSDOF 10
ENDMDL
