MODEL 1
REMARK VINA RESULT:      -8.5      0.000      0.000
REMARK  Name = NuBBE_417
REMARK  17 active torsions:
REMARK  status: ('A' for Active; 'I' for Inactive)
REMARK    1  A    between atoms: C_4  and  O_12
REMARK    2  A    between atoms: C_8  and  C_9
REMARK    3  A    between atoms: C_9  and  O_10
REMARK    4  A    between atoms: O_12  and  C_13
REMARK    5  A    between atoms: C_16  and  C_24
REMARK    6  A    between atoms: C_18  and  O_23
REMARK    7  A    between atoms: C_20  and  O_22
REMARK    8  A    between atoms: C_24  and  O_25
REMARK    9  A    between atoms: C_26  and  O_28
REMARK   10  A    between atoms: O_28  and  C_29
REMARK   11  A    between atoms: C_29  and  C_30
REMARK   12  A    between atoms: C_31  and  C_32
REMARK   13  A    between atoms: C_34  and  O_35
REMARK   14  A    between atoms: O_35  and  C_36
REMARK   15  A    between atoms: C_37  and  O_40
REMARK   16  A    between atoms: C_44  and  O_49
REMARK   17  A    between atoms: C_46  and  C_48
REMARK                            x       y       z     vdW  Elec       q    Type
REMARK                         _______ _______ _______ _____ _____    ______ ____
ROOT
ATOM      1  C   LIG A   1      -8.035  -0.424 125.058  0.00  0.00    +0.298 C 
ATOM      2  O   LIG A   1      -8.149  -1.659 125.764  0.00  0.00    -0.339 OA
ATOM      3  C   LIG A   1      -7.443  -2.771 125.198  0.00  0.00    +0.178 C 
ATOM      4  C   LIG A   1      -7.969  -3.042 123.780  0.00  0.00    +0.178 C 
ATOM      5  C   LIG A   1      -7.846  -1.807 122.880  0.00  0.00    +0.191 C 
ATOM      6  C   LIG A   1      -8.367  -0.528 123.552  0.00  0.00    +0.263 C 
ENDROOT
BRANCH   5   7
ATOM      7  O   LIG A   1      -6.475  -1.656 122.488  0.00  0.00    -0.385 OA
ATOM      8  H   LIG A   1      -6.040  -2.520 122.616  0.00  0.00    +0.210 HD
ENDBRANCH   5   7
BRANCH   4   9
ATOM      9  O   LIG A   1      -9.345  -3.443 123.849  0.00  0.00    -0.386 OA
ATOM     10  H   LIG A   1      -9.863  -2.787 123.348  0.00  0.00    +0.210 HD
ENDBRANCH   4   9
BRANCH   1  11
ATOM     11  O   LIG A   1      -6.773   0.203 125.240  0.00  0.00    -0.308 OA
BRANCH  11  14
ATOM     12  C   LIG A   1      -5.434   2.790 125.751  0.00  0.00    +0.041 C 
ATOM     13  C   LIG A   1      -5.306   1.504 126.591  0.00  0.00    +0.071 C 
ATOM     14  C   LIG A   1      -6.608   0.708 126.572  0.00  0.00    +0.313 C 
ATOM     15  O   LIG A   1      -7.729   1.485 127.018  0.00  0.00    -0.470 OA
ATOM     16  C   LIG A   1      -7.802   2.757 126.518  0.00  0.00    +0.201 C 
ATOM     17  C   LIG A   1      -6.803   3.411 125.908  0.00  0.00    +0.074 C 
ATOM     18  C   LIG A   1      -4.265   3.648 126.269  0.00  0.00    +0.040 C 
ATOM     19  C   LIG A   1      -3.920   3.140 127.677  0.00  0.00    +0.118 C 
ATOM     20  C   LIG A   1      -4.916   2.019 127.987  0.00  0.00    +0.024 C 
ATOM     21  C   LIG A   1      -4.398   0.917 128.903  0.00  0.00    +0.010 C 
BRANCH  17  22
ATOM     22  C   LIG A   1      -7.063   4.737 125.321  0.00  0.00    +0.336 C 
ATOM     23  O   LIG A   1      -7.912   5.526 125.707  0.00  0.00    -0.245 OA
BRANCH  22  24
ATOM     24  O   LIG A   1      -6.284   5.022 124.266  0.00  0.00    -0.477 OA
ATOM     25  H   LIG A   1      -5.428   4.599 124.477  0.00  0.00    +0.295 HD
ENDBRANCH  22  24
ENDBRANCH  17  22
BRANCH  19  26
ATOM     26  O   LIG A   1      -2.585   2.652 127.686  0.00  0.00    -0.392 OA
ATOM     27  H   LIG A   1      -2.071   3.194 127.061  0.00  0.00    +0.210 HD
ENDBRANCH  19  26
ENDBRANCH  11  14
ENDBRANCH   1  11
BRANCH   3  28
ATOM     28  C   LIG A   1      -5.911  -2.654 125.298  0.00  0.00    +0.190 C 
BRANCH  28  29
ATOM     29  O   LIG A   1      -5.259  -3.533 124.388  0.00  0.00    -0.392 OA
ATOM     30  H   LIG A   1      -4.300  -3.441 124.546  0.00  0.00    +0.209 HD
ENDBRANCH  28  29
ENDBRANCH   3  28
BRANCH   6  31
ATOM     31  O   LIG A   1      -9.810  -0.455 123.463  0.00  0.00    -0.450 OA
BRANCH  31  32
ATOM     32  C   LIG A   1     -10.293   0.806 123.366  0.00  0.00    +0.332 C 
ATOM     33  O   LIG A   1     -11.230   1.270 124.006  0.00  0.00    -0.246 OA
BRANCH  32  34
ATOM     34  C   LIG A   1      -9.634   1.469 122.232  0.00  0.00    +0.092 C 
ATOM     35  C   LIG A   1      -8.984   2.631 122.426  0.00  0.00    +0.015 C 
BRANCH  35  36
ATOM     36  C   LIG A   1      -8.305   3.368 121.348  0.00  0.00    -0.021 A 
ATOM     37  C   LIG A   1      -6.915   3.566 121.413  0.00  0.00    +0.057 A 
ATOM     38  C   LIG A   1      -6.240   4.207 120.370  0.00  0.00    +0.162 A 
ATOM     39  C   LIG A   1      -6.971   4.650 119.263  0.00  0.00    +0.159 A 
ATOM     40  C   LIG A   1      -8.341   4.468 119.180  0.00  0.00    +0.050 A 
ATOM     41  C   LIG A   1      -9.006   3.820 120.219  0.00  0.00    +0.012 A 
BRANCH  38  42
ATOM     42  O   LIG A   1      -4.890   4.451 120.309  0.00  0.00    -0.491 OA
ATOM     43  C   LIG A   1      -4.334   5.193 121.390  0.00  0.00    +0.277 C 
ENDBRANCH  38  42
BRANCH  39  44
ATOM     44  O   LIG A   1      -6.340   5.268 118.217  0.00  0.00    -0.503 OA
ATOM     45  H   LIG A   1      -7.050   5.477 117.582  0.00  0.00    +0.292 HD
ENDBRANCH  39  44
ENDBRANCH  35  36
ENDBRANCH  32  34
ENDBRANCH  31  32
ENDBRANCH   6  31
TORSDOF 15
ENDMDL
MODEL 2
REMARK VINA RESULT:      -8.3      2.748      6.275
REMARK  Name = NuBBE_417
REMARK  17 active torsions:
REMARK  status: ('A' for Active; 'I' for Inactive)
REMARK    1  A    between atoms: C_4  and  O_12
REMARK    2  A    between atoms: C_8  and  C_9
REMARK    3  A    between atoms: C_9  and  O_10
REMARK    4  A    between atoms: O_12  and  C_13
REMARK    5  A    between atoms: C_16  and  C_24
REMARK    6  A    between atoms: C_18  and  O_23
REMARK    7  A    between atoms: C_20  and  O_22
REMARK    8  A    between atoms: C_24  and  O_25
REMARK    9  A    between atoms: C_26  and  O_28
REMARK   10  A    between atoms: O_28  and  C_29
REMARK   11  A    between atoms: C_29  and  C_30
REMARK   12  A    between atoms: C_31  and  C_32
REMARK   13  A    between atoms: C_34  and  O_35
REMARK   14  A    between atoms: O_35  and  C_36
REMARK   15  A    between atoms: C_37  and  O_40
REMARK   16  A    between atoms: C_44  and  O_49
REMARK   17  A    between atoms: C_46  and  C_48
REMARK                            x       y       z     vdW  Elec       q    Type
REMARK                         _______ _______ _______ _____ _____    ______ ____
ROOT
ATOM      1  C   LIG A   1      -6.596  -1.073 125.526  0.00  0.00    +0.298 C 
ATOM      2  O   LIG A   1      -6.578  -1.856 124.334  0.00  0.00    -0.339 OA
ATOM      3  C   LIG A   1      -7.845  -2.045 123.690  0.00  0.00    +0.178 C 
ATOM      4  C   LIG A   1      -8.804  -2.761 124.651  0.00  0.00    +0.178 C 
ATOM      5  C   LIG A   1      -8.974  -1.991 125.966  0.00  0.00    +0.191 C 
ATOM      6  C   LIG A   1      -7.635  -1.543 126.570  0.00  0.00    +0.263 C 
ENDROOT
BRANCH   5   7
ATOM      7  O   LIG A   1      -9.832  -0.865 125.733  0.00  0.00    -0.385 OA
ATOM      8  H   LIG A   1      -9.375  -0.278 125.102  0.00  0.00    +0.210 HD
ENDBRANCH   5   7
BRANCH   4   9
ATOM      9  O   LIG A   1      -8.306  -4.076 124.935  0.00  0.00    -0.386 OA
ATOM     10  H   LIG A   1      -7.367  -3.984 125.180  0.00  0.00    +0.210 HD
ENDBRANCH   4   9
BRANCH   1  11
ATOM     11  O   LIG A   1      -6.748   0.317 125.274  0.00  0.00    -0.308 OA
BRANCH  11  14
ATOM     12  C   LIG A   1      -5.011   2.694 125.550  0.00  0.00    +0.041 C 
ATOM     13  C   LIG A   1      -5.313   1.642 126.636  0.00  0.00    +0.071 C 
ATOM     14  C   LIG A   1      -6.727   1.090 126.481  0.00  0.00    +0.313 C 
ATOM     15  O   LIG A   1      -7.722   2.125 126.499  0.00  0.00    -0.470 OA
ATOM     16  C   LIG A   1      -7.432   3.235 125.754  0.00  0.00    +0.201 C 
ATOM     17  C   LIG A   1      -6.223   3.552 125.268  0.00  0.00    +0.074 C 
ATOM     18  C   LIG A   1      -3.802   3.446 126.139  0.00  0.00    +0.040 C 
ATOM     19  C   LIG A   1      -3.837   3.239 127.660  0.00  0.00    +0.118 C 
ATOM     20  C   LIG A   1      -5.087   2.403 127.953  0.00  0.00    +0.024 C 
ATOM     21  C   LIG A   1      -4.990   1.482 129.163  0.00  0.00    +0.010 C 
BRANCH  17  22
ATOM     22  C   LIG A   1      -6.085   4.724 124.386  0.00  0.00    +0.336 C 
ATOM     23  O   LIG A   1      -5.627   4.706 123.253  0.00  0.00    -0.245 OA
BRANCH  22  24
ATOM     24  O   LIG A   1      -6.490   5.873 124.949  0.00  0.00    -0.477 OA
ATOM     25  H   LIG A   1      -6.898   6.372 124.214  0.00  0.00    +0.295 HD
ENDBRANCH  22  24
ENDBRANCH  17  22
BRANCH  19  26
ATOM     26  O   LIG A   1      -2.660   2.554 128.068  0.00  0.00    -0.392 OA
ATOM     27  H   LIG A   1      -1.949   3.215 128.146  0.00  0.00    +0.210 HD
ENDBRANCH  19  26
ENDBRANCH  11  14
ENDBRANCH   1  11
BRANCH   3  28
ATOM     28  C   LIG A   1      -8.417  -0.768 123.050  0.00  0.00    +0.190 C 
BRANCH  28  29
ATOM     29  O   LIG A   1      -9.804  -0.904 122.760  0.00  0.00    -0.392 OA
ATOM     30  H   LIG A   1      -9.871  -1.167 121.822  0.00  0.00    +0.209 HD
ENDBRANCH  28  29
ENDBRANCH   3  28
BRANCH   6  31
ATOM     31  O   LIG A   1      -7.007  -2.633 127.286  0.00  0.00    -0.450 OA
BRANCH  31  32
ATOM     32  C   LIG A   1      -6.998  -2.476 128.631  0.00  0.00    +0.332 C 
ATOM     33  O   LIG A   1      -6.688  -3.330 129.453  0.00  0.00    -0.246 OA
BRANCH  32  34
ATOM     34  C   LIG A   1      -7.602  -1.175 128.949  0.00  0.00    +0.092 C 
ATOM     35  C   LIG A   1      -7.879  -0.865 130.228  0.00  0.00    +0.015 C 
BRANCH  35  36
ATOM     36  C   LIG A   1      -8.492   0.408 130.639  0.00  0.00    -0.021 A 
ATOM     37  C   LIG A   1      -8.505   1.491 129.743  0.00  0.00    +0.057 A 
ATOM     38  C   LIG A   1      -9.140   2.689 130.087  0.00  0.00    +0.162 A 
ATOM     39  C   LIG A   1      -9.757   2.792 131.337  0.00  0.00    +0.159 A 
ATOM     40  C   LIG A   1      -9.753   1.738 132.236  0.00  0.00    +0.050 A 
ATOM     41  C   LIG A   1      -9.128   0.544 131.882  0.00  0.00    +0.012 A 
BRANCH  38  42
ATOM     42  O   LIG A   1      -9.230   3.811 129.301  0.00  0.00    -0.491 OA
ATOM     43  C   LIG A   1      -8.033   4.564 129.136  0.00  0.00    +0.277 C 
ENDBRANCH  38  42
BRANCH  39  44
ATOM     44  O   LIG A   1     -10.400   3.944 131.701  0.00  0.00    -0.503 OA
ATOM     45  H   LIG A   1      -9.952   4.238 132.516  0.00  0.00    +0.292 HD
ENDBRANCH  39  44
ENDBRANCH  35  36
ENDBRANCH  32  34
ENDBRANCH  31  32
ENDBRANCH   6  31
TORSDOF 15
ENDMDL
MODEL 3
REMARK VINA RESULT:      -8.3      2.742      4.708
REMARK  Name = NuBBE_417
REMARK  17 active torsions:
REMARK  status: ('A' for Active; 'I' for Inactive)
REMARK    1  A    between atoms: C_4  and  O_12
REMARK    2  A    between atoms: C_8  and  C_9
REMARK    3  A    between atoms: C_9  and  O_10
REMARK    4  A    between atoms: O_12  and  C_13
REMARK    5  A    between atoms: C_16  and  C_24
REMARK    6  A    between atoms: C_18  and  O_23
REMARK    7  A    between atoms: C_20  and  O_22
REMARK    8  A    between atoms: C_24  and  O_25
REMARK    9  A    between atoms: C_26  and  O_28
REMARK   10  A    between atoms: O_28  and  C_29
REMARK   11  A    between atoms: C_29  and  C_30
REMARK   12  A    between atoms: C_31  and  C_32
REMARK   13  A    between atoms: C_34  and  O_35
REMARK   14  A    between atoms: O_35  and  C_36
REMARK   15  A    between atoms: C_37  and  O_40
REMARK   16  A    between atoms: C_44  and  O_49
REMARK   17  A    between atoms: C_46  and  C_48
REMARK                            x       y       z     vdW  Elec       q    Type
REMARK                         _______ _______ _______ _____ _____    ______ ____
ROOT
ATOM      1  C   LIG A   1      -8.842  -1.015 125.901  0.00  0.00    +0.298 C 
ATOM      2  O   LIG A   1      -9.746  -1.932 125.285  0.00  0.00    -0.339 OA
ATOM      3  C   LIG A   1      -9.207  -2.719 124.215  0.00  0.00    +0.178 C 
ATOM      4  C   LIG A   1      -8.717  -1.791 123.094  0.00  0.00    +0.178 C 
ATOM      5  C   LIG A   1      -7.680  -0.782 123.602  0.00  0.00    +0.191 C 
ATOM      6  C   LIG A   1      -8.111  -0.089 124.902  0.00  0.00    +0.263 C 
ENDROOT
BRANCH   5   7
ATOM      7  O   LIG A   1      -6.426  -1.457 123.774  0.00  0.00    -0.385 OA
ATOM      8  H   LIG A   1      -5.980  -1.051 124.540  0.00  0.00    +0.210 HD
ENDBRANCH   5   7
BRANCH   4   9
ATOM      9  O   LIG A   1      -9.834  -1.082 122.538  0.00  0.00    -0.386 OA
ATOM     10  H   LIG A   1      -9.475  -0.365 121.982  0.00  0.00    +0.210 HD
ENDBRANCH   4   9
BRANCH   1  11
ATOM     11  O   LIG A   1      -7.904  -1.652 126.756  0.00  0.00    -0.308 OA
BRANCH  11  14
ATOM     12  C   LIG A   1      -7.422  -2.248 129.613  0.00  0.00    +0.041 C 
ATOM     13  C   LIG A   1      -7.818  -0.886 129.009  0.00  0.00    +0.071 C 
ATOM     14  C   LIG A   1      -7.231  -0.718 127.610  0.00  0.00    +0.313 C 
ATOM     15  O   LIG A   1      -5.804  -0.875 127.596  0.00  0.00    -0.470 OA
ATOM     16  C   LIG A   1      -5.318  -1.927 128.323  0.00  0.00    +0.201 C 
ATOM     17  C   LIG A   1      -6.003  -2.617 129.246  0.00  0.00    +0.074 C 
ATOM     18  C   LIG A   1      -7.672  -2.033 131.117  0.00  0.00    +0.040 C 
ATOM     19  C   LIG A   1      -7.611  -0.521 131.376  0.00  0.00    +0.118 C 
ATOM     20  C   LIG A   1      -7.284   0.133 130.030  0.00  0.00    +0.024 C 
ATOM     21  C   LIG A   1      -7.854   1.532 129.826  0.00  0.00    +0.010 C 
BRANCH  17  22
ATOM     22  C   LIG A   1      -5.383  -3.799 129.869  0.00  0.00    +0.336 C 
ATOM     23  O   LIG A   1      -5.989  -4.765 130.308  0.00  0.00    -0.245 OA
BRANCH  22  24
ATOM     24  O   LIG A   1      -4.046  -3.727 129.951  0.00  0.00    -0.477 OA
ATOM     25  H   LIG A   1      -3.830  -2.839 129.603  0.00  0.00    +0.295 HD
ENDBRANCH  22  24
ENDBRANCH  17  22
BRANCH  19  26
ATOM     26  O   LIG A   1      -8.869  -0.077 131.865  0.00  0.00    -0.392 OA
ATOM     27  H   LIG A   1      -8.789   0.022 132.831  0.00  0.00    +0.210 HD
ENDBRANCH  19  26
ENDBRANCH  11  14
ENDBRANCH   1  11
BRANCH   3  28
ATOM     28  C   LIG A   1      -8.176  -3.769 124.670  0.00  0.00    +0.190 C 
BRANCH  28  29
ATOM     29  O   LIG A   1      -8.422  -4.199 126.004  0.00  0.00    -0.392 OA
ATOM     30  H   LIG A   1      -8.145  -3.469 126.590  0.00  0.00    +0.209 HD
ENDBRANCH  28  29
ENDBRANCH   3  28
BRANCH   6  31
ATOM     31  O   LIG A   1      -9.032   0.993 124.624  0.00  0.00    -0.450 OA
BRANCH  31  32
ATOM     32  C   LIG A   1      -8.580   2.212 125.003  0.00  0.00    +0.332 C 
ATOM     33  O   LIG A   1      -8.628   2.678 126.136  0.00  0.00    -0.246 OA
BRANCH  32  34
ATOM     34  C   LIG A   1      -8.199   2.960 123.797  0.00  0.00    +0.092 C 
ATOM     35  C   LIG A   1      -6.958   2.827 123.296  0.00  0.00    +0.015 C 
BRANCH  35  36
ATOM     36  C   LIG A   1      -6.486   3.543 122.100  0.00  0.00    -0.021 A 
ATOM     37  C   LIG A   1      -7.313   3.618 120.966  0.00  0.00    +0.057 A 
ATOM     38  C   LIG A   1      -6.913   4.348 119.842  0.00  0.00    +0.162 A 
ATOM     39  C   LIG A   1      -5.675   4.999 119.865  0.00  0.00    +0.159 A 
ATOM     40  C   LIG A   1      -4.844   4.936 120.971  0.00  0.00    +0.050 A 
ATOM     41  C   LIG A   1      -5.254   4.215 122.091  0.00  0.00    +0.012 A 
BRANCH  38  42
ATOM     42  O   LIG A   1      -7.630   4.505 118.683  0.00  0.00    -0.491 OA
ATOM     43  C   LIG A   1      -9.031   4.269 118.771  0.00  0.00    +0.277 C 
ENDBRANCH  38  42
BRANCH  39  44
ATOM     44  O   LIG A   1      -5.259   5.735 118.789  0.00  0.00    -0.503 OA
ATOM     45  H   LIG A   1      -5.090   6.628 119.143  0.00  0.00    +0.292 HD
ENDBRANCH  39  44
ENDBRANCH  35  36
ENDBRANCH  32  34
ENDBRANCH  31  32
ENDBRANCH   6  31
TORSDOF 15
ENDMDL
MODEL 4
REMARK VINA RESULT:      -8.2      3.819      6.678
REMARK  Name = NuBBE_417
REMARK  17 active torsions:
REMARK  status: ('A' for Active; 'I' for Inactive)
REMARK    1  A    between atoms: C_4  and  O_12
REMARK    2  A    between atoms: C_8  and  C_9
REMARK    3  A    between atoms: C_9  and  O_10
REMARK    4  A    between atoms: O_12  and  C_13
REMARK    5  A    between atoms: C_16  and  C_24
REMARK    6  A    between atoms: C_18  and  O_23
REMARK    7  A    between atoms: C_20  and  O_22
REMARK    8  A    between atoms: C_24  and  O_25
REMARK    9  A    between atoms: C_26  and  O_28
REMARK   10  A    between atoms: O_28  and  C_29
REMARK   11  A    between atoms: C_29  and  C_30
REMARK   12  A    between atoms: C_31  and  C_32
REMARK   13  A    between atoms: C_34  and  O_35
REMARK   14  A    between atoms: O_35  and  C_36
REMARK   15  A    between atoms: C_37  and  O_40
REMARK   16  A    between atoms: C_44  and  O_49
REMARK   17  A    between atoms: C_46  and  C_48
REMARK                            x       y       z     vdW  Elec       q    Type
REMARK                         _______ _______ _______ _____ _____    ______ ____
ROOT
ATOM      1  C   LIG A   1      -5.189   3.782 128.917  0.00  0.00    +0.298 C 
ATOM      2  O   LIG A   1      -3.904   3.363 129.373  0.00  0.00    -0.339 OA
ATOM      3  C   LIG A   1      -2.916   4.395 129.493  0.00  0.00    +0.178 C 
ATOM      4  C   LIG A   1      -2.687   5.046 128.121  0.00  0.00    +0.178 C 
ATOM      5  C   LIG A   1      -3.987   5.606 127.532  0.00  0.00    +0.191 C 
ATOM      6  C   LIG A   1      -5.154   4.611 127.612  0.00  0.00    +0.263 C 
ENDROOT
BRANCH   5   7
ATOM      7  O   LIG A   1      -4.311   6.829 128.208  0.00  0.00    -0.385 OA
ATOM      8  H   LIG A   1      -3.500   7.372 128.230  0.00  0.00    +0.210 HD
ENDBRANCH   5   7
BRANCH   4   9
ATOM      9  O   LIG A   1      -2.136   4.077 127.218  0.00  0.00    -0.386 OA
ATOM     10  H   LIG A   1      -1.197   3.960 127.454  0.00  0.00    +0.210 HD
ENDBRANCH   4   9
BRANCH   1  11
ATOM     11  O   LIG A   1      -5.934   4.468 129.913  0.00  0.00    -0.308 OA
BRANCH  11  14
ATOM     12  C   LIG A   1      -8.211   5.721 131.325  0.00  0.00    +0.041 C 
ATOM     13  C   LIG A   1      -7.546   4.372 131.663  0.00  0.00    +0.071 C 
ATOM     14  C   LIG A   1      -7.032   3.686 130.400  0.00  0.00    +0.313 C 
ATOM     15  O   LIG A   1      -8.065   3.501 129.421  0.00  0.00    -0.470 OA
ATOM     16  C   LIG A   1      -8.888   4.576 129.221  0.00  0.00    +0.201 C 
ATOM     17  C   LIG A   1      -8.993   5.637 130.035  0.00  0.00    +0.074 C 
ATOM     18  C   LIG A   1      -9.054   6.005 132.582  0.00  0.00    +0.040 C 
ATOM     19  C   LIG A   1      -9.314   4.655 133.267  0.00  0.00    +0.118 C 
ATOM     20  C   LIG A   1      -8.657   3.590 132.383  0.00  0.00    +0.024 C 
ATOM     21  C   LIG A   1      -8.138   2.359 133.117  0.00  0.00    +0.010 C 
BRANCH  17  22
ATOM     22  C   LIG A   1      -9.841   6.773 129.632  0.00  0.00    +0.336 C 
ATOM     23  O   LIG A   1      -9.440   7.901 129.388  0.00  0.00    -0.245 OA
BRANCH  22  24
ATOM     24  O   LIG A   1     -11.148   6.477 129.575  0.00  0.00    -0.477 OA
ATOM     25  H   LIG A   1     -11.594   7.348 129.578  0.00  0.00    +0.295 HD
ENDBRANCH  22  24
ENDBRANCH  17  22
BRANCH  19  26
ATOM     26  O   LIG A   1      -8.734   4.667 134.565  0.00  0.00    -0.392 OA
ATOM     27  H   LIG A   1      -7.781   4.836 134.458  0.00  0.00    +0.210 HD
ENDBRANCH  19  26
ENDBRANCH  11  14
ENDBRANCH   1  11
BRANCH   3  28
ATOM     28  C   LIG A   1      -3.189   5.392 130.635  0.00  0.00    +0.190 C 
BRANCH  28  29
ATOM     29  O   LIG A   1      -2.389   6.562 130.510  0.00  0.00    -0.392 OA
ATOM     30  H   LIG A   1      -2.998   7.324 130.531  0.00  0.00    +0.209 HD
ENDBRANCH  28  29
ENDBRANCH   3  28
BRANCH   6  31
ATOM     31  O   LIG A   1      -5.077   3.645 126.536  0.00  0.00    -0.450 OA
BRANCH  31  32
ATOM     32  C   LIG A   1      -6.244   3.465 125.873  0.00  0.00    +0.332 C 
ATOM     33  O   LIG A   1      -7.173   2.751 126.231  0.00  0.00    -0.246 OA
BRANCH  32  34
ATOM     34  C   LIG A   1      -6.136   4.118 124.561  0.00  0.00    +0.092 C 
ATOM     35  C   LIG A   1      -5.997   3.367 123.454  0.00  0.00    +0.015 C 
BRANCH  35  36
ATOM     36  C   LIG A   1      -5.872   3.934 122.102  0.00  0.00    -0.021 A 
ATOM     37  C   LIG A   1      -6.907   3.742 121.170  0.00  0.00    +0.057 A 
ATOM     38  C   LIG A   1      -6.838   4.326 119.902  0.00  0.00    +0.162 A 
ATOM     39  C   LIG A   1      -5.721   5.101 119.574  0.00  0.00    +0.159 A 
ATOM     40  C   LIG A   1      -4.689   5.300 120.475  0.00  0.00    +0.050 A 
ATOM     41  C   LIG A   1      -4.769   4.723 121.741  0.00  0.00    +0.012 A 
BRANCH  38  42
ATOM     42  O   LIG A   1      -7.784   4.223 118.912  0.00  0.00    -0.491 OA
ATOM     43  C   LIG A   1      -9.143   4.201 119.338  0.00  0.00    +0.277 C 
ENDBRANCH  38  42
BRANCH  39  44
ATOM     44  O   LIG A   1      -5.628   5.700 118.347  0.00  0.00    -0.503 OA
ATOM     45  H   LIG A   1      -4.866   6.305 118.417  0.00  0.00    +0.292 HD
ENDBRANCH  39  44
ENDBRANCH  35  36
ENDBRANCH  32  34
ENDBRANCH  31  32
ENDBRANCH   6  31
TORSDOF 15
ENDMDL
MODEL 5
REMARK VINA RESULT:      -8.1      3.701      6.604
REMARK  Name = NuBBE_417
REMARK  17 active torsions:
REMARK  status: ('A' for Active; 'I' for Inactive)
REMARK    1  A    between atoms: C_4  and  O_12
REMARK    2  A    between atoms: C_8  and  C_9
REMARK    3  A    between atoms: C_9  and  O_10
REMARK    4  A    between atoms: O_12  and  C_13
REMARK    5  A    between atoms: C_16  and  C_24
REMARK    6  A    between atoms: C_18  and  O_23
REMARK    7  A    between atoms: C_20  and  O_22
REMARK    8  A    between atoms: C_24  and  O_25
REMARK    9  A    between atoms: C_26  and  O_28
REMARK   10  A    between atoms: O_28  and  C_29
REMARK   11  A    between atoms: C_29  and  C_30
REMARK   12  A    between atoms: C_31  and  C_32
REMARK   13  A    between atoms: C_34  and  O_35
REMARK   14  A    between atoms: O_35  and  C_36
REMARK   15  A    between atoms: C_37  and  O_40
REMARK   16  A    between atoms: C_44  and  O_49
REMARK   17  A    between atoms: C_46  and  C_48
REMARK                            x       y       z     vdW  Elec       q    Type
REMARK                         _______ _______ _______ _____ _____    ______ ____
ROOT
ATOM      1  C   LIG A   1      -8.255   4.603 128.896  0.00  0.00    +0.298 C 
ATOM      2  O   LIG A   1      -9.441   5.397 128.875  0.00  0.00    -0.339 OA
ATOM      3  C   LIG A   1     -10.037   5.665 130.151  0.00  0.00    +0.178 C 
ATOM      4  C   LIG A   1     -10.427   4.339 130.820  0.00  0.00    +0.178 C 
ATOM      5  C   LIG A   1      -9.224   3.400 130.971  0.00  0.00    +0.191 C 
ATOM      6  C   LIG A   1      -8.400   3.279 129.680  0.00  0.00    +0.263 C 
ENDROOT
BRANCH   5   7
ATOM      7  O   LIG A   1      -8.410   3.864 132.056  0.00  0.00    -0.385 OA
ATOM      8  H   LIG A   1      -7.994   4.700 131.771  0.00  0.00    +0.210 HD
ENDBRANCH   5   7
BRANCH   4   9
ATOM      9  O   LIG A   1     -11.441   3.689 130.040  0.00  0.00    -0.386 OA
ATOM     10  H   LIG A   1     -11.300   3.946 129.110  0.00  0.00    +0.210 HD
ENDBRANCH   4   9
BRANCH   1  11
ATOM     11  O   LIG A   1      -7.116   5.320 129.350  0.00  0.00    -0.308 OA
BRANCH  11  14
ATOM     12  C   LIG A   1      -4.307   6.117 128.879  0.00  0.00    +0.041 C 
ATOM     13  C   LIG A   1      -4.915   4.715 128.673  0.00  0.00    +0.071 C 
ATOM     14  C   LIG A   1      -6.027   4.450 129.683  0.00  0.00    +0.313 C 
ATOM     15  O   LIG A   1      -5.582   4.606 131.039  0.00  0.00    -0.470 OA
ATOM     16  C   LIG A   1      -4.807   5.708 131.282  0.00  0.00    +0.201 C 
ATOM     17  C   LIG A   1      -4.210   6.460 130.347  0.00  0.00    +0.074 C 
ATOM     18  C   LIG A   1      -2.958   6.010 128.143  0.00  0.00    +0.040 C 
ATOM     19  C   LIG A   1      -2.593   4.520 128.082  0.00  0.00    +0.118 C 
ATOM     20  C   LIG A   1      -3.709   3.772 128.818  0.00  0.00    +0.024 C 
ATOM     21  C   LIG A   1      -3.994   2.362 128.316  0.00  0.00    +0.010 C 
BRANCH  17  22
ATOM     22  C   LIG A   1      -3.498   7.685 130.754  0.00  0.00    +0.336 C 
ATOM     23  O   LIG A   1      -2.657   7.752 131.637  0.00  0.00    -0.245 OA
BRANCH  22  24
ATOM     24  O   LIG A   1      -3.875   8.779 130.074  0.00  0.00    -0.477 OA
ATOM     25  H   LIG A   1      -4.280   9.357 130.751  0.00  0.00    +0.295 HD
ENDBRANCH  22  24
ENDBRANCH  17  22
BRANCH  19  26
ATOM     26  O   LIG A   1      -2.517   4.110 126.723  0.00  0.00    -0.392 OA
ATOM     27  H   LIG A   1      -1.636   4.359 126.392  0.00  0.00    +0.210 HD
ENDBRANCH  19  26
ENDBRANCH  11  14
ENDBRANCH   1  11
BRANCH   3  28
ATOM     28  C   LIG A   1      -9.210   6.610 131.041  0.00  0.00    +0.190 C 
BRANCH  28  29
ATOM     29  O   LIG A   1      -9.587   6.504 132.409  0.00  0.00    -0.392 OA
ATOM     30  H   LIG A   1      -8.875   6.919 132.931  0.00  0.00    +0.209 HD
ENDBRANCH  28  29
ENDBRANCH   3  28
BRANCH   6  31
ATOM     31  O   LIG A   1      -9.019   2.346 128.764  0.00  0.00    -0.450 OA
BRANCH  31  32
ATOM     32  C   LIG A   1      -8.168   1.421 128.261  0.00  0.00    +0.332 C 
ATOM     33  O   LIG A   1      -8.006   0.283 128.686  0.00  0.00    -0.246 OA
BRANCH  32  34
ATOM     34  C   LIG A   1      -7.332   2.068 127.240  0.00  0.00    +0.092 C 
ATOM     35  C   LIG A   1      -7.812   2.234 125.995  0.00  0.00    +0.015 C 
BRANCH  35  36
ATOM     36  C   LIG A   1      -7.043   2.862 124.908  0.00  0.00    -0.021 A 
ATOM     37  C   LIG A   1      -7.580   2.894 123.608  0.00  0.00    +0.057 A 
ATOM     38  C   LIG A   1      -6.896   3.542 122.575  0.00  0.00    +0.162 A 
ATOM     39  C   LIG A   1      -5.670   4.154 122.854  0.00  0.00    +0.159 A 
ATOM     40  C   LIG A   1      -5.123   4.131 124.126  0.00  0.00    +0.050 A 
ATOM     41  C   LIG A   1      -5.814   3.492 125.153  0.00  0.00    +0.012 A 
BRANCH  38  42
ATOM     42  O   LIG A   1      -7.317   3.651 121.272  0.00  0.00    -0.491 OA
ATOM     43  C   LIG A   1      -8.717   3.527 121.049  0.00  0.00    +0.277 C 
ENDBRANCH  38  42
BRANCH  39  44
ATOM     44  O   LIG A   1      -4.982   4.809 121.869  0.00  0.00    -0.503 OA
ATOM     45  H   LIG A   1      -5.627   4.932 121.148  0.00  0.00    +0.292 HD
ENDBRANCH  39  44
ENDBRANCH  35  36
ENDBRANCH  32  34
ENDBRANCH  31  32
ENDBRANCH   6  31
TORSDOF 15
ENDMDL
MODEL 6
REMARK VINA RESULT:      -7.9      4.523      7.595
REMARK  Name = NuBBE_417
REMARK  17 active torsions:
REMARK  status: ('A' for Active; 'I' for Inactive)
REMARK    1  A    between atoms: C_4  and  O_12
REMARK    2  A    between atoms: C_8  and  C_9
REMARK    3  A    between atoms: C_9  and  O_10
REMARK    4  A    between atoms: O_12  and  C_13
REMARK    5  A    between atoms: C_16  and  C_24
REMARK    6  A    between atoms: C_18  and  O_23
REMARK    7  A    between atoms: C_20  and  O_22
REMARK    8  A    between atoms: C_24  and  O_25
REMARK    9  A    between atoms: C_26  and  O_28
REMARK   10  A    between atoms: O_28  and  C_29
REMARK   11  A    between atoms: C_29  and  C_30
REMARK   12  A    between atoms: C_31  and  C_32
REMARK   13  A    between atoms: C_34  and  O_35
REMARK   14  A    between atoms: O_35  and  C_36
REMARK   15  A    between atoms: C_37  and  O_40
REMARK   16  A    between atoms: C_44  and  O_49
REMARK   17  A    between atoms: C_46  and  C_48
REMARK                            x       y       z     vdW  Elec       q    Type
REMARK                         _______ _______ _______ _____ _____    ______ ____
ROOT
ATOM      1  C   LIG A   1      -8.141   4.259 129.292  0.00  0.00    +0.298 C 
ATOM      2  O   LIG A   1      -9.294   5.022 128.942  0.00  0.00    -0.339 OA
ATOM      3  C   LIG A   1     -10.018   5.600 130.037  0.00  0.00    +0.178 C 
ATOM      4  C   LIG A   1     -10.515   4.484 130.966  0.00  0.00    +0.178 C 
ATOM      5  C   LIG A   1      -9.362   3.612 131.478  0.00  0.00    +0.191 C 
ATOM      6  C   LIG A   1      -8.407   3.173 130.359  0.00  0.00    +0.263 C 
ENDROOT
BRANCH   5   7
ATOM      7  O   LIG A   1      -8.657   4.332 132.498  0.00  0.00    -0.385 OA
ATOM      8  H   LIG A   1      -7.868   4.728 132.082  0.00  0.00    +0.210 HD
ENDBRANCH   5   7
BRANCH   4   9
ATOM      9  O   LIG A   1     -11.456   3.659 130.264  0.00  0.00    -0.386 OA
ATOM     10  H   LIG A   1     -12.349   3.983 130.487  0.00  0.00    +0.210 HD
ENDBRANCH   4   9
BRANCH   1  11
ATOM     11  O   LIG A   1      -7.038   5.067 129.678  0.00  0.00    -0.308 OA
BRANCH  11  14
ATOM     12  C   LIG A   1      -4.587   5.068 128.022  0.00  0.00    +0.041 C 
ATOM     13  C   LIG A   1      -5.215   3.856 128.739  0.00  0.00    +0.071 C 
ATOM     14  C   LIG A   1      -5.894   4.282 130.038  0.00  0.00    +0.313 C 
ATOM     15  O   LIG A   1      -4.997   4.974 130.920  0.00  0.00    -0.470 OA
ATOM     16  C   LIG A   1      -4.197   5.914 130.330  0.00  0.00    +0.201 C 
ATOM     17  C   LIG A   1      -3.978   6.033 129.012  0.00  0.00    +0.074 C 
ATOM     18  C   LIG A   1      -3.587   4.406 127.056  0.00  0.00    +0.040 C 
ATOM     19  C   LIG A   1      -3.254   3.020 127.629  0.00  0.00    +0.118 C 
ATOM     20  C   LIG A   1      -4.028   2.901 128.945  0.00  0.00    +0.024 C 
ATOM     21  C   LIG A   1      -4.460   1.489 129.325  0.00  0.00    +0.010 C 
BRANCH  17  22
ATOM     22  C   LIG A   1      -3.179   7.167 128.514  0.00  0.00    +0.336 C 
ATOM     23  O   LIG A   1      -2.043   7.090 128.073  0.00  0.00    -0.245 OA
BRANCH  22  24
ATOM     24  O   LIG A   1      -3.806   8.350 128.607  0.00  0.00    -0.477 OA
ATOM     25  H   LIG A   1      -3.145   8.941 129.020  0.00  0.00    +0.295 HD
ENDBRANCH  22  24
ENDBRANCH  17  22
BRANCH  19  26
ATOM     26  O   LIG A   1      -3.662   2.020 126.705  0.00  0.00    -0.392 OA
ATOM     27  H   LIG A   1      -4.620   2.124 126.566  0.00  0.00    +0.210 HD
ENDBRANCH  19  26
ENDBRANCH  11  14
ENDBRANCH   1  11
BRANCH   3  28
ATOM     28  C   LIG A   1      -9.266   6.738 130.751  0.00  0.00    +0.190 C 
BRANCH  28  29
ATOM     29  O   LIG A   1      -8.731   7.675 129.822  0.00  0.00    -0.392 OA
ATOM     30  H   LIG A   1      -9.356   7.717 129.074  0.00  0.00    +0.209 HD
ENDBRANCH  28  29
ENDBRANCH   3  28
BRANCH   6  31
ATOM     31  O   LIG A   1      -8.949   2.040 129.640  0.00  0.00    -0.450 OA
BRANCH  31  32
ATOM     32  C   LIG A   1      -8.225   0.904 129.774  0.00  0.00    +0.332 C 
ATOM     33  O   LIG A   1      -7.813   0.432 130.828  0.00  0.00    -0.246 OA
BRANCH  32  34
ATOM     34  C   LIG A   1      -7.852   0.431 128.434  0.00  0.00    +0.092 C 
ATOM     35  C   LIG A   1      -7.276  -0.776 128.290  0.00  0.00    +0.015 C 
BRANCH  35  36
ATOM     36  C   LIG A   1      -6.860  -1.325 126.989  0.00  0.00    -0.021 A 
ATOM     37  C   LIG A   1      -7.670  -2.279 126.349  0.00  0.00    +0.057 A 
ATOM     38  C   LIG A   1      -7.328  -2.766 125.084  0.00  0.00    +0.162 A 
ATOM     39  C   LIG A   1      -6.166  -2.291 124.468  0.00  0.00    +0.159 A 
ATOM     40  C   LIG A   1      -5.353  -1.353 125.082  0.00  0.00    +0.050 A 
ATOM     41  C   LIG A   1      -5.705  -0.865 126.338  0.00  0.00    +0.012 A 
BRANCH  38  42
ATOM     42  O   LIG A   1      -8.037  -3.687 124.353  0.00  0.00    -0.491 OA
ATOM     43  C   LIG A   1      -9.299  -3.259 123.853  0.00  0.00    +0.277 C 
ENDBRANCH  38  42
BRANCH  39  44
ATOM     44  O   LIG A   1      -5.810  -2.735 123.223  0.00  0.00    -0.503 OA
ATOM     45  H   LIG A   1      -5.928  -3.703 123.256  0.00  0.00    +0.292 HD
ENDBRANCH  39  44
ENDBRANCH  35  36
ENDBRANCH  32  34
ENDBRANCH  31  32
ENDBRANCH   6  31
TORSDOF 15
ENDMDL
MODEL 7
REMARK VINA RESULT:      -7.8      3.862      7.348
REMARK  Name = NuBBE_417
REMARK  17 active torsions:
REMARK  status: ('A' for Active; 'I' for Inactive)
REMARK    1  A    between atoms: C_4  and  O_12
REMARK    2  A    between atoms: C_8  and  C_9
REMARK    3  A    between atoms: C_9  and  O_10
REMARK    4  A    between atoms: O_12  and  C_13
REMARK    5  A    between atoms: C_16  and  C_24
REMARK    6  A    between atoms: C_18  and  O_23
REMARK    7  A    between atoms: C_20  and  O_22
REMARK    8  A    between atoms: C_24  and  O_25
REMARK    9  A    between atoms: C_26  and  O_28
REMARK   10  A    between atoms: O_28  and  C_29
REMARK   11  A    between atoms: C_29  and  C_30
REMARK   12  A    between atoms: C_31  and  C_32
REMARK   13  A    between atoms: C_34  and  O_35
REMARK   14  A    between atoms: O_35  and  C_36
REMARK   15  A    between atoms: C_37  and  O_40
REMARK   16  A    between atoms: C_44  and  O_49
REMARK   17  A    between atoms: C_46  and  C_48
REMARK                            x       y       z     vdW  Elec       q    Type
REMARK                         _______ _______ _______ _____ _____    ______ ____
ROOT
ATOM      1  C   LIG A   1      -5.098   4.282 128.884  0.00  0.00    +0.298 C 
ATOM      2  O   LIG A   1      -3.834   3.778 129.313  0.00  0.00    -0.339 OA
ATOM      3  C   LIG A   1      -2.830   4.763 129.593  0.00  0.00    +0.178 C 
ATOM      4  C   LIG A   1      -2.552   5.583 128.325  0.00  0.00    +0.178 C 
ATOM      5  C   LIG A   1      -3.825   6.245 127.783  0.00  0.00    +0.191 C 
ATOM      6  C   LIG A   1      -5.012   5.274 127.702  0.00  0.00    +0.263 C 
ENDROOT
BRANCH   5   7
ATOM      7  O   LIG A   1      -4.144   7.375 128.607  0.00  0.00    -0.385 OA
ATOM      8  H   LIG A   1      -3.315   7.672 129.026  0.00  0.00    +0.210 HD
ENDBRANCH   5   7
BRANCH   4   9
ATOM      9  O   LIG A   1      -1.995   4.730 127.315  0.00  0.00    -0.386 OA
ATOM     10  H   LIG A   1      -2.443   4.944 126.475  0.00  0.00    +0.210 HD
ENDBRANCH   4   9
BRANCH   1  11
ATOM     11  O   LIG A   1      -5.857   4.846 129.944  0.00  0.00    -0.308 OA
BRANCH  11  14
ATOM     12  C   LIG A   1      -8.357   5.856 131.161  0.00  0.00    +0.041 C 
ATOM     13  C   LIG A   1      -7.543   4.626 131.611  0.00  0.00    +0.071 C 
ATOM     14  C   LIG A   1      -6.871   3.951 130.419  0.00  0.00    +0.313 C 
ATOM     15  O   LIG A   1      -7.812   3.581 129.401  0.00  0.00    -0.470 OA
ATOM     16  C   LIG A   1      -8.755   4.525 129.096  0.00  0.00    +0.201 C 
ATOM     17  C   LIG A   1      -9.044   5.602 129.840  0.00  0.00    +0.074 C 
ATOM     18  C   LIG A   1      -9.301   6.088 132.355  0.00  0.00    +0.040 C 
ATOM     19  C   LIG A   1      -9.423   4.753 133.104  0.00  0.00    +0.118 C 
ATOM     20  C   LIG A   1      -8.583   3.741 132.318  0.00  0.00    +0.024 C 
ATOM     21  C   LIG A   1      -7.952   2.630 133.149  0.00  0.00    +0.010 C 
BRANCH  17  22
ATOM     22  C   LIG A   1     -10.007   6.594 129.329  0.00  0.00    +0.336 C 
ATOM     23  O   LIG A   1      -9.789   7.788 129.199  0.00  0.00    -0.245 OA
BRANCH  22  24
ATOM     24  O   LIG A   1     -11.207   6.074 129.026  0.00  0.00    -0.477 OA
ATOM     25  H   LIG A   1     -11.503   6.587 128.248  0.00  0.00    +0.295 HD
ENDBRANCH  22  24
ENDBRANCH  17  22
BRANCH  19  26
ATOM     26  O   LIG A   1      -8.927   4.909 134.427  0.00  0.00    -0.392 OA
ATOM     27  H   LIG A   1      -9.161   5.806 134.722  0.00  0.00    +0.210 HD
ENDBRANCH  19  26
ENDBRANCH  11  14
ENDBRANCH   1  11
BRANCH   3  28
ATOM     28  C   LIG A   1      -3.116   5.606 130.849  0.00  0.00    +0.190 C 
BRANCH  28  29
ATOM     29  O   LIG A   1      -2.296   6.768 130.896  0.00  0.00    -0.392 OA
ATOM     30  H   LIG A   1      -1.433   6.490 131.258  0.00  0.00    +0.209 HD
ENDBRANCH  28  29
ENDBRANCH   3  28
BRANCH   6  31
ATOM     31  O   LIG A   1      -4.924   4.457 126.510  0.00  0.00    -0.450 OA
BRANCH  31  32
ATOM     32  C   LIG A   1      -5.864   4.741 125.578  0.00  0.00    +0.332 C 
ATOM     33  O   LIG A   1      -6.155   5.857 125.164  0.00  0.00    -0.246 OA
BRANCH  32  34
ATOM     34  C   LIG A   1      -6.609   3.509 125.283  0.00  0.00    +0.092 C 
ATOM     35  C   LIG A   1      -7.078   3.295 124.041  0.00  0.00    +0.015 C 
BRANCH  35  36
ATOM     36  C   LIG A   1      -7.842   2.097 123.658  0.00  0.00    -0.021 A 
ATOM     37  C   LIG A   1      -7.222   0.836 123.704  0.00  0.00    +0.057 A 
ATOM     38  C   LIG A   1      -7.947  -0.322 123.407  0.00  0.00    +0.162 A 
ATOM     39  C   LIG A   1      -9.297  -0.205 123.061  0.00  0.00    +0.159 A 
ATOM     40  C   LIG A   1      -9.926   1.028 123.007  0.00  0.00    +0.050 A 
ATOM     41  C   LIG A   1      -9.200   2.177 123.313  0.00  0.00    +0.012 A 
BRANCH  38  42
ATOM     42  O   LIG A   1      -7.463  -1.606 123.426  0.00  0.00    -0.491 OA
ATOM     43  C   LIG A   1      -6.393  -1.890 122.530  0.00  0.00    +0.277 C 
ENDBRANCH  38  42
BRANCH  39  44
ATOM     44  O   LIG A   1     -10.040  -1.319 122.779  0.00  0.00    -0.503 OA
ATOM     45  H   LIG A   1     -10.916  -0.978 122.515  0.00  0.00    +0.292 HD
ENDBRANCH  39  44
ENDBRANCH  35  36
ENDBRANCH  32  34
ENDBRANCH  31  32
ENDBRANCH   6  31
TORSDOF 15
ENDMDL
MODEL 8
REMARK VINA RESULT:      -7.8      2.629      6.942
REMARK  Name = NuBBE_417
REMARK  17 active torsions:
REMARK  status: ('A' for Active; 'I' for Inactive)
REMARK    1  A    between atoms: C_4  and  O_12
REMARK    2  A    between atoms: C_8  and  C_9
REMARK    3  A    between atoms: C_9  and  O_10
REMARK    4  A    between atoms: O_12  and  C_13
REMARK    5  A    between atoms: C_16  and  C_24
REMARK    6  A    between atoms: C_18  and  O_23
REMARK    7  A    between atoms: C_20  and  O_22
REMARK    8  A    between atoms: C_24  and  O_25
REMARK    9  A    between atoms: C_26  and  O_28
REMARK   10  A    between atoms: O_28  and  C_29
REMARK   11  A    between atoms: C_29  and  C_30
REMARK   12  A    between atoms: C_31  and  C_32
REMARK   13  A    between atoms: C_34  and  O_35
REMARK   14  A    between atoms: O_35  and  C_36
REMARK   15  A    between atoms: C_37  and  O_40
REMARK   16  A    between atoms: C_44  and  O_49
REMARK   17  A    between atoms: C_46  and  C_48
REMARK                            x       y       z     vdW  Elec       q    Type
REMARK                         _______ _______ _______ _____ _____    ______ ____
ROOT
ATOM      1  C   LIG A   1      -6.157   1.900 124.848  0.00  0.00    +0.298 C 
ATOM      2  O   LIG A   1      -6.055   3.129 124.130  0.00  0.00    -0.339 OA
ATOM      3  C   LIG A   1      -7.239   3.938 124.102  0.00  0.00    +0.178 C 
ATOM      4  C   LIG A   1      -8.378   3.151 123.437  0.00  0.00    +0.178 C 
ATOM      5  C   LIG A   1      -8.647   1.822 124.151  0.00  0.00    +0.191 C 
ATOM      6  C   LIG A   1      -7.362   1.027 124.431  0.00  0.00    +0.263 C 
ENDROOT
BRANCH   5   7
ATOM      7  O   LIG A   1      -9.358   2.087 125.368  0.00  0.00    -0.385 OA
ATOM      8  H   LIG A   1      -9.694   3.001 125.314  0.00  0.00    +0.210 HD
ENDBRANCH   5   7
BRANCH   4   9
ATOM      9  O   LIG A   1      -8.045   2.893 122.065  0.00  0.00    -0.386 OA
ATOM     10  H   LIG A   1      -7.190   3.328 121.888  0.00  0.00    +0.210 HD
ENDBRANCH   4   9
BRANCH   1  11
ATOM     11  O   LIG A   1      -6.145   2.080 126.257  0.00  0.00    -0.308 OA
BRANCH  11  14
ATOM     12  C   LIG A   1      -5.119   3.775 128.452  0.00  0.00    +0.041 C 
ATOM     13  C   LIG A   1      -4.315   3.232 127.254  0.00  0.00    +0.071 C 
ATOM     14  C   LIG A   1      -4.842   1.868 126.817  0.00  0.00    +0.313 C 
ATOM     15  O   LIG A   1      -4.843   0.915 127.890  0.00  0.00    -0.470 OA
ATOM     16  C   LIG A   1      -5.311   1.377 129.090  0.00  0.00    +0.201 C 
ATOM     17  C   LIG A   1      -5.484   2.667 129.412  0.00  0.00    +0.074 C 
ATOM     18  C   LIG A   1      -4.179   4.853 129.025  0.00  0.00    +0.040 C 
ATOM     19  C   LIG A   1      -2.755   4.501 128.571  0.00  0.00    +0.118 C 
ATOM     20  C   LIG A   1      -2.867   3.199 127.772  0.00  0.00    +0.024 C 
ATOM     21  C   LIG A   1      -1.842   3.023 126.659  0.00  0.00    +0.010 C 
BRANCH  17  22
ATOM     22  C   LIG A   1      -6.103   3.010 130.705  0.00  0.00    +0.336 C 
ATOM     23  O   LIG A   1      -5.561   2.913 131.795  0.00  0.00    -0.245 OA
BRANCH  22  24
ATOM     24  O   LIG A   1      -7.373   3.431 130.600  0.00  0.00    -0.477 OA
ATOM     25  H   LIG A   1      -7.824   2.716 130.107  0.00  0.00    +0.295 HD
ENDBRANCH  22  24
ENDBRANCH  17  22
BRANCH  19  26
ATOM     26  O   LIG A   1      -2.247   5.553 127.761  0.00  0.00    -0.392 OA
ATOM     27  H   LIG A   1      -2.899   6.275 127.778  0.00  0.00    +0.210 HD
ENDBRANCH  19  26
ENDBRANCH  11  14
ENDBRANCH   1  11
BRANCH   3  28
ATOM     28  C   LIG A   1      -7.602   4.560 125.462  0.00  0.00    +0.190 C 
BRANCH  28  29
ATOM     29  O   LIG A   1      -8.947   5.026 125.481  0.00  0.00    -0.392 OA
ATOM     30  H   LIG A   1      -9.225   5.045 126.416  0.00  0.00    +0.209 HD
ENDBRANCH  28  29
ENDBRANCH   3  28
BRANCH   6  31
ATOM     31  O   LIG A   1      -6.937   0.310 123.247  0.00  0.00    -0.450 OA
BRANCH  31  32
ATOM     32  C   LIG A   1      -6.943  -1.037 123.387  0.00  0.00    +0.332 C 
ATOM     33  O   LIG A   1      -7.194  -1.851 122.506  0.00  0.00    -0.246 OA
BRANCH  32  34
ATOM     34  C   LIG A   1      -6.788  -1.355 124.813  0.00  0.00    +0.092 C 
ATOM     35  C   LIG A   1      -7.635  -2.220 125.398  0.00  0.00    +0.015 C 
BRANCH  35  36
ATOM     36  C   LIG A   1      -7.561  -2.589 126.821  0.00  0.00    -0.021 A 
ATOM     37  C   LIG A   1      -6.441  -2.206 127.579  0.00  0.00    +0.057 A 
ATOM     38  C   LIG A   1      -6.379  -2.490 128.947  0.00  0.00    +0.162 A 
ATOM     39  C   LIG A   1      -7.448  -3.162 129.547  0.00  0.00    +0.159 A 
ATOM     40  C   LIG A   1      -8.559  -3.551 128.818  0.00  0.00    +0.050 A 
ATOM     41  C   LIG A   1      -8.618  -3.257 127.458  0.00  0.00    +0.012 A 
BRANCH  38  42
ATOM     42  O   LIG A   1      -5.350  -2.161 129.795  0.00  0.00    -0.491 OA
ATOM     43  C   LIG A   1      -4.045  -2.558 129.386  0.00  0.00    +0.277 C 
ENDBRANCH  38  42
BRANCH  39  44
ATOM     44  O   LIG A   1      -7.427  -3.442 130.887  0.00  0.00    -0.503 OA
ATOM     45  H   LIG A   1      -6.481  -3.505 131.118  0.00  0.00    +0.292 HD
ENDBRANCH  39  44
ENDBRANCH  35  36
ENDBRANCH  32  34
ENDBRANCH  31  32
ENDBRANCH   6  31
TORSDOF 15
ENDMDL
MODEL 9
REMARK VINA RESULT:      -7.7      4.947      8.532
REMARK  Name = NuBBE_417
REMARK  17 active torsions:
REMARK  status: ('A' for Active; 'I' for Inactive)
REMARK    1  A    between atoms: C_4  and  O_12
REMARK    2  A    between atoms: C_8  and  C_9
REMARK    3  A    between atoms: C_9  and  O_10
REMARK    4  A    between atoms: O_12  and  C_13
REMARK    5  A    between atoms: C_16  and  C_24
REMARK    6  A    between atoms: C_18  and  O_23
REMARK    7  A    between atoms: C_20  and  O_22
REMARK    8  A    between atoms: C_24  and  O_25
REMARK    9  A    between atoms: C_26  and  O_28
REMARK   10  A    between atoms: O_28  and  C_29
REMARK   11  A    between atoms: C_29  and  C_30
REMARK   12  A    between atoms: C_31  and  C_32
REMARK   13  A    between atoms: C_34  and  O_35
REMARK   14  A    between atoms: O_35  and  C_36
REMARK   15  A    between atoms: C_37  and  O_40
REMARK   16  A    between atoms: C_44  and  O_49
REMARK   17  A    between atoms: C_46  and  C_48
REMARK                            x       y       z     vdW  Elec       q    Type
REMARK                         _______ _______ _______ _____ _____    ______ ____
ROOT
ATOM      1  C   LIG A   1      -8.152   4.568 128.773  0.00  0.00    +0.298 C 
ATOM      2  O   LIG A   1      -9.151   5.586 128.777  0.00  0.00    -0.339 OA
ATOM      3  C   LIG A   1      -9.676   5.943 130.063  0.00  0.00    +0.178 C 
ATOM      4  C   LIG A   1     -10.324   4.710 130.710  0.00  0.00    +0.178 C 
ATOM      5  C   LIG A   1      -9.336   3.544 130.832  0.00  0.00    +0.191 C 
ATOM      6  C   LIG A   1      -8.559   3.285 129.532  0.00  0.00    +0.263 C 
ENDROOT
BRANCH   5   7
ATOM      7  O   LIG A   1      -8.440   3.810 131.919  0.00  0.00    -0.385 OA
ATOM      8  H   LIG A   1      -8.899   4.413 132.534  0.00  0.00    +0.210 HD
ENDBRANCH   5   7
BRANCH   4   9
ATOM      9  O   LIG A   1     -11.452   4.295 129.926  0.00  0.00    -0.386 OA
ATOM     10  H   LIG A   1     -11.949   3.644 130.455  0.00  0.00    +0.210 HD
ENDBRANCH   4   9
BRANCH   1  11
ATOM     11  O   LIG A   1      -6.889   5.030 129.231  0.00  0.00    -0.308 OA
BRANCH  11  14
ATOM     12  C   LIG A   1      -3.996   5.491 128.827  0.00  0.00    +0.041 C 
ATOM     13  C   LIG A   1      -4.804   4.256 128.381  0.00  0.00    +0.071 C 
ATOM     14  C   LIG A   1      -5.938   3.964 129.359  0.00  0.00    +0.313 C 
ATOM     15  O   LIG A   1      -5.468   3.793 130.704  0.00  0.00    -0.470 OA
ATOM     16  C   LIG A   1      -4.539   4.705 131.126  0.00  0.00    +0.201 C 
ATOM     17  C   LIG A   1      -3.842   5.529 130.330  0.00  0.00    +0.074 C 
ATOM     18  C   LIG A   1      -2.681   5.334 128.041  0.00  0.00    +0.040 C 
ATOM     19  C   LIG A   1      -2.539   3.846 127.688  0.00  0.00    +0.118 C 
ATOM     20  C   LIG A   1      -3.749   3.139 128.306  0.00  0.00    +0.024 C 
ATOM     21  C   LIG A   1      -4.241   1.907 127.557  0.00  0.00    +0.010 C 
BRANCH  17  22
ATOM     22  C   LIG A   1      -2.956   6.538 130.937  0.00  0.00    +0.336 C 
ATOM     23  O   LIG A   1      -3.072   7.748 130.810  0.00  0.00    -0.245 OA
BRANCH  22  24
ATOM     24  O   LIG A   1      -1.949   6.012 131.651  0.00  0.00    -0.477 OA
ATOM     25  H   LIG A   1      -2.322   5.896 132.547  0.00  0.00    +0.295 HD
ENDBRANCH  22  24
ENDBRANCH  17  22
BRANCH  19  26
ATOM     26  O   LIG A   1      -2.530   3.697 126.274  0.00  0.00    -0.392 OA
ATOM     27  H   LIG A   1      -2.223   4.539 125.894  0.00  0.00    +0.210 HD
ENDBRANCH  19  26
ENDBRANCH  11  14
ENDBRANCH   1  11
BRANCH   3  28
ATOM     28  C   LIG A   1      -8.670   6.682 130.964  0.00  0.00    +0.190 C 
BRANCH  28  29
ATOM     29  O   LIG A   1      -9.062   6.636 132.332  0.00  0.00    -0.392 OA
ATOM     30  H   LIG A   1      -8.630   5.853 132.722  0.00  0.00    +0.209 HD
ENDBRANCH  28  29
ENDBRANCH   3  28
BRANCH   6  31
ATOM     31  O   LIG A   1      -9.359   2.516 128.603  0.00  0.00    -0.450 OA
BRANCH  31  32
ATOM     32  C   LIG A   1      -8.633   1.755 127.750  0.00  0.00    +0.332 C 
ATOM     33  O   LIG A   1      -8.594   1.877 126.531  0.00  0.00    -0.246 OA
BRANCH  32  34
ATOM     34  C   LIG A   1      -8.049   0.639 128.507  0.00  0.00    +0.092 C 
ATOM     35  C   LIG A   1      -7.681  -0.482 127.862  0.00  0.00    +0.015 C 
BRANCH  35  36
ATOM     36  C   LIG A   1      -7.098  -1.652 128.539  0.00  0.00    -0.021 A 
ATOM     37  C   LIG A   1      -5.715  -1.888 128.447  0.00  0.00    +0.057 A 
ATOM     38  C   LIG A   1      -5.130  -2.956 129.135  0.00  0.00    +0.162 A 
ATOM     39  C   LIG A   1      -5.944  -3.785 129.914  0.00  0.00    +0.159 A 
ATOM     40  C   LIG A   1      -7.308  -3.572 130.016  0.00  0.00    +0.050 A 
ATOM     41  C   LIG A   1      -7.883  -2.500 129.335  0.00  0.00    +0.012 A 
BRANCH  38  42
ATOM     42  O   LIG A   1      -3.798  -3.284 129.135  0.00  0.00    -0.491 OA
ATOM     43  C   LIG A   1      -2.928  -2.395 129.828  0.00  0.00    +0.277 C 
ENDBRANCH  38  42
BRANCH  39  44
ATOM     44  O   LIG A   1      -5.402  -4.830 130.613  0.00  0.00    -0.503 OA
ATOM     45  H   LIG A   1      -5.700  -5.631 130.142  0.00  0.00    +0.292 HD
ENDBRANCH  39  44
ENDBRANCH  35  36
ENDBRANCH  32  34
ENDBRANCH  31  32
ENDBRANCH   6  31
TORSDOF 15
ENDMDL
