MODEL 1
REMARK VINA RESULT:      -8.0      0.000      0.000
REMARK  Name = NuBBE_1765
REMARK  5 active torsions:
REMARK  status: ('A' for Active; 'I' for Inactive)
REMARK    1  A    between atoms: O_1  and  C_2
REMARK    2  A    between atoms: C_13  and  O_17
REMARK    3  A    between atoms: C_14  and  O_16
REMARK    4  A    between atoms: C_23  and  O_25
REMARK    5  A    between atoms: O_25  and  C_26
REMARK                            x       y       z     vdW  Elec       q    Type
REMARK                         _______ _______ _______ _____ _____    ______ ____
ROOT
ATOM      1  C   LIG A   1      -9.439   1.791 124.394  0.00  0.00    +0.181 C 
ATOM      2  C   LIG A   1      -8.866   2.703 123.309  0.00  0.00    +0.197 C 
ATOM      3  C   LIG A   1      -7.338   2.716 123.423  0.00  0.00    +0.235 C 
ATOM      4  C   LIG A   1      -6.758   3.519 122.279  0.00  0.00    +0.004 A 
ATOM      5  C   LIG A   1      -7.502   3.688 121.090  0.00  0.00    -0.011 A 
ATOM      6  C   LIG A   1      -8.908   3.141 120.974  0.00  0.00    +0.196 C 
ATOM      7  O   LIG A   1      -9.272   2.221 122.008  0.00  0.00    -0.365 OA
ATOM      8  C   LIG A   1      -6.950   4.414 120.021  0.00  0.00    +0.055 A 
ATOM      9  C   LIG A   1      -5.670   4.944 120.139  0.00  0.00    +0.159 A 
ATOM     10  C   LIG A   1      -4.938   4.765 121.310  0.00  0.00    +0.159 A 
ATOM     11  C   LIG A   1      -5.464   4.055 122.377  0.00  0.00    +0.057 A 
ATOM     12  O   LIG A   1      -6.745   1.414 123.329  0.00  0.00    -0.481 OA
ATOM     13  C   LIG A   1      -7.372   0.409 124.010  0.00  0.00    +0.131 A 
ATOM     14  C   LIG A   1      -8.664   0.511 124.530  0.00  0.00    +0.025 A 
ATOM     15  C   LIG A   1      -9.201  -0.585 125.218  0.00  0.00    +0.013 A 
ATOM     16  C   LIG A   1      -8.468  -1.766 125.352  0.00  0.00    +0.046 A 
ATOM     17  C   LIG A   1      -7.188  -1.872 124.809  0.00  0.00    +0.124 A 
ATOM     18  C   LIG A   1      -6.644  -0.779 124.134  0.00  0.00    +0.091 A 
ENDROOT
BRANCH   1  19
ATOM     19  O   LIG A   1     -10.814   1.522 124.109  0.00  0.00    -0.384 OA
ATOM     20  H   LIG A   1     -11.035   0.753 124.673  0.00  0.00    +0.210 HD
ENDBRANCH   1  19
BRANCH  10  21
ATOM     21  O   LIG A   1      -3.682   5.290 121.414  0.00  0.00    -0.503 OA
ATOM     22  H   LIG A   1      -3.733   6.144 120.940  0.00  0.00    +0.292 HD
ENDBRANCH  10  21
BRANCH   9  23
ATOM     23  O   LIG A   1      -5.085   5.655 119.128  0.00  0.00    -0.503 OA
ATOM     24  H   LIG A   1      -5.632   5.555 118.330  0.00  0.00    +0.292 HD
ENDBRANCH   9  23
BRANCH  17  25
ATOM     25  O   LIG A   1      -6.580  -3.081 125.006  0.00  0.00    -0.495 OA
ATOM     26  C   LIG A   1      -5.386  -3.326 124.272  0.00  0.00    +0.277 C 
ENDBRANCH  17  25
TORSDOF 4
ENDMDL
MODEL 2
REMARK VINA RESULT:      -7.7      3.059      7.701
REMARK  Name = NuBBE_1765
REMARK  5 active torsions:
REMARK  status: ('A' for Active; 'I' for Inactive)
REMARK    1  A    between atoms: O_1  and  C_2
REMARK    2  A    between atoms: C_13  and  O_17
REMARK    3  A    between atoms: C_14  and  O_16
REMARK    4  A    between atoms: C_23  and  O_25
REMARK    5  A    between atoms: O_25  and  C_26
REMARK                            x       y       z     vdW  Elec       q    Type
REMARK                         _______ _______ _______ _____ _____    ______ ____
ROOT
ATOM      1  C   LIG A   1      -8.860  -2.812 123.790  0.00  0.00    +0.181 C 
ATOM      2  C   LIG A   1      -8.351  -3.174 125.186  0.00  0.00    +0.197 C 
ATOM      3  C   LIG A   1      -7.190  -2.245 125.552  0.00  0.00    +0.235 C 
ATOM      4  C   LIG A   1      -6.760  -2.517 126.977  0.00  0.00    +0.004 A 
ATOM      5  C   LIG A   1      -7.670  -3.103 127.885  0.00  0.00    -0.011 A 
ATOM      6  C   LIG A   1      -9.046  -3.537 127.430  0.00  0.00    +0.196 C 
ATOM      7  O   LIG A   1      -9.427  -3.039 126.143  0.00  0.00    -0.365 OA
ATOM      8  C   LIG A   1      -7.276  -3.333 129.214  0.00  0.00    +0.055 A 
ATOM      9  C   LIG A   1      -6.000  -2.964 129.626  0.00  0.00    +0.159 A 
ATOM     10  C   LIG A   1      -5.112  -2.376 128.729  0.00  0.00    +0.159 A 
ATOM     11  C   LIG A   1      -5.479  -2.144 127.413  0.00  0.00    +0.057 A 
ATOM     12  O   LIG A   1      -7.531  -0.853 125.504  0.00  0.00    -0.481 OA
ATOM     13  C   LIG A   1      -8.289  -0.449 124.441  0.00  0.00    +0.131 A 
ATOM     14  C   LIG A   1      -8.966  -1.327 123.592  0.00  0.00    +0.025 A 
ATOM     15  C   LIG A   1      -9.708  -0.795 122.528  0.00  0.00    +0.013 A 
ATOM     16  C   LIG A   1      -9.791   0.586 122.341  0.00  0.00    +0.046 A 
ATOM     17  C   LIG A   1      -9.132   1.459 123.208  0.00  0.00    +0.124 A 
ATOM     18  C   LIG A   1      -8.383   0.935 124.260  0.00  0.00    +0.091 A 
ENDROOT
BRANCH   1  19
ATOM     19  O   LIG A   1     -10.122  -3.445 123.567  0.00  0.00    -0.384 OA
ATOM     20  H   LIG A   1      -9.935  -4.136 122.901  0.00  0.00    +0.210 HD
ENDBRANCH   1  19
BRANCH  10  21
ATOM     21  O   LIG A   1      -3.862  -2.017 129.144  0.00  0.00    -0.503 OA
ATOM     22  H   LIG A   1      -3.997  -1.182 129.636  0.00  0.00    +0.292 HD
ENDBRANCH  10  21
BRANCH   9  23
ATOM     23  O   LIG A   1      -5.568  -3.161 130.909  0.00  0.00    -0.503 OA
ATOM     24  H   LIG A   1      -4.908  -2.477 131.116  0.00  0.00    +0.292 HD
ENDBRANCH   9  23
BRANCH  17  25
ATOM     25  O   LIG A   1      -9.297   2.786 122.918  0.00  0.00    -0.495 OA
ATOM     26  C   LIG A   1      -8.604   3.285 121.780  0.00  0.00    +0.277 C 
ENDBRANCH  17  25
TORSDOF 4
ENDMDL
MODEL 3
REMARK VINA RESULT:      -7.7      2.833      4.533
REMARK  Name = NuBBE_1765
REMARK  5 active torsions:
REMARK  status: ('A' for Active; 'I' for Inactive)
REMARK    1  A    between atoms: O_1  and  C_2
REMARK    2  A    between atoms: C_13  and  O_17
REMARK    3  A    between atoms: C_14  and  O_16
REMARK    4  A    between atoms: C_23  and  O_25
REMARK    5  A    between atoms: O_25  and  C_26
REMARK                            x       y       z     vdW  Elec       q    Type
REMARK                         _______ _______ _______ _____ _____    ______ ____
ROOT
ATOM      1  C   LIG A   1      -9.238  -2.574 125.184  0.00  0.00    +0.181 C 
ATOM      2  C   LIG A   1      -8.721  -1.332 124.456  0.00  0.00    +0.197 C 
ATOM      3  C   LIG A   1      -8.819  -0.125 125.394  0.00  0.00    +0.235 C 
ATOM      4  C   LIG A   1      -8.199   1.081 124.724  0.00  0.00    +0.004 A 
ATOM      5  C   LIG A   1      -7.240   0.902 123.702  0.00  0.00    -0.011 A 
ATOM      6  C   LIG A   1      -6.883  -0.484 123.212  0.00  0.00    +0.196 C 
ATOM      7  O   LIG A   1      -7.350  -1.547 124.049  0.00  0.00    -0.365 OA
ATOM      8  C   LIG A   1      -6.648   2.024 123.099  0.00  0.00    +0.055 A 
ATOM      9  C   LIG A   1      -7.000   3.300 123.527  0.00  0.00    +0.159 A 
ATOM     10  C   LIG A   1      -7.936   3.469 124.543  0.00  0.00    +0.159 A 
ATOM     11  C   LIG A   1      -8.535   2.376 125.149  0.00  0.00    +0.057 A 
ATOM     12  O   LIG A   1      -8.109  -0.298 126.628  0.00  0.00    -0.481 OA
ATOM     13  C   LIG A   1      -8.228  -1.518 127.232  0.00  0.00    +0.131 A 
ATOM     14  C   LIG A   1      -8.740  -2.652 126.599  0.00  0.00    +0.025 A 
ATOM     15  C   LIG A   1      -8.819  -3.849 127.324  0.00  0.00    +0.013 A 
ATOM     16  C   LIG A   1      -8.367  -3.910 128.644  0.00  0.00    +0.046 A 
ATOM     17  C   LIG A   1      -7.833  -2.780 129.263  0.00  0.00    +0.124 A 
ATOM     18  C   LIG A   1      -7.763  -1.584 128.550  0.00  0.00    +0.091 A 
ENDROOT
BRANCH   1  19
ATOM     19  O   LIG A   1      -8.866  -3.743 124.450  0.00  0.00    -0.384 OA
ATOM     20  H   LIG A   1      -9.717  -4.162 124.210  0.00  0.00    +0.210 HD
ENDBRANCH   1  19
BRANCH  10  21
ATOM     21  O   LIG A   1      -8.273   4.726 124.955  0.00  0.00    -0.503 OA
ATOM     22  H   LIG A   1      -7.583   4.965 125.606  0.00  0.00    +0.292 HD
ENDBRANCH  10  21
BRANCH   9  23
ATOM     23  O   LIG A   1      -6.450   4.425 122.976  0.00  0.00    -0.503 OA
ATOM     24  H   LIG A   1      -7.174   5.013 122.701  0.00  0.00    +0.292 HD
ENDBRANCH   9  23
BRANCH  17  25
ATOM     25  O   LIG A   1      -7.422  -2.975 130.554  0.00  0.00    -0.495 OA
ATOM     26  C   LIG A   1      -6.237  -3.740 130.741  0.00  0.00    +0.277 C 
ENDBRANCH  17  25
TORSDOF 4
ENDMDL
MODEL 4
REMARK VINA RESULT:      -7.4      3.631      6.135
REMARK  Name = NuBBE_1765
REMARK  5 active torsions:
REMARK  status: ('A' for Active; 'I' for Inactive)
REMARK    1  A    between atoms: O_1  and  C_2
REMARK    2  A    between atoms: C_13  and  O_17
REMARK    3  A    between atoms: C_14  and  O_16
REMARK    4  A    between atoms: C_23  and  O_25
REMARK    5  A    between atoms: O_25  and  C_26
REMARK                            x       y       z     vdW  Elec       q    Type
REMARK                         _______ _______ _______ _____ _____    ______ ____
ROOT
ATOM      1  C   LIG A   1      -8.578   2.182 124.239  0.00  0.00    +0.181 C 
ATOM      2  C   LIG A   1      -7.726   2.520 125.464  0.00  0.00    +0.197 C 
ATOM      3  C   LIG A   1      -6.245   2.436 125.082  0.00  0.00    +0.235 C 
ATOM      4  C   LIG A   1      -5.400   2.885 126.254  0.00  0.00    +0.004 A 
ATOM      5  C   LIG A   1      -5.955   3.735 127.236  0.00  0.00    -0.011 A 
ATOM      6  C   LIG A   1      -7.412   4.139 127.175  0.00  0.00    +0.196 C 
ATOM      7  O   LIG A   1      -8.054   3.850 125.929  0.00  0.00    -0.365 OA
ATOM      8  C   LIG A   1      -5.161   4.170 128.310  0.00  0.00    +0.055 A 
ATOM      9  C   LIG A   1      -3.830   3.773 128.385  0.00  0.00    +0.159 A 
ATOM     10  C   LIG A   1      -3.285   2.945 127.407  0.00  0.00    +0.159 A 
ATOM     11  C   LIG A   1      -4.052   2.502 126.341  0.00  0.00    +0.057 A 
ATOM     12  O   LIG A   1      -5.886   3.291 123.988  0.00  0.00    -0.481 OA
ATOM     13  C   LIG A   1      -6.758   3.332 122.936  0.00  0.00    +0.131 A 
ATOM     14  C   LIG A   1      -8.063   2.840 122.990  0.00  0.00    +0.025 A 
ATOM     15  C   LIG A   1      -8.864   2.932 121.844  0.00  0.00    +0.013 A 
ATOM     16  C   LIG A   1      -8.374   3.532 120.682  0.00  0.00    +0.046 A 
ATOM     17  C   LIG A   1      -7.077   4.045 120.642  0.00  0.00    +0.124 A 
ATOM     18  C   LIG A   1      -6.272   3.945 121.776  0.00  0.00    +0.091 A 
ENDROOT
BRANCH   1  19
ATOM     19  O   LIG A   1      -9.934   2.558 124.487  0.00  0.00    -0.384 OA
ATOM     20  H   LIG A   1     -10.025   3.437 124.068  0.00  0.00    +0.210 HD
ENDBRANCH   1  19
BRANCH  10  21
ATOM     21  O   LIG A   1      -1.978   2.562 127.490  0.00  0.00    -0.503 OA
ATOM     22  H   LIG A   1      -1.643   3.004 128.297  0.00  0.00    +0.292 HD
ENDBRANCH  10  21
BRANCH   9  23
ATOM     23  O   LIG A   1      -3.012   4.171 129.406  0.00  0.00    -0.503 OA
ATOM     24  H   LIG A   1      -2.969   5.142 129.400  0.00  0.00    +0.292 HD
ENDBRANCH   9  23
BRANCH  17  25
ATOM     25  O   LIG A   1      -6.722   4.610 119.448  0.00  0.00    -0.495 OA
ATOM     26  C   LIG A   1      -5.506   5.348 119.426  0.00  0.00    +0.277 C 
ENDBRANCH  17  25
TORSDOF 4
ENDMDL
MODEL 5
REMARK VINA RESULT:      -7.2      7.876      9.910
REMARK  Name = NuBBE_1765
REMARK  5 active torsions:
REMARK  status: ('A' for Active; 'I' for Inactive)
REMARK    1  A    between atoms: O_1  and  C_2
REMARK    2  A    between atoms: C_13  and  O_17
REMARK    3  A    between atoms: C_14  and  O_16
REMARK    4  A    between atoms: C_23  and  O_25
REMARK    5  A    between atoms: O_25  and  C_26
REMARK                            x       y       z     vdW  Elec       q    Type
REMARK                         _______ _______ _______ _____ _____    ______ ____
ROOT
ATOM      1  C   LIG A   1      -9.909   5.662 132.075  0.00  0.00    +0.181 C 
ATOM      2  C   LIG A   1      -8.457   5.424 131.658  0.00  0.00    +0.197 C 
ATOM      3  C   LIG A   1      -8.421   5.021 130.180  0.00  0.00    +0.235 C 
ATOM      4  C   LIG A   1      -6.982   4.901 129.729  0.00  0.00    +0.004 A 
ATOM      5  C   LIG A   1      -5.968   5.598 130.423  0.00  0.00    -0.011 A 
ATOM      6  C   LIG A   1      -6.292   6.402 131.663  0.00  0.00    +0.196 C 
ATOM      7  O   LIG A   1      -7.689   6.631 131.871  0.00  0.00    -0.365 OA
ATOM      8  C   LIG A   1      -4.635   5.504 129.987  0.00  0.00    +0.055 A 
ATOM      9  C   LIG A   1      -4.332   4.739 128.866  0.00  0.00    +0.159 A 
ATOM     10  C   LIG A   1      -5.338   4.064 128.179  0.00  0.00    +0.159 A 
ATOM     11  C   LIG A   1      -6.658   4.140 128.595  0.00  0.00    +0.057 A 
ATOM     12  O   LIG A   1      -9.027   5.984 129.308  0.00  0.00    -0.481 OA
ATOM     13  C   LIG A   1     -10.203   6.535 129.733  0.00  0.00    +0.131 A 
ATOM     14  C   LIG A   1     -10.678   6.438 131.043  0.00  0.00    +0.025 A 
ATOM     15  C   LIG A   1     -11.903   7.039 131.361  0.00  0.00    +0.013 A 
ATOM     16  C   LIG A   1     -12.618   7.746 130.392  0.00  0.00    +0.046 A 
ATOM     17  C   LIG A   1     -12.127   7.861 129.092  0.00  0.00    +0.124 A 
ATOM     18  C   LIG A   1     -10.915   7.255 128.767  0.00  0.00    +0.091 A 
ENDROOT
BRANCH   1  19
ATOM     19  O   LIG A   1      -9.935   6.334 133.337  0.00  0.00    -0.384 OA
ATOM     20  H   LIG A   1     -10.672   6.974 133.258  0.00  0.00    +0.210 HD
ENDBRANCH   1  19
BRANCH  10  21
ATOM     21  O   LIG A   1      -5.028   3.316 127.080  0.00  0.00    -0.503 OA
ATOM     22  H   LIG A   1      -5.859   2.849 126.859  0.00  0.00    +0.292 HD
ENDBRANCH  10  21
BRANCH   9  23
ATOM     23  O   LIG A   1      -3.053   4.618 128.397  0.00  0.00    -0.503 OA
ATOM     24  H   LIG A   1      -2.942   3.718 128.046  0.00  0.00    +0.292 HD
ENDBRANCH   9  23
BRANCH  17  25
ATOM     25  O   LIG A   1     -12.921   8.583 128.242  0.00  0.00    -0.495 OA
ATOM     26  C   LIG A   1     -13.459   9.800 128.746  0.00  0.00    +0.277 C 
ENDBRANCH  17  25
TORSDOF 4
ENDMDL
MODEL 6
REMARK VINA RESULT:      -7.1      7.999      9.570
REMARK  Name = NuBBE_1765
REMARK  5 active torsions:
REMARK  status: ('A' for Active; 'I' for Inactive)
REMARK    1  A    between atoms: O_1  and  C_2
REMARK    2  A    between atoms: C_13  and  O_17
REMARK    3  A    between atoms: C_14  and  O_16
REMARK    4  A    between atoms: C_23  and  O_25
REMARK    5  A    between atoms: O_25  and  C_26
REMARK                            x       y       z     vdW  Elec       q    Type
REMARK                         _______ _______ _______ _____ _____    ______ ____
ROOT
ATOM      1  C   LIG A   1      -8.781   5.701 132.631  0.00  0.00    +0.181 C 
ATOM      2  C   LIG A   1      -9.804   6.465 131.788  0.00  0.00    +0.197 C 
ATOM      3  C   LIG A   1      -9.776   5.922 130.356  0.00  0.00    +0.235 C 
ATOM      4  C   LIG A   1     -10.868   6.589 129.547  0.00  0.00    +0.004 A 
ATOM      5  C   LIG A   1     -11.991   7.141 130.203  0.00  0.00    -0.011 A 
ATOM      6  C   LIG A   1     -12.079   7.146 131.713  0.00  0.00    +0.196 C 
ATOM      7  O   LIG A   1     -11.120   6.306 132.365  0.00  0.00    -0.365 OA
ATOM      8  C   LIG A   1     -13.014   7.738 129.448  0.00  0.00    +0.055 A 
ATOM      9  C   LIG A   1     -12.918   7.763 128.060  0.00  0.00    +0.159 A 
ATOM     10  C   LIG A   1     -11.814   7.206 127.419  0.00  0.00    +0.159 A 
ATOM     11  C   LIG A   1     -10.792   6.616 128.145  0.00  0.00    +0.057 A 
ATOM     12  O   LIG A   1     -10.030   4.513 130.271  0.00  0.00    -0.481 OA
ATOM     13  C   LIG A   1      -9.415   3.727 131.205  0.00  0.00    +0.131 A 
ATOM     14  C   LIG A   1      -8.814   4.223 132.364  0.00  0.00    +0.025 A 
ATOM     15  C   LIG A   1      -8.207   3.319 133.246  0.00  0.00    +0.013 A 
ATOM     16  C   LIG A   1      -8.230   1.948 132.983  0.00  0.00    +0.046 A 
ATOM     17  C   LIG A   1      -8.853   1.456 131.836  0.00  0.00    +0.124 A 
ATOM     18  C   LIG A   1      -9.448   2.352 130.950  0.00  0.00    +0.091 A 
ENDROOT
BRANCH   1  19
ATOM     19  O   LIG A   1      -9.012   5.971 134.015  0.00  0.00    -0.384 OA
ATOM     20  H   LIG A   1      -8.320   6.619 134.257  0.00  0.00    +0.210 HD
ENDBRANCH   1  19
BRANCH  10  21
ATOM     21  O   LIG A   1     -11.731   7.237 126.057  0.00  0.00    -0.503 OA
ATOM     22  H   LIG A   1     -10.786   7.071 125.865  0.00  0.00    +0.292 HD
ENDBRANCH  10  21
BRANCH   9  23
ATOM     23  O   LIG A   1     -13.887   8.328 127.278  0.00  0.00    -0.503 OA
ATOM     24  H   LIG A   1     -14.754   8.093 127.651  0.00  0.00    +0.292 HD
ENDBRANCH   9  23
BRANCH  17  25
ATOM     25  O   LIG A   1      -8.809   0.095 131.700  0.00  0.00    -0.495 OA
ATOM     26  C   LIG A   1      -7.694  -0.571 132.279  0.00  0.00    +0.277 C 
ENDBRANCH  17  25
TORSDOF 4
ENDMDL
MODEL 7
REMARK VINA RESULT:      -7.0      6.837     11.527
REMARK  Name = NuBBE_1765
REMARK  5 active torsions:
REMARK  status: ('A' for Active; 'I' for Inactive)
REMARK    1  A    between atoms: O_1  and  C_2
REMARK    2  A    between atoms: C_13  and  O_17
REMARK    3  A    between atoms: C_14  and  O_16
REMARK    4  A    between atoms: C_23  and  O_25
REMARK    5  A    between atoms: O_25  and  C_26
REMARK                            x       y       z     vdW  Elec       q    Type
REMARK                         _______ _______ _______ _____ _____    ______ ____
ROOT
ATOM      1  C   LIG A   1      -5.167  -2.066 129.529  0.00  0.00    +0.181 C 
ATOM      2  C   LIG A   1      -5.277  -2.748 130.894  0.00  0.00    +0.197 C 
ATOM      3  C   LIG A   1      -6.725  -2.651 131.386  0.00  0.00    +0.235 C 
ATOM      4  C   LIG A   1      -6.867  -3.427 132.677  0.00  0.00    +0.004 A 
ATOM      5  C   LIG A   1      -5.958  -4.466 132.977  0.00  0.00    -0.011 A 
ATOM      6  C   LIG A   1      -4.792  -4.761 132.059  0.00  0.00    +0.196 C 
ATOM      7  O   LIG A   1      -4.874  -4.132 130.776  0.00  0.00    -0.365 OA
ATOM      8  C   LIG A   1      -6.107  -5.200 134.165  0.00  0.00    +0.055 A 
ATOM      9  C   LIG A   1      -7.161  -4.908 135.025  0.00  0.00    +0.159 A 
ATOM     10  C   LIG A   1      -8.060  -3.891 134.718  0.00  0.00    +0.159 A 
ATOM     11  C   LIG A   1      -7.929  -3.152 133.553  0.00  0.00    +0.057 A 
ATOM     12  O   LIG A   1      -7.678  -3.220 130.478  0.00  0.00    -0.481 OA
ATOM     13  C   LIG A   1      -7.494  -2.948 129.152  0.00  0.00    +0.131 A 
ATOM     14  C   LIG A   1      -6.316  -2.415 128.625  0.00  0.00    +0.025 A 
ATOM     15  C   LIG A   1      -6.245  -2.171 127.247  0.00  0.00    +0.013 A 
ATOM     16  C   LIG A   1      -7.323  -2.484 126.415  0.00  0.00    +0.046 A 
ATOM     17  C   LIG A   1      -8.488  -3.040 126.944  0.00  0.00    +0.124 A 
ATOM     18  C   LIG A   1      -8.567  -3.273 128.316  0.00  0.00    +0.091 A 
ENDROOT
BRANCH   1  19
ATOM     19  O   LIG A   1      -3.921  -2.418 128.923  0.00  0.00    -0.384 OA
ATOM     20  H   LIG A   1      -3.327  -1.670 129.134  0.00  0.00    +0.210 HD
ENDBRANCH   1  19
BRANCH  10  21
ATOM     21  O   LIG A   1      -9.091  -3.613 135.570  0.00  0.00    -0.503 OA
ATOM     22  H   LIG A   1      -8.654  -3.363 136.409  0.00  0.00    +0.292 HD
ENDBRANCH  10  21
BRANCH   9  23
ATOM     23  O   LIG A   1      -7.354  -5.595 136.192  0.00  0.00    -0.503 OA
ATOM     24  H   LIG A   1      -7.319  -4.960 136.928  0.00  0.00    +0.292 HD
ENDBRANCH   9  23
BRANCH  17  25
ATOM     25  O   LIG A   1      -9.465  -3.304 126.023  0.00  0.00    -0.495 OA
ATOM     26  C   LIG A   1      -9.108  -3.165 124.653  0.00  0.00    +0.277 C 
ENDBRANCH  17  25
TORSDOF 4
ENDMDL
MODEL 8
REMARK VINA RESULT:      -6.7      5.663      7.938
REMARK  Name = NuBBE_1765
REMARK  5 active torsions:
REMARK  status: ('A' for Active; 'I' for Inactive)
REMARK    1  A    between atoms: O_1  and  C_2
REMARK    2  A    between atoms: C_13  and  O_17
REMARK    3  A    between atoms: C_14  and  O_16
REMARK    4  A    between atoms: C_23  and  O_25
REMARK    5  A    between atoms: O_25  and  C_26
REMARK                            x       y       z     vdW  Elec       q    Type
REMARK                         _______ _______ _______ _____ _____    ______ ____
ROOT
ATOM      1  C   LIG A   1      -5.963   4.580 129.120  0.00  0.00    +0.181 C 
ATOM      2  C   LIG A   1      -6.407   3.930 127.808  0.00  0.00    +0.197 C 
ATOM      3  C   LIG A   1      -7.600   3.010 128.085  0.00  0.00    +0.235 C 
ATOM      4  C   LIG A   1      -8.120   2.457 126.776  0.00  0.00    +0.004 A 
ATOM      5  C   LIG A   1      -7.871   3.151 125.572  0.00  0.00    -0.011 A 
ATOM      6  C   LIG A   1      -7.022   4.403 125.562  0.00  0.00    +0.196 C 
ATOM      7  O   LIG A   1      -6.770   4.957 126.858  0.00  0.00    -0.365 OA
ATOM      8  C   LIG A   1      -8.376   2.648 124.361  0.00  0.00    +0.055 A 
ATOM      9  C   LIG A   1      -9.130   1.479 124.364  0.00  0.00    +0.159 A 
ATOM     10  C   LIG A   1      -9.382   0.806 125.557  0.00  0.00    +0.159 A 
ATOM     11  C   LIG A   1      -8.890   1.283 126.761  0.00  0.00    +0.057 A 
ATOM     12  O   LIG A   1      -8.710   3.679 128.697  0.00  0.00    -0.481 OA
ATOM     13  C   LIG A   1      -8.412   4.564 129.695  0.00  0.00    +0.131 A 
ATOM     14  C   LIG A   1      -7.128   5.052 129.943  0.00  0.00    +0.025 A 
ATOM     15  C   LIG A   1      -6.942   5.952 131.001  0.00  0.00    +0.013 A 
ATOM     16  C   LIG A   1      -8.028   6.375 131.771  0.00  0.00    +0.046 A 
ATOM     17  C   LIG A   1      -9.313   5.904 131.503  0.00  0.00    +0.124 A 
ATOM     18  C   LIG A   1      -9.501   4.998 130.459  0.00  0.00    +0.091 A 
ENDROOT
BRANCH   1  19
ATOM     19  O   LIG A   1      -5.073   5.662 128.834  0.00  0.00    -0.384 OA
ATOM     20  H   LIG A   1      -4.302   5.238 128.407  0.00  0.00    +0.210 HD
ENDBRANCH   1  19
BRANCH  10  21
ATOM     21  O   LIG A   1     -10.124  -0.340 125.548  0.00  0.00    -0.503 OA
ATOM     22  H   LIG A   1     -10.269  -0.546 126.493  0.00  0.00    +0.292 HD
ENDBRANCH  10  21
BRANCH   9  23
ATOM     23  O   LIG A   1      -9.648   0.949 123.215  0.00  0.00    -0.503 OA
ATOM     24  H   LIG A   1     -10.618   0.954 123.288  0.00  0.00    +0.292 HD
ENDBRANCH   9  23
BRANCH  17  25
ATOM     25  O   LIG A   1     -10.288   6.398 132.326  0.00  0.00    -0.495 OA
ATOM     26  C   LIG A   1     -11.596   6.504 131.779  0.00  0.00    +0.277 C 
ENDBRANCH  17  25
TORSDOF 4
ENDMDL
MODEL 9
REMARK VINA RESULT:      -6.7      3.241      6.745
REMARK  Name = NuBBE_1765
REMARK  5 active torsions:
REMARK  status: ('A' for Active; 'I' for Inactive)
REMARK    1  A    between atoms: O_1  and  C_2
REMARK    2  A    between atoms: C_13  and  O_17
REMARK    3  A    between atoms: C_14  and  O_16
REMARK    4  A    between atoms: C_23  and  O_25
REMARK    5  A    between atoms: O_25  and  C_26
REMARK                            x       y       z     vdW  Elec       q    Type
REMARK                         _______ _______ _______ _____ _____    ______ ____
ROOT
ATOM      1  C   LIG A   1      -7.565   3.505 124.611  0.00  0.00    +0.181 C 
ATOM      2  C   LIG A   1      -8.048   2.055 124.677  0.00  0.00    +0.197 C 
ATOM      3  C   LIG A   1      -6.842   1.119 124.550  0.00  0.00    +0.235 C 
ATOM      4  C   LIG A   1      -7.297  -0.312 124.735  0.00  0.00    +0.004 A 
ATOM      5  C   LIG A   1      -8.486  -0.585 125.448  0.00  0.00    -0.011 A 
ATOM      6  C   LIG A   1      -9.355   0.542 125.961  0.00  0.00    +0.196 C 
ATOM      7  O   LIG A   1      -8.733   1.831 125.931  0.00  0.00    -0.365 OA
ATOM      8  C   LIG A   1      -8.894  -1.916 125.639  0.00  0.00    +0.055 A 
ATOM      9  C   LIG A   1      -8.111  -2.951 125.139  0.00  0.00    +0.159 A 
ATOM     10  C   LIG A   1      -6.935  -2.676 124.448  0.00  0.00    +0.159 A 
ATOM     11  C   LIG A   1      -6.517  -1.371 124.245  0.00  0.00    +0.057 A 
ATOM     12  O   LIG A   1      -5.835   1.343 125.546  0.00  0.00    -0.481 OA
ATOM     13  C   LIG A   1      -5.535   2.647 125.826  0.00  0.00    +0.131 A 
ATOM     14  C   LIG A   1      -6.324   3.728 125.428  0.00  0.00    +0.025 A 
ATOM     15  C   LIG A   1      -5.911   5.023 125.768  0.00  0.00    +0.013 A 
ATOM     16  C   LIG A   1      -4.749   5.224 126.516  0.00  0.00    +0.046 A 
ATOM     17  C   LIG A   1      -3.978   4.138 126.932  0.00  0.00    +0.124 A 
ATOM     18  C   LIG A   1      -4.378   2.848 126.586  0.00  0.00    +0.091 A 
ENDROOT
BRANCH   1  19
ATOM     19  O   LIG A   1      -8.616   4.374 125.038  0.00  0.00    -0.384 OA
ATOM     20  H   LIG A   1      -9.340   4.215 124.399  0.00  0.00    +0.210 HD
ENDBRANCH   1  19
BRANCH  10  21
ATOM     21  O   LIG A   1      -6.175  -3.701 123.961  0.00  0.00    -0.503 OA
ATOM     22  H   LIG A   1      -5.889  -4.194 124.757  0.00  0.00    +0.292 HD
ENDBRANCH  10  21
BRANCH   9  23
ATOM     23  O   LIG A   1      -8.460  -4.264 125.300  0.00  0.00    -0.503 OA
ATOM     24  H   LIG A   1      -7.665  -4.760 125.561  0.00  0.00    +0.292 HD
ENDBRANCH   9  23
BRANCH  17  25
ATOM     25  O   LIG A   1      -2.868   4.470 127.660  0.00  0.00    -0.495 OA
ATOM     26  C   LIG A   1      -2.737   5.834 128.043  0.00  0.00    +0.277 C 
ENDBRANCH  17  25
TORSDOF 4
ENDMDL
