MODEL 1
REMARK VINA RESULT:      -8.6      0.000      0.000
REMARK  Name = NuBBE_9
REMARK  10 active torsions:
REMARK  status: ('A' for Active; 'I' for Inactive)
REMARK    1  A    between atoms: C_4  and  O_35
REMARK    2  A    between atoms: C_6  and  O_34
REMARK    3  A    between atoms: C_10  and  C_11
REMARK    4  A    between atoms: C_13  and  O_14
REMARK    5  A    between atoms: C_15  and  O_18
REMARK    6  A    between atoms: C_19  and  O_20
REMARK    7  A    between atoms: O_20  and  C_21
REMARK    8  A    between atoms: C_25  and  O_30
REMARK    9  A    between atoms: C_27  and  O_29
REMARK   10  A    between atoms: C_31  and  O_33
REMARK                            x       y       z     vdW  Elec       q    Type
REMARK                         _______ _______ _______ _____ _____    ______ ____
ROOT
ATOM      1  O   LIG A   1      -7.210   2.214 126.744  0.00  0.00    -0.283 OA
ATOM      2  C   LIG A   1      -7.194   1.961 125.545  0.00  0.00    +0.238 A 
ATOM      3  C   LIG A   1      -7.804   0.725 125.069  0.00  0.00    +0.109 A 
ATOM      4  C   LIG A   1      -8.045  -0.349 125.932  0.00  0.00    +0.135 A 
ATOM      5  C   LIG A   1      -8.646  -1.505 125.452  0.00  0.00    +0.091 A 
ATOM      6  C   LIG A   1      -9.024  -1.558 124.113  0.00  0.00    +0.124 A 
ATOM      7  C   LIG A   1      -8.774  -0.494 123.243  0.00  0.00    +0.092 A 
ATOM      8  C   LIG A   1      -8.137   0.648 123.724  0.00  0.00    +0.146 A 
ATOM      9  O   LIG A   1      -7.864   1.669 122.849  0.00  0.00    -0.451 OA
ATOM     10  C   LIG A   1      -6.947   2.652 123.239  0.00  0.00    +0.181 A 
ATOM     11  C   LIG A   1      -6.533   2.815 124.517  0.00  0.00    +0.214 A 
ENDROOT
BRANCH  10  12
ATOM     12  C   LIG A   1      -6.465   3.487 122.098  0.00  0.00    +0.025 A 
ATOM     13  C   LIG A   1      -5.364   4.356 122.225  0.00  0.00    +0.060 A 
ATOM     14  C   LIG A   1      -4.932   5.119 121.143  0.00  0.00    +0.159 A 
ATOM     15  C   LIG A   1      -5.608   5.066 119.930  0.00  0.00    +0.158 A 
ATOM     16  C   LIG A   1      -6.714   4.248 119.779  0.00  0.00    +0.050 A 
ATOM     17  C   LIG A   1      -7.139   3.460 120.859  0.00  0.00    +0.015 A 
BRANCH  14  18
ATOM     18  O   LIG A   1      -3.841   5.940 121.230  0.00  0.00    -0.503 OA
ATOM     19  H   LIG A   1      -4.054   6.770 120.766  0.00  0.00    +0.292 HD
ENDBRANCH  14  18
BRANCH  15  20
ATOM     20  O   LIG A   1      -5.181   5.825 118.879  0.00  0.00    -0.503 OA
ATOM     21  H   LIG A   1      -5.421   6.741 119.125  0.00  0.00    +0.292 HD
ENDBRANCH  15  20
ENDBRANCH  10  12
BRANCH   6  22
ATOM     22  O   LIG A   1      -9.657  -2.657 123.609  0.00  0.00    -0.506 OA
ATOM     23  H   LIG A   1      -9.695  -2.577 122.641  0.00  0.00    +0.292 HD
ENDBRANCH   6  22
BRANCH   4  24
ATOM     24  O   LIG A   1      -7.701  -0.333 127.258  0.00  0.00    -0.506 OA
ATOM     25  H   LIG A   1      -8.183  -1.068 127.697  0.00  0.00    +0.292 HD
ENDBRANCH   4  24
BRANCH  11  26
ATOM     26  O   LIG A   1      -5.544   3.722 124.867  0.00  0.00    -0.453 OA
BRANCH  26  27
ATOM     27  C   LIG A   1      -5.033   3.677 126.213  0.00  0.00    +0.339 C 
ATOM     28  O   LIG A   1      -4.713   5.018 126.608  0.00  0.00    -0.337 OA
ATOM     29  C   LIG A   1      -4.421   5.113 128.011  0.00  0.00    +0.198 C 
ATOM     30  C   LIG A   1      -3.694   3.883 128.583  0.00  0.00    +0.171 C 
ATOM     31  C   LIG A   1      -2.843   3.227 127.493  0.00  0.00    +0.180 C 
ATOM     32  C   LIG A   1      -3.751   2.791 126.325  0.00  0.00    +0.214 C 
BRANCH  31  33
ATOM     33  O   LIG A   1      -1.817   4.124 127.067  0.00  0.00    -0.386 OA
ATOM     34  H   LIG A   1      -1.066   4.019 127.679  0.00  0.00    +0.210 HD
ENDBRANCH  31  33
BRANCH  30  35
ATOM     35  O   LIG A   1      -4.649   2.910 129.047  0.00  0.00    -0.387 OA
ATOM     36  H   LIG A   1      -4.320   2.031 128.783  0.00  0.00    +0.210 HD
ENDBRANCH  30  35
BRANCH  32  37
ATOM     37  O   LIG A   1      -4.091   1.408 126.532  0.00  0.00    -0.383 OA
ATOM     38  H   LIG A   1      -5.066   1.382 126.640  0.00  0.00    +0.210 HD
ENDBRANCH  32  37
ENDBRANCH  26  27
ENDBRANCH  11  26
TORSDOF 10
ENDMDL
MODEL 2
REMARK VINA RESULT:      -8.6      4.963      6.657
REMARK  Name = NuBBE_9
REMARK  10 active torsions:
REMARK  status: ('A' for Active; 'I' for Inactive)
REMARK    1  A    between atoms: C_4  and  O_35
REMARK    2  A    between atoms: C_6  and  O_34
REMARK    3  A    between atoms: C_10  and  C_11
REMARK    4  A    between atoms: C_13  and  O_14
REMARK    5  A    between atoms: C_15  and  O_18
REMARK    6  A    between atoms: C_19  and  O_20
REMARK    7  A    between atoms: O_20  and  C_21
REMARK    8  A    between atoms: C_25  and  O_30
REMARK    9  A    between atoms: C_27  and  O_29
REMARK   10  A    between atoms: C_31  and  O_33
REMARK                            x       y       z     vdW  Elec       q    Type
REMARK                         _______ _______ _______ _____ _____    ______ ____
ROOT
ATOM      1  O   LIG A   1     -10.219   3.928 130.908  0.00  0.00    -0.283 OA
ATOM      2  C   LIG A   1      -9.360   3.378 130.230  0.00  0.00    +0.238 A 
ATOM      3  C   LIG A   1      -8.908   2.041 130.599  0.00  0.00    +0.109 A 
ATOM      4  C   LIG A   1      -9.110   1.532 131.886  0.00  0.00    +0.135 A 
ATOM      5  C   LIG A   1      -8.686   0.248 132.201  0.00  0.00    +0.091 A 
ATOM      6  C   LIG A   1      -8.087  -0.523 131.207  0.00  0.00    +0.124 A 
ATOM      7  C   LIG A   1      -7.870  -0.015 129.924  0.00  0.00    +0.092 A 
ATOM      8  C   LIG A   1      -8.265   1.288 129.627  0.00  0.00    +0.146 A 
ATOM      9  O   LIG A   1      -8.011   1.784 128.373  0.00  0.00    -0.451 OA
ATOM     10  C   LIG A   1      -8.097   3.168 128.177  0.00  0.00    +0.181 A 
ATOM     11  C   LIG A   1      -8.684   4.008 129.059  0.00  0.00    +0.214 A 
ENDROOT
BRANCH  10  12
ATOM     12  C   LIG A   1      -7.460   3.616 126.901  0.00  0.00    +0.025 A 
ATOM     13  C   LIG A   1      -8.108   3.478 125.659  0.00  0.00    +0.060 A 
ATOM     14  C   LIG A   1      -7.494   3.910 124.485  0.00  0.00    +0.159 A 
ATOM     15  C   LIG A   1      -6.213   4.447 124.518  0.00  0.00    +0.158 A 
ATOM     16  C   LIG A   1      -5.534   4.568 125.718  0.00  0.00    +0.050 A 
ATOM     17  C   LIG A   1      -6.156   4.156 126.905  0.00  0.00    +0.015 A 
BRANCH  14  18
ATOM     18  O   LIG A   1      -8.118   3.823 123.271  0.00  0.00    -0.503 OA
ATOM     19  H   LIG A   1      -8.457   4.709 123.046  0.00  0.00    +0.292 HD
ENDBRANCH  14  18
BRANCH  15  20
ATOM     20  O   LIG A   1      -5.617   4.860 123.361  0.00  0.00    -0.503 OA
ATOM     21  H   LIG A   1      -4.919   4.195 123.196  0.00  0.00    +0.292 HD
ENDBRANCH  15  20
ENDBRANCH  10  12
BRANCH   6  22
ATOM     22  O   LIG A   1      -7.694  -1.804 131.460  0.00  0.00    -0.506 OA
ATOM     23  H   LIG A   1      -7.793  -1.977 132.411  0.00  0.00    +0.292 HD
ENDBRANCH   6  22
BRANCH   4  24
ATOM     24  O   LIG A   1      -9.707   2.251 132.887  0.00  0.00    -0.506 OA
ATOM     25  H   LIG A   1      -9.100   2.243 133.660  0.00  0.00    +0.292 HD
ENDBRANCH   4  24
BRANCH  11  26
ATOM     26  O   LIG A   1      -8.665   5.385 128.900  0.00  0.00    -0.453 OA
BRANCH  26  27
ATOM     27  C   LIG A   1      -9.877   6.032 128.470  0.00  0.00    +0.339 C 
ATOM     28  O   LIG A   1      -9.661   6.541 127.147  0.00  0.00    -0.337 OA
ATOM     29  C   LIG A   1     -10.879   6.993 126.535  0.00  0.00    +0.198 C 
ATOM     30  C   LIG A   1     -11.871   7.637 127.520  0.00  0.00    +0.171 C 
ATOM     31  C   LIG A   1     -11.110   8.286 128.678  0.00  0.00    +0.180 C 
ATOM     32  C   LIG A   1     -10.279   7.212 129.412  0.00  0.00    +0.214 C 
BRANCH  31  33
ATOM     33  O   LIG A   1     -10.295   9.352 128.193  0.00  0.00    -0.386 OA
ATOM     34  H   LIG A   1      -9.461   8.960 127.875  0.00  0.00    +0.210 HD
ENDBRANCH  31  33
BRANCH  30  35
ATOM     35  O   LIG A   1     -12.748   6.637 128.070  0.00  0.00    -0.387 OA
ATOM     36  H   LIG A   1     -12.419   6.418 128.961  0.00  0.00    +0.210 HD
ENDBRANCH  30  35
BRANCH  32  37
ATOM     37  O   LIG A   1     -11.061   6.745 130.527  0.00  0.00    -0.383 OA
ATOM     38  H   LIG A   1     -10.950   7.415 131.235  0.00  0.00    +0.210 HD
ENDBRANCH  32  37
ENDBRANCH  26  27
ENDBRANCH  11  26
TORSDOF 10
ENDMDL
MODEL 3
REMARK VINA RESULT:      -8.5      2.243      7.405
REMARK  Name = NuBBE_9
REMARK  10 active torsions:
REMARK  status: ('A' for Active; 'I' for Inactive)
REMARK    1  A    between atoms: C_4  and  O_35
REMARK    2  A    between atoms: C_6  and  O_34
REMARK    3  A    between atoms: C_10  and  C_11
REMARK    4  A    between atoms: C_13  and  O_14
REMARK    5  A    between atoms: C_15  and  O_18
REMARK    6  A    between atoms: C_19  and  O_20
REMARK    7  A    between atoms: O_20  and  C_21
REMARK    8  A    between atoms: C_25  and  O_30
REMARK    9  A    between atoms: C_27  and  O_29
REMARK   10  A    between atoms: C_31  and  O_33
REMARK                            x       y       z     vdW  Elec       q    Type
REMARK                         _______ _______ _______ _____ _____    ______ ____
ROOT
ATOM      1  O   LIG A   1      -9.156   2.779 121.945  0.00  0.00    -0.283 OA
ATOM      2  C   LIG A   1      -8.167   2.784 122.668  0.00  0.00    +0.238 A 
ATOM      3  C   LIG A   1      -6.982   3.525 122.250  0.00  0.00    +0.109 A 
ATOM      4  C   LIG A   1      -6.783   3.889 120.914  0.00  0.00    +0.135 A 
ATOM      5  C   LIG A   1      -5.655   4.613 120.552  0.00  0.00    +0.091 A 
ATOM      6  C   LIG A   1      -4.750   4.986 121.542  0.00  0.00    +0.124 A 
ATOM      7  C   LIG A   1      -4.936   4.613 122.875  0.00  0.00    +0.092 A 
ATOM      8  C   LIG A   1      -6.053   3.856 123.225  0.00  0.00    +0.146 A 
ATOM      9  O   LIG A   1      -6.201   3.466 124.533  0.00  0.00    -0.451 OA
ATOM     10  C   LIG A   1      -7.117   2.447 124.822  0.00  0.00    +0.181 A 
ATOM     11  C   LIG A   1      -8.059   2.025 123.948  0.00  0.00    +0.214 A 
ENDROOT
BRANCH  10  12
ATOM     12  C   LIG A   1      -6.934   1.868 126.187  0.00  0.00    +0.025 A 
ATOM     13  C   LIG A   1      -5.871   0.993 126.487  0.00  0.00    +0.060 A 
ATOM     14  C   LIG A   1      -5.721   0.472 127.770  0.00  0.00    +0.159 A 
ATOM     15  C   LIG A   1      -6.641   0.776 128.765  0.00  0.00    +0.158 A 
ATOM     16  C   LIG A   1      -7.716   1.606 128.497  0.00  0.00    +0.050 A 
ATOM     17  C   LIG A   1      -7.860   2.151 127.213  0.00  0.00    +0.015 A 
BRANCH  14  18
ATOM     18  O   LIG A   1      -4.675  -0.347 128.097  0.00  0.00    -0.503 OA
ATOM     19  H   LIG A   1      -3.848   0.129 127.897  0.00  0.00    +0.292 HD
ENDBRANCH  14  18
BRANCH  15  20
ATOM     20  O   LIG A   1      -6.489   0.253 130.017  0.00  0.00    -0.503 OA
ATOM     21  H   LIG A   1      -7.272  -0.320 130.139  0.00  0.00    +0.292 HD
ENDBRANCH  15  20
ENDBRANCH  10  12
BRANCH   6  22
ATOM     22  O   LIG A   1      -3.651   5.734 121.238  0.00  0.00    -0.506 OA
ATOM     23  H   LIG A   1      -3.051   5.196 120.694  0.00  0.00    +0.292 HD
ENDBRANCH   6  22
BRANCH   4  24
ATOM     24  O   LIG A   1      -7.654   3.554 119.912  0.00  0.00    -0.506 OA
ATOM     25  H   LIG A   1      -7.747   4.338 119.327  0.00  0.00    +0.292 HD
ENDBRANCH   4  24
BRANCH  11  26
ATOM     26  O   LIG A   1      -8.886   0.944 124.210  0.00  0.00    -0.453 OA
BRANCH  26  27
ATOM     27  C   LIG A   1      -8.303  -0.373 124.192  0.00  0.00    +0.339 C 
ATOM     28  O   LIG A   1      -8.355  -0.860 122.844  0.00  0.00    -0.337 OA
ATOM     29  C   LIG A   1      -7.587  -2.061 122.673  0.00  0.00    +0.198 C 
ATOM     30  C   LIG A   1      -7.609  -2.996 123.895  0.00  0.00    +0.171 C 
ATOM     31  C   LIG A   1      -8.926  -2.829 124.656  0.00  0.00    +0.180 C 
ATOM     32  C   LIG A   1      -9.066  -1.366 125.125  0.00  0.00    +0.214 C 
BRANCH  31  33
ATOM     33  O   LIG A   1     -10.021  -3.235 123.835  0.00  0.00    -0.386 OA
ATOM     34  H   LIG A   1     -10.782  -2.672 124.065  0.00  0.00    +0.210 HD
ENDBRANCH  31  33
BRANCH  30  35
ATOM     35  O   LIG A   1      -6.532  -2.668 124.793  0.00  0.00    -0.387 OA
ATOM     36  H   LIG A   1      -6.662  -1.745 125.079  0.00  0.00    +0.210 HD
ENDBRANCH  30  35
BRANCH  32  37
ATOM     37  O   LIG A   1      -8.575  -1.294 126.476  0.00  0.00    -0.383 OA
ATOM     38  H   LIG A   1      -9.055  -1.989 126.976  0.00  0.00    +0.210 HD
ENDBRANCH  32  37
ENDBRANCH  26  27
ENDBRANCH  11  26
TORSDOF 10
ENDMDL
MODEL 4
REMARK VINA RESULT:      -8.4      7.314      9.429
REMARK  Name = NuBBE_9
REMARK  10 active torsions:
REMARK  status: ('A' for Active; 'I' for Inactive)
REMARK    1  A    between atoms: C_4  and  O_35
REMARK    2  A    between atoms: C_6  and  O_34
REMARK    3  A    between atoms: C_10  and  C_11
REMARK    4  A    between atoms: C_13  and  O_14
REMARK    5  A    between atoms: C_15  and  O_18
REMARK    6  A    between atoms: C_19  and  O_20
REMARK    7  A    between atoms: O_20  and  C_21
REMARK    8  A    between atoms: C_25  and  O_30
REMARK    9  A    between atoms: C_27  and  O_29
REMARK   10  A    between atoms: C_31  and  O_33
REMARK                            x       y       z     vdW  Elec       q    Type
REMARK                         _______ _______ _______ _____ _____    ______ ____
ROOT
ATOM      1  O   LIG A   1      -9.803   5.983 133.373  0.00  0.00    -0.283 OA
ATOM      2  C   LIG A   1      -9.240   6.212 132.309  0.00  0.00    +0.238 A 
ATOM      3  C   LIG A   1     -10.015   6.744 131.194  0.00  0.00    +0.109 A 
ATOM      4  C   LIG A   1     -11.409   6.632 131.154  0.00  0.00    +0.135 A 
ATOM      5  C   LIG A   1     -12.119   7.167 130.087  0.00  0.00    +0.091 A 
ATOM      6  C   LIG A   1     -11.421   7.835 129.084  0.00  0.00    +0.124 A 
ATOM      7  C   LIG A   1     -10.029   7.939 129.112  0.00  0.00    +0.092 A 
ATOM      8  C   LIG A   1      -9.320   7.367 130.167  0.00  0.00    +0.146 A 
ATOM      9  O   LIG A   1      -7.950   7.445 130.160  0.00  0.00    -0.451 OA
ATOM     10  C   LIG A   1      -7.232   6.602 131.017  0.00  0.00    +0.181 A 
ATOM     11  C   LIG A   1      -7.801   5.929 132.043  0.00  0.00    +0.214 A 
ENDROOT
BRANCH  10  12
ATOM     12  C   LIG A   1      -5.781   6.515 130.670  0.00  0.00    +0.025 A 
ATOM     13  C   LIG A   1      -5.211   5.338 130.148  0.00  0.00    +0.060 A 
ATOM     14  C   LIG A   1      -3.857   5.286 129.828  0.00  0.00    +0.159 A 
ATOM     15  C   LIG A   1      -3.037   6.384 130.057  0.00  0.00    +0.158 A 
ATOM     16  C   LIG A   1      -3.557   7.546 130.600  0.00  0.00    +0.050 A 
ATOM     17  C   LIG A   1      -4.924   7.611 130.903  0.00  0.00    +0.015 A 
BRANCH  14  18
ATOM     18  O   LIG A   1      -3.288   4.169 129.282  0.00  0.00    -0.503 OA
ATOM     19  H   LIG A   1      -2.727   3.755 129.963  0.00  0.00    +0.292 HD
ENDBRANCH  14  18
BRANCH  15  20
ATOM     20  O   LIG A   1      -1.709   6.320 129.748  0.00  0.00    -0.503 OA
ATOM     21  H   LIG A   1      -1.380   7.229 129.893  0.00  0.00    +0.292 HD
ENDBRANCH  15  20
ENDBRANCH  10  12
BRANCH   6  22
ATOM     22  O   LIG A   1     -12.083   8.414 128.041  0.00  0.00    -0.506 OA
ATOM     23  H   LIG A   1     -12.350   9.311 128.303  0.00  0.00    +0.292 HD
ENDBRANCH   6  22
BRANCH   4  24
ATOM     24  O   LIG A   1     -12.134   5.995 132.126  0.00  0.00    -0.506 OA
ATOM     25  H   LIG A   1     -11.537   5.351 132.566  0.00  0.00    +0.292 HD
ENDBRANCH   4  24
BRANCH  11  26
ATOM     26  O   LIG A   1      -7.097   5.016 132.815  0.00  0.00    -0.453 OA
BRANCH  26  27
ATOM     27  C   LIG A   1      -6.437   5.500 133.999  0.00  0.00    +0.339 C 
ATOM     28  O   LIG A   1      -5.039   5.203 133.880  0.00  0.00    -0.337 OA
ATOM     29  C   LIG A   1      -4.259   5.852 134.894  0.00  0.00    +0.198 C 
ATOM     30  C   LIG A   1      -4.971   5.963 136.255  0.00  0.00    +0.171 C 
ATOM     31  C   LIG A   1      -5.947   4.797 136.429  0.00  0.00    +0.180 C 
ATOM     32  C   LIG A   1      -6.993   4.830 135.296  0.00  0.00    +0.214 C 
BRANCH  31  33
ATOM     33  O   LIG A   1      -5.232   3.561 136.461  0.00  0.00    -0.386 OA
ATOM     34  H   LIG A   1      -5.568   3.012 135.730  0.00  0.00    +0.210 HD
ENDBRANCH  31  33
BRANCH  30  35
ATOM     35  O   LIG A   1      -5.724   7.187 136.326  0.00  0.00    -0.387 OA
ATOM     36  H   LIG A   1      -6.274   7.238 135.522  0.00  0.00    +0.210 HD
ENDBRANCH  30  35
BRANCH  32  37
ATOM     37  O   LIG A   1      -8.147   5.533 135.792  0.00  0.00    -0.383 OA
ATOM     38  H   LIG A   1      -8.634   4.892 136.354  0.00  0.00    +0.210 HD
ENDBRANCH  32  37
ENDBRANCH  26  27
ENDBRANCH  11  26
TORSDOF 10
ENDMDL
MODEL 5
REMARK VINA RESULT:      -8.4      6.323      8.922
REMARK  Name = NuBBE_9
REMARK  10 active torsions:
REMARK  status: ('A' for Active; 'I' for Inactive)
REMARK    1  A    between atoms: C_4  and  O_35
REMARK    2  A    between atoms: C_6  and  O_34
REMARK    3  A    between atoms: C_10  and  C_11
REMARK    4  A    between atoms: C_13  and  O_14
REMARK    5  A    between atoms: C_15  and  O_18
REMARK    6  A    between atoms: C_19  and  O_20
REMARK    7  A    between atoms: O_20  and  C_21
REMARK    8  A    between atoms: C_25  and  O_30
REMARK    9  A    between atoms: C_27  and  O_29
REMARK   10  A    between atoms: C_31  and  O_33
REMARK                            x       y       z     vdW  Elec       q    Type
REMARK                         _______ _______ _______ _____ _____    ______ ____
ROOT
ATOM      1  O   LIG A   1      -9.782   5.553 133.187  0.00  0.00    -0.283 OA
ATOM      2  C   LIG A   1      -9.187   5.930 132.184  0.00  0.00    +0.238 A 
ATOM      3  C   LIG A   1      -9.921   6.644 131.146  0.00  0.00    +0.109 A 
ATOM      4  C   LIG A   1     -11.315   6.569 131.055  0.00  0.00    +0.135 A 
ATOM      5  C   LIG A   1     -11.987   7.276 130.067  0.00  0.00    +0.091 A 
ATOM      6  C   LIG A   1     -11.251   8.075 129.196  0.00  0.00    +0.124 A 
ATOM      7  C   LIG A   1      -9.858   8.143 129.272  0.00  0.00    +0.092 A 
ATOM      8  C   LIG A   1      -9.188   7.401 130.244  0.00  0.00    +0.146 A 
ATOM      9  O   LIG A   1      -7.817   7.449 130.281  0.00  0.00    -0.451 OA
ATOM     10  C   LIG A   1      -7.138   6.470 131.016  0.00  0.00    +0.181 A 
ATOM     11  C   LIG A   1      -7.746   5.660 131.913  0.00  0.00    +0.214 A 
ENDROOT
BRANCH  10  12
ATOM     12  C   LIG A   1      -5.680   6.406 130.695  0.00  0.00    +0.025 A 
ATOM     13  C   LIG A   1      -5.163   5.480 129.768  0.00  0.00    +0.060 A 
ATOM     14  C   LIG A   1      -3.800   5.445 129.483  0.00  0.00    +0.159 A 
ATOM     15  C   LIG A   1      -2.922   6.298 130.140  0.00  0.00    +0.158 A 
ATOM     16  C   LIG A   1      -3.391   7.199 131.081  0.00  0.00    +0.050 A 
ATOM     17  C   LIG A   1      -4.765   7.253 131.355  0.00  0.00    +0.015 A 
BRANCH  14  18
ATOM     18  O   LIG A   1      -3.279   4.583 128.558  0.00  0.00    -0.503 OA
ATOM     19  H   LIG A   1      -3.657   4.812 127.689  0.00  0.00    +0.292 HD
ENDBRANCH  14  18
BRANCH  15  20
ATOM     20  O   LIG A   1      -1.587   6.250 129.859  0.00  0.00    -0.503 OA
ATOM     21  H   LIG A   1      -1.494   6.755 129.027  0.00  0.00    +0.292 HD
ENDBRANCH  15  20
ENDBRANCH  10  12
BRANCH   6  22
ATOM     22  O   LIG A   1     -11.873   8.820 128.238  0.00  0.00    -0.506 OA
ATOM     23  H   LIG A   1     -12.327   9.563 128.670  0.00  0.00    +0.292 HD
ENDBRANCH   6  22
BRANCH   4  24
ATOM     24  O   LIG A   1     -12.078   5.807 131.900  0.00  0.00    -0.506 OA
ATOM     25  H   LIG A   1     -12.629   6.419 132.435  0.00  0.00    +0.292 HD
ENDBRANCH   4  24
BRANCH  11  26
ATOM     26  O   LIG A   1      -7.079   4.625 132.551  0.00  0.00    -0.453 OA
BRANCH  26  27
ATOM     27  C   LIG A   1      -7.227   3.296 132.019  0.00  0.00    +0.339 C 
ATOM     28  O   LIG A   1      -7.941   3.393 130.779  0.00  0.00    -0.337 OA
ATOM     29  C   LIG A   1      -7.933   2.157 130.051  0.00  0.00    +0.198 C 
ATOM     30  C   LIG A   1      -7.990   0.904 130.945  0.00  0.00    +0.171 C 
ATOM     31  C   LIG A   1      -8.741   1.223 132.240  0.00  0.00    +0.180 C 
ATOM     32  C   LIG A   1      -8.014   2.358 132.990  0.00  0.00    +0.214 C 
BRANCH  31  33
ATOM     33  O   LIG A   1     -10.098   1.557 131.950  0.00  0.00    -0.386 OA
ATOM     34  H   LIG A   1     -10.634   1.292 132.720  0.00  0.00    +0.210 HD
ENDBRANCH  31  33
BRANCH  30  35
ATOM     35  O   LIG A   1      -6.660   0.481 131.295  0.00  0.00    -0.387 OA
ATOM     36  H   LIG A   1      -6.051   1.206 131.058  0.00  0.00    +0.210 HD
ENDBRANCH  30  35
BRANCH  32  37
ATOM     37  O   LIG A   1      -7.134   1.750 133.953  0.00  0.00    -0.383 OA
ATOM     38  H   LIG A   1      -6.551   1.146 133.443  0.00  0.00    +0.210 HD
ENDBRANCH  32  37
ENDBRANCH  26  27
ENDBRANCH  11  26
TORSDOF 10
ENDMDL
MODEL 6
REMARK VINA RESULT:      -8.4      3.094      8.355
REMARK  Name = NuBBE_9
REMARK  10 active torsions:
REMARK  status: ('A' for Active; 'I' for Inactive)
REMARK    1  A    between atoms: C_4  and  O_35
REMARK    2  A    between atoms: C_6  and  O_34
REMARK    3  A    between atoms: C_10  and  C_11
REMARK    4  A    between atoms: C_13  and  O_14
REMARK    5  A    between atoms: C_15  and  O_18
REMARK    6  A    between atoms: C_19  and  O_20
REMARK    7  A    between atoms: O_20  and  C_21
REMARK    8  A    between atoms: C_25  and  O_30
REMARK    9  A    between atoms: C_27  and  O_29
REMARK   10  A    between atoms: C_31  and  O_33
REMARK                            x       y       z     vdW  Elec       q    Type
REMARK                         _______ _______ _______ _____ _____    ______ ____
ROOT
ATOM      1  O   LIG A   1      -9.307   2.287 125.717  0.00  0.00    -0.283 OA
ATOM      2  C   LIG A   1      -8.281   1.920 126.277  0.00  0.00    +0.238 A 
ATOM      3  C   LIG A   1      -7.170   2.856 126.413  0.00  0.00    +0.109 A 
ATOM      4  C   LIG A   1      -7.071   3.992 125.603  0.00  0.00    +0.135 A 
ATOM      5  C   LIG A   1      -6.011   4.875 125.770  0.00  0.00    +0.091 A 
ATOM      6  C   LIG A   1      -5.077   4.619 126.771  0.00  0.00    +0.124 A 
ATOM      7  C   LIG A   1      -5.164   3.480 127.573  0.00  0.00    +0.092 A 
ATOM      8  C   LIG A   1      -6.210   2.580 127.375  0.00  0.00    +0.146 A 
ATOM      9  O   LIG A   1      -6.259   1.446 128.147  0.00  0.00    -0.451 OA
ATOM     10  C   LIG A   1      -7.092   0.399 127.735  0.00  0.00    +0.181 A 
ATOM     11  C   LIG A   1      -8.054   0.540 126.795  0.00  0.00    +0.214 A 
ENDROOT
BRANCH  10  12
ATOM     12  C   LIG A   1      -6.796  -0.890 128.432  0.00  0.00    +0.025 A 
ATOM     13  C   LIG A   1      -5.588  -1.585 128.226  0.00  0.00    +0.060 A 
ATOM     14  C   LIG A   1      -5.335  -2.782 128.893  0.00  0.00    +0.159 A 
ATOM     15  C   LIG A   1      -6.290  -3.330 129.741  0.00  0.00    +0.158 A 
ATOM     16  C   LIG A   1      -7.501  -2.691 129.940  0.00  0.00    +0.050 A 
ATOM     17  C   LIG A   1      -7.751  -1.474 129.289  0.00  0.00    +0.015 A 
BRANCH  14  18
ATOM     18  O   LIG A   1      -4.155  -3.455 128.742  0.00  0.00    -0.503 OA
ATOM     19  H   LIG A   1      -3.610  -2.965 128.099  0.00  0.00    +0.292 HD
ENDBRANCH  14  18
BRANCH  15  20
ATOM     20  O   LIG A   1      -6.035  -4.508 130.383  0.00  0.00    -0.503 OA
ATOM     21  H   LIG A   1      -6.019  -4.270 131.331  0.00  0.00    +0.292 HD
ENDBRANCH  15  20
ENDBRANCH  10  12
BRANCH   6  22
ATOM     22  O   LIG A   1      -4.046   5.482 126.999  0.00  0.00    -0.506 OA
ATOM     23  H   LIG A   1      -3.481   5.506 126.208  0.00  0.00    +0.292 HD
ENDBRANCH   6  22
BRANCH   4  24
ATOM     24  O   LIG A   1      -7.975   4.287 124.617  0.00  0.00    -0.506 OA
ATOM     25  H   LIG A   1      -8.872   4.121 124.979  0.00  0.00    +0.292 HD
ENDBRANCH   4  24
BRANCH  11  26
ATOM     26  O   LIG A   1      -8.796  -0.532 126.323  0.00  0.00    -0.453 OA
BRANCH  26  27
ATOM     27  C   LIG A   1      -8.500  -1.030 125.004  0.00  0.00    +0.339 C 
ATOM     28  O   LIG A   1      -9.549  -0.601 124.125  0.00  0.00    -0.337 OA
ATOM     29  C   LIG A   1      -9.231  -0.840 122.746  0.00  0.00    +0.198 C 
ATOM     30  C   LIG A   1      -8.420  -2.127 122.506  0.00  0.00    +0.171 C 
ATOM     31  C   LIG A   1      -8.755  -3.162 123.581  0.00  0.00    +0.180 C 
ATOM     32  C   LIG A   1      -8.411  -2.589 124.972  0.00  0.00    +0.214 C 
BRANCH  31  33
ATOM     33  O   LIG A   1     -10.128  -3.542 123.485  0.00  0.00    -0.386 OA
ATOM     34  H   LIG A   1     -10.396  -3.890 124.355  0.00  0.00    +0.210 HD
ENDBRANCH  31  33
BRANCH  30  35
ATOM     35  O   LIG A   1      -7.010  -1.849 122.580  0.00  0.00    -0.387 OA
ATOM     36  H   LIG A   1      -6.805  -1.194 121.888  0.00  0.00    +0.210 HD
ENDBRANCH  30  35
BRANCH  32  37
ATOM     37  O   LIG A   1      -7.088  -3.042 125.313  0.00  0.00    -0.383 OA
ATOM     38  H   LIG A   1      -6.597  -2.245 125.607  0.00  0.00    +0.210 HD
ENDBRANCH  32  37
ENDBRANCH  26  27
ENDBRANCH  11  26
TORSDOF 10
ENDMDL
MODEL 7
REMARK VINA RESULT:      -8.3      1.738      5.822
REMARK  Name = NuBBE_9
REMARK  10 active torsions:
REMARK  status: ('A' for Active; 'I' for Inactive)
REMARK    1  A    between atoms: C_4  and  O_35
REMARK    2  A    between atoms: C_6  and  O_34
REMARK    3  A    between atoms: C_10  and  C_11
REMARK    4  A    between atoms: C_13  and  O_14
REMARK    5  A    between atoms: C_15  and  O_18
REMARK    6  A    between atoms: C_19  and  O_20
REMARK    7  A    between atoms: O_20  and  C_21
REMARK    8  A    between atoms: C_25  and  O_30
REMARK    9  A    between atoms: C_27  and  O_29
REMARK   10  A    between atoms: C_31  and  O_33
REMARK                            x       y       z     vdW  Elec       q    Type
REMARK                         _______ _______ _______ _____ _____    ______ ____
ROOT
ATOM      1  O   LIG A   1      -6.182   0.508 126.280  0.00  0.00    -0.283 OA
ATOM      2  C   LIG A   1      -6.204   1.621 125.769  0.00  0.00    +0.238 A 
ATOM      3  C   LIG A   1      -5.778   2.774 126.555  0.00  0.00    +0.109 A 
ATOM      4  C   LIG A   1      -5.729   2.727 127.952  0.00  0.00    +0.135 A 
ATOM      5  C   LIG A   1      -5.300   3.835 128.670  0.00  0.00    +0.091 A 
ATOM      6  C   LIG A   1      -4.897   4.972 127.973  0.00  0.00    +0.124 A 
ATOM      7  C   LIG A   1      -4.957   5.029 126.579  0.00  0.00    +0.092 A 
ATOM      8  C   LIG A   1      -5.424   3.925 125.867  0.00  0.00    +0.146 A 
ATOM      9  O   LIG A   1      -5.512   4.011 124.500  0.00  0.00    -0.451 OA
ATOM     10  C   LIG A   1      -6.278   3.055 123.822  0.00  0.00    +0.181 A 
ATOM     11  C   LIG A   1      -6.697   1.902 124.390  0.00  0.00    +0.214 A 
ENDROOT
BRANCH  10  12
ATOM     12  C   LIG A   1      -6.593   3.451 122.416  0.00  0.00    +0.025 A 
ATOM     13  C   LIG A   1      -7.903   3.385 121.902  0.00  0.00    +0.060 A 
ATOM     14  C   LIG A   1      -8.171   3.765 120.589  0.00  0.00    +0.159 A 
ATOM     15  C   LIG A   1      -7.141   4.177 119.752  0.00  0.00    +0.158 A 
ATOM     16  C   LIG A   1      -5.837   4.222 120.214  0.00  0.00    +0.050 A 
ATOM     17  C   LIG A   1      -5.566   3.862 121.542  0.00  0.00    +0.015 A 
BRANCH  14  18
ATOM     18  O   LIG A   1      -9.439   3.748 120.078  0.00  0.00    -0.503 OA
ATOM     19  H   LIG A   1      -9.985   3.177 120.650  0.00  0.00    +0.292 HD
ENDBRANCH  14  18
BRANCH  15  20
ATOM     20  O   LIG A   1      -7.413   4.539 118.464  0.00  0.00    -0.503 OA
ATOM     21  H   LIG A   1      -8.338   4.254 118.320  0.00  0.00    +0.292 HD
ENDBRANCH  15  20
ENDBRANCH  10  12
BRANCH   6  22
ATOM     22  O   LIG A   1      -4.428   6.067 128.636  0.00  0.00    -0.506 OA
ATOM     23  H   LIG A   1      -3.801   5.772 129.317  0.00  0.00    +0.292 HD
ENDBRANCH   6  22
BRANCH   4  24
ATOM     24  O   LIG A   1      -6.103   1.625 128.675  0.00  0.00    -0.506 OA
ATOM     25  H   LIG A   1      -6.302   0.906 128.037  0.00  0.00    +0.292 HD
ENDBRANCH   4  24
BRANCH  11  26
ATOM     26  O   LIG A   1      -7.544   1.017 123.739  0.00  0.00    -0.453 OA
BRANCH  26  27
ATOM     27  C   LIG A   1      -7.481  -0.373 124.108  0.00  0.00    +0.339 C 
ATOM     28  O   LIG A   1      -7.139  -1.125 122.935  0.00  0.00    -0.337 OA
ATOM     29  C   LIG A   1      -6.818  -2.490 123.243  0.00  0.00    +0.198 C 
ATOM     30  C   LIG A   1      -7.647  -3.083 124.397  0.00  0.00    +0.171 C 
ATOM     31  C   LIG A   1      -9.021  -2.410 124.450  0.00  0.00    +0.180 C 
ATOM     32  C   LIG A   1      -8.842  -0.894 124.670  0.00  0.00    +0.214 C 
BRANCH  31  33
ATOM     33  O   LIG A   1      -9.752  -2.695 123.258  0.00  0.00    -0.386 OA
ATOM     34  H   LIG A   1      -9.563  -1.981 122.622  0.00  0.00    +0.210 HD
ENDBRANCH  31  33
BRANCH  30  35
ATOM     35  O   LIG A   1      -6.989  -2.849 125.655  0.00  0.00    -0.387 OA
ATOM     36  H   LIG A   1      -7.634  -3.036 126.361  0.00  0.00    +0.210 HD
ENDBRANCH  30  35
BRANCH  32  37
ATOM     37  O   LIG A   1      -8.951  -0.644 126.083  0.00  0.00    -0.383 OA
ATOM     38  H   LIG A   1      -8.076  -0.870 126.466  0.00  0.00    +0.210 HD
ENDBRANCH  32  37
ENDBRANCH  26  27
ENDBRANCH  11  26
TORSDOF 10
ENDMDL
MODEL 8
REMARK VINA RESULT:      -8.3      4.702      8.973
REMARK  Name = NuBBE_9
REMARK  10 active torsions:
REMARK  status: ('A' for Active; 'I' for Inactive)
REMARK    1  A    between atoms: C_4  and  O_35
REMARK    2  A    between atoms: C_6  and  O_34
REMARK    3  A    between atoms: C_10  and  C_11
REMARK    4  A    between atoms: C_13  and  O_14
REMARK    5  A    between atoms: C_15  and  O_18
REMARK    6  A    between atoms: C_19  and  O_20
REMARK    7  A    between atoms: O_20  and  C_21
REMARK    8  A    between atoms: C_25  and  O_30
REMARK    9  A    between atoms: C_27  and  O_29
REMARK   10  A    between atoms: C_31  and  O_33
REMARK                            x       y       z     vdW  Elec       q    Type
REMARK                         _______ _______ _______ _____ _____    ______ ____
ROOT
ATOM      1  O   LIG A   1      -8.973   2.529 127.890  0.00  0.00    -0.283 OA
ATOM      2  C   LIG A   1      -8.606   1.945 128.903  0.00  0.00    +0.238 A 
ATOM      3  C   LIG A   1      -8.900   2.528 130.207  0.00  0.00    +0.109 A 
ATOM      4  C   LIG A   1      -9.219   3.883 130.345  0.00  0.00    +0.135 A 
ATOM      5  C   LIG A   1      -9.514   4.403 131.599  0.00  0.00    +0.091 A 
ATOM      6  C   LIG A   1      -9.512   3.548 132.698  0.00  0.00    +0.124 A 
ATOM      7  C   LIG A   1      -9.181   2.197 132.568  0.00  0.00    +0.092 A 
ATOM      8  C   LIG A   1      -8.850   1.691 131.312  0.00  0.00    +0.146 A 
ATOM      9  O   LIG A   1      -8.490   0.370 131.207  0.00  0.00    -0.451 OA
ATOM     10  C   LIG A   1      -7.847  -0.052 130.038  0.00  0.00    +0.181 A 
ATOM     11  C   LIG A   1      -7.813   0.682 128.903  0.00  0.00    +0.214 A 
ENDROOT
BRANCH  10  12
ATOM     12  C   LIG A   1      -7.193  -1.388 130.182  0.00  0.00    +0.025 A 
ATOM     13  C   LIG A   1      -5.886  -1.524 130.690  0.00  0.00    +0.060 A 
ATOM     14  C   LIG A   1      -5.302  -2.782 130.819  0.00  0.00    +0.159 A 
ATOM     15  C   LIG A   1      -5.985  -3.921 130.410  0.00  0.00    +0.158 A 
ATOM     16  C   LIG A   1      -7.258  -3.820 129.875  0.00  0.00    +0.050 A 
ATOM     17  C   LIG A   1      -7.859  -2.559 129.764  0.00  0.00    +0.015 A 
BRANCH  14  18
ATOM     18  O   LIG A   1      -4.051  -2.945 131.347  0.00  0.00    -0.503 OA
ATOM     19  H   LIG A   1      -3.969  -2.348 132.114  0.00  0.00    +0.292 HD
ENDBRANCH  14  18
BRANCH  15  20
ATOM     20  O   LIG A   1      -5.400  -5.148 130.533  0.00  0.00    -0.503 OA
ATOM     21  H   LIG A   1      -4.790  -5.205 129.770  0.00  0.00    +0.292 HD
ENDBRANCH  15  20
ENDBRANCH  10  12
BRANCH   6  22
ATOM     22  O   LIG A   1      -9.838   4.007 133.940  0.00  0.00    -0.506 OA
ATOM     23  H   LIG A   1     -10.775   4.264 133.939  0.00  0.00    +0.292 HD
ENDBRANCH   6  22
BRANCH   4  24
ATOM     24  O   LIG A   1      -9.246   4.755 129.289  0.00  0.00    -0.506 OA
ATOM     25  H   LIG A   1      -9.952   4.455 128.676  0.00  0.00    +0.292 HD
ENDBRANCH   4  24
BRANCH  11  26
ATOM     26  O   LIG A   1      -7.081   0.297 127.790  0.00  0.00    -0.453 OA
BRANCH  26  27
ATOM     27  C   LIG A   1      -7.714  -0.571 126.832  0.00  0.00    +0.339 C 
ATOM     28  O   LIG A   1      -6.799  -1.631 126.524  0.00  0.00    -0.337 OA
ATOM     29  C   LIG A   1      -7.420  -2.678 125.763  0.00  0.00    +0.198 C 
ATOM     30  C   LIG A   1      -8.480  -2.180 124.764  0.00  0.00    +0.171 C 
ATOM     31  C   LIG A   1      -8.131  -0.765 124.297  0.00  0.00    +0.180 C 
ATOM     32  C   LIG A   1      -8.087   0.181 125.514  0.00  0.00    +0.214 C 
BRANCH  31  33
ATOM     33  O   LIG A   1      -6.896  -0.776 123.582  0.00  0.00    -0.386 OA
ATOM     34  H   LIG A   1      -7.029  -0.266 122.762  0.00  0.00    +0.210 HD
ENDBRANCH  31  33
BRANCH  30  35
ATOM     35  O   LIG A   1      -9.775  -2.135 125.391  0.00  0.00    -0.387 OA
ATOM     36  H   LIG A   1     -10.304  -1.465 124.920  0.00  0.00    +0.210 HD
ENDBRANCH  30  35
BRANCH  32  37
ATOM     37  O   LIG A   1      -9.376   0.812 125.622  0.00  0.00    -0.383 OA
ATOM     38  H   LIG A   1     -10.010   0.208 125.179  0.00  0.00    +0.210 HD
ENDBRANCH  32  37
ENDBRANCH  26  27
ENDBRANCH  11  26
TORSDOF 10
ENDMDL
MODEL 9
REMARK VINA RESULT:      -8.3      1.759      2.704
REMARK  Name = NuBBE_9
REMARK  10 active torsions:
REMARK  status: ('A' for Active; 'I' for Inactive)
REMARK    1  A    between atoms: C_4  and  O_35
REMARK    2  A    between atoms: C_6  and  O_34
REMARK    3  A    between atoms: C_10  and  C_11
REMARK    4  A    between atoms: C_13  and  O_14
REMARK    5  A    between atoms: C_15  and  O_18
REMARK    6  A    between atoms: C_19  and  O_20
REMARK    7  A    between atoms: O_20  and  C_21
REMARK    8  A    between atoms: C_25  and  O_30
REMARK    9  A    between atoms: C_27  and  O_29
REMARK   10  A    between atoms: C_31  and  O_33
REMARK                            x       y       z     vdW  Elec       q    Type
REMARK                         _______ _______ _______ _____ _____    ______ ____
ROOT
ATOM      1  O   LIG A   1      -9.114   1.592 126.858  0.00  0.00    -0.283 OA
ATOM      2  C   LIG A   1      -8.604   1.298 125.784  0.00  0.00    +0.238 A 
ATOM      3  C   LIG A   1      -8.236  -0.090 125.527  0.00  0.00    +0.109 A 
ATOM      4  C   LIG A   1      -8.072  -1.007 126.570  0.00  0.00    +0.135 A 
ATOM      5  C   LIG A   1      -7.740  -2.326 126.291  0.00  0.00    +0.091 A 
ATOM      6  C   LIG A   1      -7.605  -2.716 124.961  0.00  0.00    +0.124 A 
ATOM      7  C   LIG A   1      -7.754  -1.802 123.916  0.00  0.00    +0.092 A 
ATOM      8  C   LIG A   1      -8.050  -0.472 124.206  0.00  0.00    +0.146 A 
ATOM      9  O   LIG A   1      -8.156   0.422 123.169  0.00  0.00    -0.451 OA
ATOM     10  C   LIG A   1      -8.119   1.789 123.465  0.00  0.00    +0.181 A 
ATOM     11  C   LIG A   1      -8.271   2.283 124.715  0.00  0.00    +0.214 A 
ENDROOT
BRANCH  10  12
ATOM     12  C   LIG A   1      -7.880   2.640 122.260  0.00  0.00    +0.025 A 
ATOM     13  C   LIG A   1      -8.927   3.014 121.395  0.00  0.00    +0.060 A 
ATOM     14  C   LIG A   1      -8.678   3.813 120.282  0.00  0.00    +0.159 A 
ATOM     15  C   LIG A   1      -7.383   4.220 119.984  0.00  0.00    +0.158 A 
ATOM     16  C   LIG A   1      -6.326   3.845 120.794  0.00  0.00    +0.050 A 
ATOM     17  C   LIG A   1      -6.574   3.059 121.929  0.00  0.00    +0.015 A 
BRANCH  14  18
ATOM     18  O   LIG A   1      -9.682   4.222 119.449  0.00  0.00    -0.503 OA
ATOM     19  H   LIG A   1     -10.459   4.433 119.998  0.00  0.00    +0.292 HD
ENDBRANCH  14  18
BRANCH  15  20
ATOM     20  O   LIG A   1      -7.149   4.996 118.886  0.00  0.00    -0.503 OA
ATOM     21  H   LIG A   1      -8.040   5.240 118.564  0.00  0.00    +0.292 HD
ENDBRANCH  15  20
ENDBRANCH  10  12
BRANCH   6  22
ATOM     22  O   LIG A   1      -7.323  -4.012 124.640  0.00  0.00    -0.506 OA
ATOM     23  H   LIG A   1      -8.032  -4.350 124.068  0.00  0.00    +0.292 HD
ENDBRANCH   6  22
BRANCH   4  24
ATOM     24  O   LIG A   1      -8.209  -0.667 127.890  0.00  0.00    -0.506 OA
ATOM     25  H   LIG A   1      -7.377  -0.228 128.172  0.00  0.00    +0.292 HD
ENDBRANCH   4  24
BRANCH  11  26
ATOM     26  O   LIG A   1      -8.125   3.631 125.005  0.00  0.00    -0.453 OA
BRANCH  26  27
ATOM     27  C   LIG A   1      -6.929   4.049 125.690  0.00  0.00    +0.339 C 
ATOM     28  O   LIG A   1      -5.835   3.274 125.180  0.00  0.00    -0.337 OA
ATOM     29  C   LIG A   1      -4.565   3.776 125.622  0.00  0.00    +0.198 C 
ATOM     30  C   LIG A   1      -4.581   4.348 127.051  0.00  0.00    +0.171 C 
ATOM     31  C   LIG A   1      -5.647   3.633 127.886  0.00  0.00    +0.180 C 
ATOM     32  C   LIG A   1      -7.031   3.835 127.234  0.00  0.00    +0.214 C 
BRANCH  31  33
ATOM     33  O   LIG A   1      -5.317   2.251 128.023  0.00  0.00    -0.386 OA
ATOM     34  H   LIG A   1      -4.375   2.153 127.792  0.00  0.00    +0.210 HD
ENDBRANCH  31  33
BRANCH  30  35
ATOM     35  O   LIG A   1      -4.905   5.750 127.023  0.00  0.00    -0.387 OA
ATOM     36  H   LIG A   1      -5.682   5.858 126.444  0.00  0.00    +0.210 HD
ENDBRANCH  30  35
BRANCH  32  37
ATOM     37  O   LIG A   1      -7.653   4.963 127.876  0.00  0.00    -0.383 OA
ATOM     38  H   LIG A   1      -7.689   4.745 128.832  0.00  0.00    +0.210 HD
ENDBRANCH  32  37
ENDBRANCH  26  27
ENDBRANCH  11  26
TORSDOF 10
ENDMDL
