MODEL 1
REMARK VINA RESULT:      -8.7      0.000      0.000
REMARK  Name = NuBBE_2395
REMARK  6 active torsions:
REMARK  status: ('A' for Active; 'I' for Inactive)
REMARK    1  A    between atoms: O_1  and  C_2
REMARK    2  A    between atoms: C_6  and  C_9
REMARK    3  A    between atoms: C_6  and  C_10
REMARK    4  A    between atoms: C_13  and  C_14
REMARK    5  A    between atoms: C_14  and  C_16
REMARK    6  A    between atoms: C_17  and  C_18
REMARK                            x       y       z     vdW  Elec       q    Type
REMARK                         _______ _______ _______ _____ _____    ______ ____
ROOT
ATOM      1  C   LIG A   1      -9.311   6.902 130.650  0.00  0.00    +0.138 A 
ATOM      2  C   LIG A   1     -10.420   7.410 129.933  0.00  0.00    +0.059 A 
ATOM      3  C   LIG A   1     -11.707   7.246 130.461  0.00  0.00    +0.132 A 
ATOM      4  O   LIG A   1     -12.855   7.663 129.844  0.00  0.00    -0.481 OA
ATOM      5  C   LIG A   1     -12.778   8.253 128.531  0.00  0.00    +0.123 C 
ATOM      6  C   LIG A   1     -11.382   8.497 128.013  0.00  0.00    +0.020 C 
ATOM      7  C   LIG A   1     -10.279   8.119 128.663  0.00  0.00    +0.015 C 
ATOM      8  C   LIG A   1     -13.519   7.319 127.566  0.00  0.00    +0.060 C 
ATOM      9  C   LIG A   1     -13.505   9.601 128.618  0.00  0.00    +0.060 C 
ATOM     10  C   LIG A   1     -11.882   6.619 131.695  0.00  0.00    +0.047 A 
ATOM     11  C   LIG A   1     -10.776   6.146 132.410  0.00  0.00    +0.019 A 
ATOM     12  C   LIG A   1      -9.474   6.285 131.901  0.00  0.00    +0.064 A 
ENDROOT
BRANCH   1  13
ATOM     13  O   LIG A   1      -8.056   6.966 130.097  0.00  0.00    -0.505 OA
ATOM     14  H   LIG A   1      -7.879   7.891 129.853  0.00  0.00    +0.292 HD
ENDBRANCH   1  13
BRANCH  12  15
ATOM     15  C   LIG A   1      -8.368   5.661 132.700  0.00  0.00    +0.190 C 
ATOM     16  O   LIG A   1      -7.514   4.998 132.127  0.00  0.00    -0.287 OA
BRANCH  15  17
ATOM     17  C   LIG A   1      -8.355   5.799 134.190  0.00  0.00    +0.052 C 
ATOM     18  C   LIG A   1      -7.199   5.699 134.870  0.00  0.00    +0.012 C 
BRANCH  18  19
ATOM     19  C   LIG A   1      -7.072   5.765 136.339  0.00  0.00    -0.025 A 
ATOM     20  C   LIG A   1      -5.967   5.232 137.018  0.00  0.00    +0.008 A 
ATOM     21  C   LIG A   1      -5.844   5.364 138.406  0.00  0.00    +0.001 A 
ATOM     22  C   LIG A   1      -6.819   6.040 139.134  0.00  0.00    +0.000 A 
ATOM     23  C   LIG A   1      -7.915   6.589 138.475  0.00  0.00    +0.001 A 
ATOM     24  C   LIG A   1      -8.038   6.456 137.086  0.00  0.00    +0.008 A 
ENDBRANCH  18  19
ENDBRANCH  15  17
ENDBRANCH  12  15
TORSDOF 4
ENDMDL
MODEL 2
REMARK VINA RESULT:      -8.4      9.074     12.862
REMARK  Name = NuBBE_2395
REMARK  6 active torsions:
REMARK  status: ('A' for Active; 'I' for Inactive)
REMARK    1  A    between atoms: O_1  and  C_2
REMARK    2  A    between atoms: C_6  and  C_9
REMARK    3  A    between atoms: C_6  and  C_10
REMARK    4  A    between atoms: C_13  and  C_14
REMARK    5  A    between atoms: C_14  and  C_16
REMARK    6  A    between atoms: C_17  and  C_18
REMARK                            x       y       z     vdW  Elec       q    Type
REMARK                         _______ _______ _______ _____ _____    ______ ____
ROOT
ATOM      1  C   LIG A   1      -9.050  -1.058 125.778  0.00  0.00    +0.138 A 
ATOM      2  C   LIG A   1      -8.455  -1.614 126.936  0.00  0.00    +0.059 A 
ATOM      3  C   LIG A   1      -7.768  -0.774 127.821  0.00  0.00    +0.132 A 
ATOM      4  O   LIG A   1      -7.127  -1.200 128.952  0.00  0.00    -0.481 OA
ATOM      5  C   LIG A   1      -7.076  -2.611 129.246  0.00  0.00    +0.123 C 
ATOM      6  C   LIG A   1      -7.888  -3.491 128.330  0.00  0.00    +0.020 C 
ATOM      7  C   LIG A   1      -8.543  -3.036 127.260  0.00  0.00    +0.015 C 
ATOM      8  C   LIG A   1      -5.604  -3.037 129.184  0.00  0.00    +0.060 C 
ATOM      9  C   LIG A   1      -7.610  -2.774 130.676  0.00  0.00    +0.060 C 
ATOM     10  C   LIG A   1      -7.704   0.598 127.575  0.00  0.00    +0.047 A 
ATOM     11  C   LIG A   1      -8.319   1.143 126.442  0.00  0.00    +0.019 A 
ATOM     12  C   LIG A   1      -9.005   0.324 125.530  0.00  0.00    +0.064 A 
ENDROOT
BRANCH   1  13
ATOM     13  O   LIG A   1      -9.638  -1.882 124.852  0.00  0.00    -0.505 OA
ATOM     14  H   LIG A   1     -10.602  -1.825 124.964  0.00  0.00    +0.292 HD
ENDBRANCH   1  13
BRANCH  12  15
ATOM     15  C   LIG A   1      -9.548   0.992 124.302  0.00  0.00    +0.190 C 
ATOM     16  O   LIG A   1     -10.759   1.015 124.116  0.00  0.00    -0.287 OA
BRANCH  15  17
ATOM     17  C   LIG A   1      -8.610   1.566 123.287  0.00  0.00    +0.052 C 
ATOM     18  C   LIG A   1      -8.906   2.722 122.666  0.00  0.00    +0.012 C 
BRANCH  18  19
ATOM     19  C   LIG A   1      -8.086   3.353 121.614  0.00  0.00    -0.025 A 
ATOM     20  C   LIG A   1      -6.690   3.445 121.710  0.00  0.00    +0.008 A 
ATOM     21  C   LIG A   1      -5.932   3.992 120.668  0.00  0.00    +0.001 A 
ATOM     22  C   LIG A   1      -6.559   4.446 119.511  0.00  0.00    +0.000 A 
ATOM     23  C   LIG A   1      -7.942   4.348 119.391  0.00  0.00    +0.001 A 
ATOM     24  C   LIG A   1      -8.700   3.801 120.435  0.00  0.00    +0.008 A 
ENDBRANCH  18  19
ENDBRANCH  15  17
ENDBRANCH  12  15
TORSDOF 4
ENDMDL
MODEL 3
REMARK VINA RESULT:      -8.4      3.125      4.248
REMARK  Name = NuBBE_2395
REMARK  6 active torsions:
REMARK  status: ('A' for Active; 'I' for Inactive)
REMARK    1  A    between atoms: O_1  and  C_2
REMARK    2  A    between atoms: C_6  and  C_9
REMARK    3  A    between atoms: C_6  and  C_10
REMARK    4  A    between atoms: C_13  and  C_14
REMARK    5  A    between atoms: C_14  and  C_16
REMARK    6  A    between atoms: C_17  and  C_18
REMARK                            x       y       z     vdW  Elec       q    Type
REMARK                         _______ _______ _______ _____ _____    ______ ____
ROOT
ATOM      1  C   LIG A   1      -9.957   6.100 132.071  0.00  0.00    +0.138 A 
ATOM      2  C   LIG A   1     -10.825   6.658 131.103  0.00  0.00    +0.059 A 
ATOM      3  C   LIG A   1     -10.280   7.374 130.030  0.00  0.00    +0.132 A 
ATOM      4  O   LIG A   1     -11.018   7.985 129.053  0.00  0.00    -0.481 OA
ATOM      5  C   LIG A   1     -12.457   7.970 129.141  0.00  0.00    +0.123 C 
ATOM      6  C   LIG A   1     -13.027   7.128 130.256  0.00  0.00    +0.020 C 
ATOM      7  C   LIG A   1     -12.277   6.504 131.166  0.00  0.00    +0.015 C 
ATOM      8  C   LIG A   1     -12.919   9.422 129.318  0.00  0.00    +0.060 C 
ATOM      9  C   LIG A   1     -12.967   7.417 127.805  0.00  0.00    +0.060 C 
ATOM     10  C   LIG A   1      -8.896   7.502 129.905  0.00  0.00    +0.047 A 
ATOM     11  C   LIG A   1      -8.045   6.922 130.853  0.00  0.00    +0.019 A 
ATOM     12  C   LIG A   1      -8.562   6.208 131.947  0.00  0.00    +0.064 A 
ENDROOT
BRANCH   1  13
ATOM     13  O   LIG A   1     -10.481   5.484 133.181  0.00  0.00    -0.505 OA
ATOM     14  H   LIG A   1     -10.896   4.651 132.898  0.00  0.00    +0.292 HD
ENDBRANCH   1  13
BRANCH  12  15
ATOM     15  C   LIG A   1      -7.570   5.707 132.954  0.00  0.00    +0.190 C 
ATOM     16  O   LIG A   1      -7.931   5.514 134.108  0.00  0.00    -0.287 OA
BRANCH  15  17
ATOM     17  C   LIG A   1      -6.141   5.510 132.559  0.00  0.00    +0.052 C 
ATOM     18  C   LIG A   1      -5.152   6.051 133.295  0.00  0.00    +0.012 C 
BRANCH  18  19
ATOM     19  C   LIG A   1      -3.714   5.968 132.973  0.00  0.00    -0.025 A 
ATOM     20  C   LIG A   1      -2.984   4.781 133.117  0.00  0.00    +0.008 A 
ATOM     21  C   LIG A   1      -1.636   4.716 132.745  0.00  0.00    +0.001 A 
ATOM     22  C   LIG A   1      -1.002   5.836 132.214  0.00  0.00    +0.000 A 
ATOM     23  C   LIG A   1      -1.716   7.020 132.050  0.00  0.00    +0.001 A 
ATOM     24  C   LIG A   1      -3.064   7.083 132.423  0.00  0.00    +0.008 A 
ENDBRANCH  18  19
ENDBRANCH  15  17
ENDBRANCH  12  15
TORSDOF 4
ENDMDL
MODEL 4
REMARK VINA RESULT:      -8.2      3.000      4.754
REMARK  Name = NuBBE_2395
REMARK  6 active torsions:
REMARK  status: ('A' for Active; 'I' for Inactive)
REMARK    1  A    between atoms: O_1  and  C_2
REMARK    2  A    between atoms: C_6  and  C_9
REMARK    3  A    between atoms: C_6  and  C_10
REMARK    4  A    between atoms: C_13  and  C_14
REMARK    5  A    between atoms: C_14  and  C_16
REMARK    6  A    between atoms: C_17  and  C_18
REMARK                            x       y       z     vdW  Elec       q    Type
REMARK                         _______ _______ _______ _____ _____    ______ ____
ROOT
ATOM      1  C   LIG A   1      -9.454   6.804 130.571  0.00  0.00    +0.138 A 
ATOM      2  C   LIG A   1     -10.544   7.414 129.904  0.00  0.00    +0.059 A 
ATOM      3  C   LIG A   1     -11.824   7.321 130.464  0.00  0.00    +0.132 A 
ATOM      4  O   LIG A   1     -12.955   7.841 129.896  0.00  0.00    -0.481 OA
ATOM      5  C   LIG A   1     -12.871   8.473 128.603  0.00  0.00    +0.123 C 
ATOM      6  C   LIG A   1     -11.476   8.637 128.054  0.00  0.00    +0.020 C 
ATOM      7  C   LIG A   1     -10.386   8.160 128.657  0.00  0.00    +0.015 C 
ATOM      8  C   LIG A   1     -13.702   7.630 127.628  0.00  0.00    +0.060 C 
ATOM      9  C   LIG A   1     -13.498   9.864 128.760  0.00  0.00    +0.060 C 
ATOM     10  C   LIG A   1     -12.010   6.662 131.679  0.00  0.00    +0.047 A 
ATOM     11  C   LIG A   1     -10.922   6.086 132.344  0.00  0.00    +0.019 A 
ATOM     12  C   LIG A   1      -9.627   6.152 131.803  0.00  0.00    +0.064 A 
ENDROOT
BRANCH   1  13
ATOM     13  O   LIG A   1      -8.213   6.800 129.984  0.00  0.00    -0.505 OA
ATOM     14  H   LIG A   1      -7.609   7.310 130.550  0.00  0.00    +0.292 HD
ENDBRANCH   1  13
BRANCH  12  15
ATOM     15  C   LIG A   1      -8.548   5.423 132.547  0.00  0.00    +0.190 C 
ATOM     16  O   LIG A   1      -7.715   6.064 133.176  0.00  0.00    -0.287 OA
BRANCH  15  17
ATOM     17  C   LIG A   1      -8.459   3.933 132.462  0.00  0.00    +0.052 C 
ATOM     18  C   LIG A   1      -8.341   3.327 131.266  0.00  0.00    +0.012 C 
BRANCH  18  19
ATOM     19  C   LIG A   1      -8.299   1.867 131.057  0.00  0.00    -0.025 A 
ATOM     20  C   LIG A   1      -7.852   1.297 129.857  0.00  0.00    +0.008 A 
ATOM     21  C   LIG A   1      -7.764  -0.093 129.710  0.00  0.00    +0.001 A 
ATOM     22  C   LIG A   1      -8.113  -0.931 130.764  0.00  0.00    +0.000 A 
ATOM     23  C   LIG A   1      -8.545  -0.383 131.969  0.00  0.00    +0.001 A 
ATOM     24  C   LIG A   1      -8.633   1.007 132.114  0.00  0.00    +0.008 A 
ENDBRANCH  18  19
ENDBRANCH  15  17
ENDBRANCH  12  15
TORSDOF 4
ENDMDL
MODEL 5
REMARK VINA RESULT:      -8.0      2.490      3.228
REMARK  Name = NuBBE_2395
REMARK  6 active torsions:
REMARK  status: ('A' for Active; 'I' for Inactive)
REMARK    1  A    between atoms: O_1  and  C_2
REMARK    2  A    between atoms: C_6  and  C_9
REMARK    3  A    between atoms: C_6  and  C_10
REMARK    4  A    between atoms: C_13  and  C_14
REMARK    5  A    between atoms: C_14  and  C_16
REMARK    6  A    between atoms: C_17  and  C_18
REMARK                            x       y       z     vdW  Elec       q    Type
REMARK                         _______ _______ _______ _____ _____    ______ ____
ROOT
ATOM      1  C   LIG A   1      -9.454   6.610 130.431  0.00  0.00    +0.138 A 
ATOM      2  C   LIG A   1     -10.548   7.278 129.830  0.00  0.00    +0.059 A 
ATOM      3  C   LIG A   1     -11.779   7.305 130.496  0.00  0.00    +0.132 A 
ATOM      4  O   LIG A   1     -12.914   7.889 130.001  0.00  0.00    -0.481 OA
ATOM      5  C   LIG A   1     -12.893   8.464 128.679  0.00  0.00    +0.123 C 
ATOM      6  C   LIG A   1     -11.541   8.499 128.011  0.00  0.00    +0.020 C 
ATOM      7  C   LIG A   1     -10.442   7.961 128.543  0.00  0.00    +0.015 C 
ATOM      8  C   LIG A   1     -13.865   7.652 127.813  0.00  0.00    +0.060 C 
ATOM      9  C   LIG A   1     -13.400   9.905 128.826  0.00  0.00    +0.060 C 
ATOM     10  C   LIG A   1     -11.910   6.708 131.751  0.00  0.00    +0.047 A 
ATOM     11  C   LIG A   1     -10.815   6.075 132.349  0.00  0.00    +0.019 A 
ATOM     12  C   LIG A   1      -9.570   6.021 131.701  0.00  0.00    +0.064 A 
ENDROOT
BRANCH   1  13
ATOM     13  O   LIG A   1      -8.271   6.488 129.745  0.00  0.00    -0.505 OA
ATOM     14  H   LIG A   1      -7.572   6.266 130.384  0.00  0.00    +0.292 HD
ENDBRANCH   1  13
BRANCH  12  15
ATOM     15  C   LIG A   1      -8.488   5.238 132.385  0.00  0.00    +0.190 C 
ATOM     16  O   LIG A   1      -8.648   4.041 132.583  0.00  0.00    -0.287 OA
BRANCH  15  17
ATOM     17  C   LIG A   1      -7.258   5.936 132.874  0.00  0.00    +0.052 C 
ATOM     18  C   LIG A   1      -6.103   5.831 132.193  0.00  0.00    +0.012 C 
BRANCH  18  19
ATOM     19  C   LIG A   1      -4.818   6.429 132.607  0.00  0.00    -0.025 A 
ATOM     20  C   LIG A   1      -4.009   7.149 131.718  0.00  0.00    +0.008 A 
ATOM     21  C   LIG A   1      -2.827   7.758 132.155  0.00  0.00    +0.001 A 
ATOM     22  C   LIG A   1      -2.442   7.664 133.489  0.00  0.00    +0.000 A 
ATOM     23  C   LIG A   1      -3.241   6.965 134.390  0.00  0.00    +0.001 A 
ATOM     24  C   LIG A   1      -4.424   6.356 133.951  0.00  0.00    +0.008 A 
ENDBRANCH  18  19
ENDBRANCH  15  17
ENDBRANCH  12  15
TORSDOF 4
ENDMDL
MODEL 6
REMARK VINA RESULT:      -8.0      9.486     12.531
REMARK  Name = NuBBE_2395
REMARK  6 active torsions:
REMARK  status: ('A' for Active; 'I' for Inactive)
REMARK    1  A    between atoms: O_1  and  C_2
REMARK    2  A    between atoms: C_6  and  C_9
REMARK    3  A    between atoms: C_6  and  C_10
REMARK    4  A    between atoms: C_13  and  C_14
REMARK    5  A    between atoms: C_14  and  C_16
REMARK    6  A    between atoms: C_17  and  C_18
REMARK                            x       y       z     vdW  Elec       q    Type
REMARK                         _______ _______ _______ _____ _____    ______ ____
ROOT
ATOM      1  C   LIG A   1      -7.524   1.703 125.602  0.00  0.00    +0.138 A 
ATOM      2  C   LIG A   1      -7.785   0.317 125.721  0.00  0.00    +0.059 A 
ATOM      3  C   LIG A   1      -6.712  -0.566 125.893  0.00  0.00    +0.132 A 
ATOM      4  O   LIG A   1      -6.836  -1.925 125.987  0.00  0.00    -0.481 OA
ATOM      5  C   LIG A   1      -8.137  -2.528 125.835  0.00  0.00    +0.123 C 
ATOM      6  C   LIG A   1      -9.290  -1.560 125.733  0.00  0.00    +0.020 C 
ATOM      7  C   LIG A   1      -9.137  -0.235 125.692  0.00  0.00    +0.015 C 
ATOM      8  C   LIG A   1      -8.093  -3.397 124.571  0.00  0.00    +0.060 C 
ATOM      9  C   LIG A   1      -8.353  -3.411 127.071  0.00  0.00    +0.060 C 
ATOM     10  C   LIG A   1      -5.408  -0.075 125.977  0.00  0.00    +0.047 A 
ATOM     11  C   LIG A   1      -5.164   1.299 125.886  0.00  0.00    +0.019 A 
ATOM     12  C   LIG A   1      -6.218   2.210 125.702  0.00  0.00    +0.064 A 
ENDROOT
BRANCH   1  13
ATOM     13  O   LIG A   1      -8.556   2.568 125.332  0.00  0.00    -0.505 OA
ATOM     14  H   LIG A   1      -9.354   2.042 125.152  0.00  0.00    +0.292 HD
ENDBRANCH   1  13
BRANCH  12  15
ATOM     15  C   LIG A   1      -5.841   3.650 125.523  0.00  0.00    +0.190 C 
ATOM     16  O   LIG A   1      -5.580   4.329 126.508  0.00  0.00    -0.287 OA
BRANCH  15  17
ATOM     17  C   LIG A   1      -5.850   4.260 124.157  0.00  0.00    +0.052 C 
ATOM     18  C   LIG A   1      -6.121   3.503 123.078  0.00  0.00    +0.012 C 
BRANCH  18  19
ATOM     19  C   LIG A   1      -6.106   3.982 121.682  0.00  0.00    -0.025 A 
ATOM     20  C   LIG A   1      -7.174   3.756 120.803  0.00  0.00    +0.008 A 
ATOM     21  C   LIG A   1      -7.159   4.276 119.504  0.00  0.00    +0.001 A 
ATOM     22  C   LIG A   1      -6.079   5.039 119.068  0.00  0.00    +0.000 A 
ATOM     23  C   LIG A   1      -5.016   5.286 119.932  0.00  0.00    +0.001 A 
ATOM     24  C   LIG A   1      -5.032   4.765 121.232  0.00  0.00    +0.008 A 
ENDBRANCH  18  19
ENDBRANCH  15  17
ENDBRANCH  12  15
TORSDOF 4
ENDMDL
MODEL 7
REMARK VINA RESULT:      -7.9      9.809     10.839
REMARK  Name = NuBBE_2395
REMARK  6 active torsions:
REMARK  status: ('A' for Active; 'I' for Inactive)
REMARK    1  A    between atoms: O_1  and  C_2
REMARK    2  A    between atoms: C_6  and  C_9
REMARK    3  A    between atoms: C_6  and  C_10
REMARK    4  A    between atoms: C_13  and  C_14
REMARK    5  A    between atoms: C_14  and  C_16
REMARK    6  A    between atoms: C_17  and  C_18
REMARK                            x       y       z     vdW  Elec       q    Type
REMARK                         _______ _______ _______ _____ _____    ______ ____
ROOT
ATOM      1  C   LIG A   1      -8.999  -0.010 124.981  0.00  0.00    +0.138 A 
ATOM      2  C   LIG A   1      -8.420   1.033 124.218  0.00  0.00    +0.059 A 
ATOM      3  C   LIG A   1      -7.274   0.767 123.459  0.00  0.00    +0.132 A 
ATOM      4  O   LIG A   1      -6.609   1.699 122.711  0.00  0.00    -0.481 OA
ATOM      5  C   LIG A   1      -7.049   3.072 122.737  0.00  0.00    +0.123 C 
ATOM      6  C   LIG A   1      -8.330   3.325 123.492  0.00  0.00    +0.020 C 
ATOM      7  C   LIG A   1      -8.982   2.381 124.174  0.00  0.00    +0.015 C 
ATOM      8  C   LIG A   1      -5.921   3.901 123.363  0.00  0.00    +0.060 C 
ATOM      9  C   LIG A   1      -7.257   3.488 121.275  0.00  0.00    +0.060 C 
ATOM     10  C   LIG A   1      -6.734  -0.520 123.434  0.00  0.00    +0.047 A 
ATOM     11  C   LIG A   1      -7.331  -1.550 124.169  0.00  0.00    +0.019 A 
ATOM     12  C   LIG A   1      -8.474  -1.312 124.949  0.00  0.00    +0.064 A 
ENDROOT
BRANCH   1  13
ATOM     13  O   LIG A   1     -10.061   0.261 125.808  0.00  0.00    -0.505 OA
ATOM     14  H   LIG A   1     -10.104  -0.438 126.484  0.00  0.00    +0.292 HD
ENDBRANCH   1  13
BRANCH  12  15
ATOM     15  C   LIG A   1      -8.980  -2.461 125.771  0.00  0.00    +0.190 C 
ATOM     16  O   LIG A   1     -10.142  -2.824 125.645  0.00  0.00    -0.287 OA
BRANCH  15  17
ATOM     17  C   LIG A   1      -8.084  -3.107 126.780  0.00  0.00    +0.052 C 
ATOM     18  C   LIG A   1      -7.432  -2.357 127.688  0.00  0.00    +0.012 C 
BRANCH  18  19
ATOM     19  C   LIG A   1      -6.485  -2.878 128.693  0.00  0.00    -0.025 A 
ATOM     20  C   LIG A   1      -6.899  -3.685 129.761  0.00  0.00    +0.008 A 
ATOM     21  C   LIG A   1      -5.970  -4.216 130.663  0.00  0.00    +0.001 A 
ATOM     22  C   LIG A   1      -4.612  -3.954 130.504  0.00  0.00    +0.000 A 
ATOM     23  C   LIG A   1      -4.181  -3.167 129.440  0.00  0.00    +0.001 A 
ATOM     24  C   LIG A   1      -5.112  -2.636 128.538  0.00  0.00    +0.008 A 
ENDBRANCH  18  19
ENDBRANCH  15  17
ENDBRANCH  12  15
TORSDOF 4
ENDMDL
MODEL 8
REMARK VINA RESULT:      -7.9      9.110     13.012
REMARK  Name = NuBBE_2395
REMARK  6 active torsions:
REMARK  status: ('A' for Active; 'I' for Inactive)
REMARK    1  A    between atoms: O_1  and  C_2
REMARK    2  A    between atoms: C_6  and  C_9
REMARK    3  A    between atoms: C_6  and  C_10
REMARK    4  A    between atoms: C_13  and  C_14
REMARK    5  A    between atoms: C_14  and  C_16
REMARK    6  A    between atoms: C_17  and  C_18
REMARK                            x       y       z     vdW  Elec       q    Type
REMARK                         _______ _______ _______ _____ _____    ______ ____
ROOT
ATOM      1  C   LIG A   1      -8.320   0.859 126.141  0.00  0.00    +0.138 A 
ATOM      2  C   LIG A   1      -7.884  -0.194 126.980  0.00  0.00    +0.059 A 
ATOM      3  C   LIG A   1      -7.408  -1.376 126.400  0.00  0.00    +0.132 A 
ATOM      4  O   LIG A   1      -6.991  -2.471 127.106  0.00  0.00    -0.481 OA
ATOM      5  C   LIG A   1      -7.101  -2.469 128.544  0.00  0.00    +0.123 C 
ATOM      6  C   LIG A   1      -7.538  -1.162 129.156  0.00  0.00    +0.020 C 
ATOM      7  C   LIG A   1      -7.893  -0.094 128.438  0.00  0.00    +0.015 C 
ATOM      8  C   LIG A   1      -8.102  -3.567 128.926  0.00  0.00    +0.060 C 
ATOM      9  C   LIG A   1      -5.708  -2.817 129.085  0.00  0.00    +0.060 C 
ATOM     10  C   LIG A   1      -7.335  -1.494 125.011  0.00  0.00    +0.047 A 
ATOM     11  C   LIG A   1      -7.742  -0.436 124.191  0.00  0.00    +0.019 A 
ATOM     12  C   LIG A   1      -8.236   0.758 124.743  0.00  0.00    +0.064 A 
ENDROOT
BRANCH   1  13
ATOM     13  O   LIG A   1      -8.884   1.981 126.695  0.00  0.00    -0.505 OA
ATOM     14  H   LIG A   1      -9.587   2.293 126.099  0.00  0.00    +0.292 HD
ENDBRANCH   1  13
BRANCH  12  15
ATOM     15  C   LIG A   1      -8.733   1.792 123.777  0.00  0.00    +0.190 C 
ATOM     16  O   LIG A   1      -9.938   1.969 123.655  0.00  0.00    -0.287 OA
BRANCH  15  17
ATOM     17  C   LIG A   1      -7.761   2.548 122.929  0.00  0.00    +0.052 C 
ATOM     18  C   LIG A   1      -8.157   3.093 121.764  0.00  0.00    +0.012 C 
BRANCH  18  19
ATOM     19  C   LIG A   1      -7.277   3.812 120.822  0.00  0.00    -0.025 A 
ATOM     20  C   LIG A   1      -7.715   4.222 119.555  0.00  0.00    +0.008 A 
ATOM     21  C   LIG A   1      -6.878   4.958 118.708  0.00  0.00    +0.001 A 
ATOM     22  C   LIG A   1      -5.593   5.302 119.121  0.00  0.00    +0.000 A 
ATOM     23  C   LIG A   1      -5.147   4.917 120.382  0.00  0.00    +0.001 A 
ATOM     24  C   LIG A   1      -5.985   4.181 121.228  0.00  0.00    +0.008 A 
ENDBRANCH  18  19
ENDBRANCH  15  17
ENDBRANCH  12  15
TORSDOF 4
ENDMDL
MODEL 9
REMARK VINA RESULT:      -7.7      2.954      8.414
REMARK  Name = NuBBE_2395
REMARK  6 active torsions:
REMARK  status: ('A' for Active; 'I' for Inactive)
REMARK    1  A    between atoms: O_1  and  C_2
REMARK    2  A    between atoms: C_6  and  C_9
REMARK    3  A    between atoms: C_6  and  C_10
REMARK    4  A    between atoms: C_13  and  C_14
REMARK    5  A    between atoms: C_14  and  C_16
REMARK    6  A    between atoms: C_17  and  C_18
REMARK                            x       y       z     vdW  Elec       q    Type
REMARK                         _______ _______ _______ _____ _____    ______ ____
ROOT
ATOM      1  C   LIG A   1      -7.033   5.707 132.926  0.00  0.00    +0.138 A 
ATOM      2  C   LIG A   1      -5.675   6.088 132.811  0.00  0.00    +0.059 A 
ATOM      3  C   LIG A   1      -5.266   6.825 131.693  0.00  0.00    +0.132 A 
ATOM      4  O   LIG A   1      -3.977   7.220 131.457  0.00  0.00    -0.481 OA
ATOM      5  C   LIG A   1      -2.934   6.810 132.363  0.00  0.00    +0.123 C 
ATOM      6  C   LIG A   1      -3.402   6.088 133.602  0.00  0.00    +0.020 C 
ATOM      7  C   LIG A   1      -4.676   5.759 133.826  0.00  0.00    +0.015 C 
ATOM      8  C   LIG A   1      -1.979   5.901 131.579  0.00  0.00    +0.060 C 
ATOM      9  C   LIG A   1      -2.205   8.089 132.793  0.00  0.00    +0.060 C 
ATOM     10  C   LIG A   1      -6.197   7.203 130.725  0.00  0.00    +0.047 A 
ATOM     11  C   LIG A   1      -7.543   6.846 130.863  0.00  0.00    +0.019 A 
ATOM     12  C   LIG A   1      -7.982   6.097 131.967  0.00  0.00    +0.064 A 
ENDROOT
BRANCH   1  13
ATOM     13  O   LIG A   1      -7.428   4.899 133.964  0.00  0.00    -0.505 OA
ATOM     14  H   LIG A   1      -7.697   5.468 134.705  0.00  0.00    +0.292 HD
ENDBRANCH   1  13
BRANCH  12  15
ATOM     15  C   LIG A   1      -9.425   5.686 131.972  0.00  0.00    +0.190 C 
ATOM     16  O   LIG A   1      -9.853   5.011 132.899  0.00  0.00    -0.287 OA
BRANCH  15  17
ATOM     17  C   LIG A   1     -10.307   6.047 130.819  0.00  0.00    +0.052 C 
ATOM     18  C   LIG A   1     -11.198   7.048 130.934  0.00  0.00    +0.012 C 
BRANCH  18  19
ATOM     19  C   LIG A   1     -12.154   7.456 129.886  0.00  0.00    -0.025 A 
ATOM     20  C   LIG A   1     -12.402   8.803 129.585  0.00  0.00    +0.008 A 
ATOM     21  C   LIG A   1     -13.266   9.159 128.543  0.00  0.00    +0.001 A 
ATOM     22  C   LIG A   1     -13.887   8.173 127.781  0.00  0.00    +0.000 A 
ATOM     23  C   LIG A   1     -13.640   6.831 128.055  0.00  0.00    +0.001 A 
ATOM     24  C   LIG A   1     -12.776   6.476 129.099  0.00  0.00    +0.008 A 
ENDBRANCH  18  19
ENDBRANCH  15  17
ENDBRANCH  12  15
TORSDOF 4
ENDMDL
