MODEL 1
REMARK VINA RESULT:      -7.6      0.000      0.000
REMARK  Name = NuBBE_345
REMARK  6 active torsions:
REMARK  status: ('A' for Active; 'I' for Inactive)
REMARK    1  A    between atoms: C_1  and  S_2
REMARK    2  A    between atoms: S_2  and  C_3
REMARK    3  A    between atoms: N_14  and  C_15
REMARK    4  A    between atoms: C_15  and  C_16
REMARK    5  A    between atoms: C_16  and  C_17
REMARK    6  A    between atoms: N_19  and  C_20
REMARK                            x       y       z     vdW  Elec       q    Type
REMARK                         _______ _______ _______ _____ _____    ______ ____
ROOT
ATOM      1  C   LIG A   1      -6.166  -3.211 129.224  0.00  0.00    +0.009 A 
ATOM      2  C   LIG A   1      -7.532  -3.440 129.347  0.00  0.00    +0.017 A 
ATOM      3  C   LIG A   1      -8.391  -2.985 128.358  0.00  0.00    +0.030 A 
ATOM      4  C   LIG A   1      -7.902  -2.251 127.296  0.00  0.00    +0.115 A 
ATOM      5  S   LIG A   1      -8.925  -1.759 125.969  0.00  0.00    +0.029 S 
ATOM      6  C   LIG A   1      -7.896  -1.854 124.548  0.00  0.00    +0.115 A 
ATOM      7  C   LIG A   1      -8.465  -2.110 123.305  0.00  0.00    +0.029 A 
ATOM      8  C   LIG A   1      -7.634  -2.232 122.203  0.00  0.00    +0.002 A 
ATOM      9  C   LIG A   1      -6.250  -2.134 122.364  0.00  0.00    +0.002 A 
ATOM     10  C   LIG A   1      -5.696  -1.831 123.619  0.00  0.00    +0.025 A 
ATOM     11  C   LIG A   1      -6.523  -1.635 124.736  0.00  0.00    +0.059 A 
ATOM     12  N   LIG A   1      -6.019  -1.318 126.018  0.00  0.00    -0.297 N 
ATOM     13  C   LIG A   1      -6.527  -1.963 127.147  0.00  0.00    +0.061 A 
ATOM     14  C   LIG A   1      -5.681  -2.533 128.094  0.00  0.00    +0.040 A 
ATOM     15  O   LIG A   1      -9.934  -2.824 125.838  0.00  0.00    -0.164 OA
ATOM     16  O   LIG A   1      -9.298  -0.398 126.153  0.00  0.00    -0.164 OA
ENDROOT
BRANCH   1  18
ATOM     17  C   LIG A   1      -3.517  -3.590 129.673  0.00  0.00    +0.090 C 
ATOM     18  S   LIG A   1      -5.081  -3.758 130.534  0.00  0.00    -0.129 S 
ENDBRANCH   1  18
BRANCH  12  19
ATOM     19  C   LIG A   1      -5.262  -0.025 126.179  0.00  0.00    +0.112 C 
BRANCH  19  20
ATOM     20  C   LIG A   1      -6.057   1.318 126.179  0.00  0.00    +0.038 C 
BRANCH  20  21
ATOM     21  C   LIG A   1      -6.114   2.182 124.878  0.00  0.00    +0.058 C 
ATOM     22  N   LIG A   1      -7.417   2.516 124.308  0.00  0.00    -0.302 NA
ATOM     23  C   LIG A   1      -7.955   1.703 123.279  0.00  0.00    +0.105 C 
ATOM     24  C   LIG A   1      -8.404   3.134 125.148  0.00  0.00    +0.084 C 
ATOM     25  C   LIG A   1      -7.901   4.535 125.419  0.00  0.00    +0.015 C 
ATOM     26  C   LIG A   1      -6.430   4.532 125.849  0.00  0.00    +0.003 C 
ATOM     27  C   LIG A   1      -5.508   3.589 125.058  0.00  0.00    +0.019 C 
ENDBRANCH  20  21
ENDBRANCH  19  20
ENDBRANCH  12  19
TORSDOF 4
ENDMDL
MODEL 2
REMARK VINA RESULT:      -7.4      3.092      4.793
REMARK  Name = NuBBE_345
REMARK  6 active torsions:
REMARK  status: ('A' for Active; 'I' for Inactive)
REMARK    1  A    between atoms: C_1  and  S_2
REMARK    2  A    between atoms: S_2  and  C_3
REMARK    3  A    between atoms: N_14  and  C_15
REMARK    4  A    between atoms: C_15  and  C_16
REMARK    5  A    between atoms: C_16  and  C_17
REMARK    6  A    between atoms: N_19  and  C_20
REMARK                            x       y       z     vdW  Elec       q    Type
REMARK                         _______ _______ _______ _____ _____    ______ ____
ROOT
ATOM      1  C   LIG A   1      -6.500  -0.779 126.207  0.00  0.00    +0.009 A 
ATOM      2  C   LIG A   1      -7.885  -0.877 126.281  0.00  0.00    +0.017 A 
ATOM      3  C   LIG A   1      -8.669   0.111 125.706  0.00  0.00    +0.030 A 
ATOM      4  C   LIG A   1      -8.080   1.217 125.126  0.00  0.00    +0.115 A 
ATOM      5  S   LIG A   1      -9.021   2.426 124.286  0.00  0.00    +0.029 S 
ATOM      6  C   LIG A   1      -8.004   2.940 122.950  0.00  0.00    +0.115 A 
ATOM      7  C   LIG A   1      -8.593   3.413 121.783  0.00  0.00    +0.029 A 
ATOM      8  C   LIG A   1      -7.777   3.767 120.719  0.00  0.00    +0.002 A 
ATOM      9  C   LIG A   1      -6.393   3.607 120.824  0.00  0.00    +0.002 A 
ATOM     10  C   LIG A   1      -5.813   3.170 122.026  0.00  0.00    +0.025 A 
ATOM     11  C   LIG A   1      -6.614   2.872 123.139  0.00  0.00    +0.059 A 
ATOM     12  N   LIG A   1      -6.082   2.439 124.375  0.00  0.00    -0.297 N 
ATOM     13  C   LIG A   1      -6.679   1.377 125.059  0.00  0.00    +0.061 A 
ATOM     14  C   LIG A   1      -5.922   0.314 125.541  0.00  0.00    +0.040 A 
ATOM     15  O   LIG A   1     -10.161   1.699 123.702  0.00  0.00    -0.164 OA
ATOM     16  O   LIG A   1      -9.213   3.542 125.149  0.00  0.00    -0.164 OA
ENDROOT
BRANCH   1  18
ATOM     17  C   LIG A   1      -6.614  -2.441 128.349  0.00  0.00    +0.090 C 
ATOM     18  S   LIG A   1      -5.505  -2.033 127.000  0.00  0.00    -0.129 S 
ENDBRANCH   1  18
BRANCH  12  19
ATOM     19  C   LIG A   1      -5.163   3.376 125.115  0.00  0.00    +0.112 C 
BRANCH  19  20
ATOM     20  C   LIG A   1      -5.151   3.341 126.676  0.00  0.00    +0.038 C 
BRANCH  20  21
ATOM     21  C   LIG A   1      -3.909   2.759 127.426  0.00  0.00    +0.058 C 
ATOM     22  N   LIG A   1      -2.647   3.493 127.379  0.00  0.00    -0.302 NA
ATOM     23  C   LIG A   1      -1.679   3.151 126.402  0.00  0.00    +0.105 C 
ATOM     24  C   LIG A   1      -2.635   4.876 127.763  0.00  0.00    +0.084 C 
ATOM     25  C   LIG A   1      -2.863   4.895 129.259  0.00  0.00    +0.015 C 
ATOM     26  C   LIG A   1      -4.043   4.005 129.661  0.00  0.00    +0.003 C 
ATOM     27  C   LIG A   1      -4.121   2.643 128.949  0.00  0.00    +0.019 C 
ENDBRANCH  20  21
ENDBRANCH  19  20
ENDBRANCH  12  19
TORSDOF 4
ENDMDL
MODEL 3
REMARK VINA RESULT:      -7.4      2.742      6.195
REMARK  Name = NuBBE_345
REMARK  6 active torsions:
REMARK  status: ('A' for Active; 'I' for Inactive)
REMARK    1  A    between atoms: C_1  and  S_2
REMARK    2  A    between atoms: S_2  and  C_3
REMARK    3  A    between atoms: N_14  and  C_15
REMARK    4  A    between atoms: C_15  and  C_16
REMARK    5  A    between atoms: C_16  and  C_17
REMARK    6  A    between atoms: N_19  and  C_20
REMARK                            x       y       z     vdW  Elec       q    Type
REMARK                         _______ _______ _______ _____ _____    ______ ____
ROOT
ATOM      1  C   LIG A   1      -9.002  -1.411 123.838  0.00  0.00    +0.009 A 
ATOM      2  C   LIG A   1      -9.351  -0.513 122.835  0.00  0.00    +0.017 A 
ATOM      3  C   LIG A   1      -9.042   0.830 122.986  0.00  0.00    +0.030 A 
ATOM      4  C   LIG A   1      -8.455   1.282 124.150  0.00  0.00    +0.115 A 
ATOM      5  S   LIG A   1      -7.940   2.942 124.336  0.00  0.00    +0.029 S 
ATOM      6  C   LIG A   1      -6.474   2.852 125.299  0.00  0.00    +0.115 A 
ATOM      7  C   LIG A   1      -5.501   3.836 125.159  0.00  0.00    +0.029 A 
ATOM      8  C   LIG A   1      -4.327   3.724 125.889  0.00  0.00    +0.002 A 
ATOM      9  C   LIG A   1      -4.130   2.615 126.716  0.00  0.00    +0.002 A 
ATOM     10  C   LIG A   1      -5.142   1.654 126.879  0.00  0.00    +0.025 A 
ATOM     11  C   LIG A   1      -6.365   1.784 126.203  0.00  0.00    +0.059 A 
ATOM     12  N   LIG A   1      -7.420   0.853 126.340  0.00  0.00    -0.297 N 
ATOM     13  C   LIG A   1      -8.114   0.414 125.210  0.00  0.00    +0.061 A 
ATOM     14  C   LIG A   1      -8.331  -0.941 124.979  0.00  0.00    +0.040 A 
ATOM     15  O   LIG A   1      -7.541   3.381 122.988  0.00  0.00    -0.164 OA
ATOM     16  O   LIG A   1      -8.920   3.647 125.090  0.00  0.00    -0.164 OA
ENDROOT
BRANCH   1  18
ATOM     17  C   LIG A   1      -8.286  -3.842 124.808  0.00  0.00    +0.090 C 
ATOM     18  S   LIG A   1      -9.456  -3.129 123.652  0.00  0.00    -0.129 S 
ENDBRANCH   1  18
BRANCH  12  19
ATOM     19  C   LIG A   1      -8.035   0.678 127.704  0.00  0.00    +0.112 C 
BRANCH  19  20
ATOM     20  C   LIG A   1      -7.536  -0.491 128.610  0.00  0.00    +0.038 C 
BRANCH  20  21
ATOM     21  C   LIG A   1      -7.349  -1.917 127.999  0.00  0.00    +0.058 C 
ATOM     22  N   LIG A   1      -5.995  -2.432 127.808  0.00  0.00    -0.302 NA
ATOM     23  C   LIG A   1      -5.363  -2.277 126.548  0.00  0.00    +0.105 C 
ATOM     24  C   LIG A   1      -5.092  -2.439 128.924  0.00  0.00    +0.084 C 
ATOM     25  C   LIG A   1      -5.614  -3.496 129.874  0.00  0.00    +0.015 C 
ATOM     26  C   LIG A   1      -7.119  -3.344 130.114  0.00  0.00    +0.003 C 
ATOM     27  C   LIG A   1      -7.964  -3.034 128.867  0.00  0.00    +0.019 C 
ENDBRANCH  20  21
ENDBRANCH  19  20
ENDBRANCH  12  19
TORSDOF 4
ENDMDL
MODEL 4
REMARK VINA RESULT:      -7.3      1.691      2.322
REMARK  Name = NuBBE_345
REMARK  6 active torsions:
REMARK  status: ('A' for Active; 'I' for Inactive)
REMARK    1  A    between atoms: C_1  and  S_2
REMARK    2  A    between atoms: S_2  and  C_3
REMARK    3  A    between atoms: N_14  and  C_15
REMARK    4  A    between atoms: C_15  and  C_16
REMARK    5  A    between atoms: C_16  and  C_17
REMARK    6  A    between atoms: N_19  and  C_20
REMARK                            x       y       z     vdW  Elec       q    Type
REMARK                         _______ _______ _______ _____ _____    ______ ____
ROOT
ATOM      1  C   LIG A   1      -6.203  -3.210 129.249  0.00  0.00    +0.009 A 
ATOM      2  C   LIG A   1      -7.567  -3.451 129.359  0.00  0.00    +0.017 A 
ATOM      3  C   LIG A   1      -8.421  -3.005 128.362  0.00  0.00    +0.030 A 
ATOM      4  C   LIG A   1      -7.929  -2.269 127.303  0.00  0.00    +0.115 A 
ATOM      5  S   LIG A   1      -8.945  -1.789 125.966  0.00  0.00    +0.029 S 
ATOM      6  C   LIG A   1      -7.903  -1.877 124.555  0.00  0.00    +0.115 A 
ATOM      7  C   LIG A   1      -8.458  -2.140 123.307  0.00  0.00    +0.029 A 
ATOM      8  C   LIG A   1      -7.616  -2.257 122.212  0.00  0.00    +0.002 A 
ATOM      9  C   LIG A   1      -6.234  -2.146 122.386  0.00  0.00    +0.002 A 
ATOM     10  C   LIG A   1      -5.694  -1.836 123.645  0.00  0.00    +0.025 A 
ATOM     11  C   LIG A   1      -6.533  -1.645 124.754  0.00  0.00    +0.059 A 
ATOM     12  N   LIG A   1      -6.043  -1.321 126.040  0.00  0.00    -0.297 N 
ATOM     13  C   LIG A   1      -6.556  -1.969 127.166  0.00  0.00    +0.061 A 
ATOM     14  C   LIG A   1      -5.713  -2.530 128.122  0.00  0.00    +0.040 A 
ATOM     15  O   LIG A   1      -9.943  -2.863 125.827  0.00  0.00    -0.164 OA
ATOM     16  O   LIG A   1      -9.331  -0.431 126.144  0.00  0.00    -0.164 OA
ENDROOT
BRANCH   1  18
ATOM     17  C   LIG A   1      -3.551  -3.520 129.738  0.00  0.00    +0.090 C 
ATOM     18  S   LIG A   1      -5.124  -3.745 130.569  0.00  0.00    -0.129 S 
ENDBRANCH   1  18
BRANCH  12  19
ATOM     19  C   LIG A   1      -5.300  -0.022 126.206  0.00  0.00    +0.112 C 
BRANCH  19  20
ATOM     20  C   LIG A   1      -6.095   1.252 126.633  0.00  0.00    +0.038 C 
BRANCH  20  21
ATOM     21  C   LIG A   1      -5.923   1.821 128.079  0.00  0.00    +0.058 C 
ATOM     22  N   LIG A   1      -6.546   3.100 128.413  0.00  0.00    -0.302 NA
ATOM     23  C   LIG A   1      -5.785   4.292 128.315  0.00  0.00    +0.105 C 
ATOM     24  C   LIG A   1      -7.949   3.273 128.165  0.00  0.00    +0.084 C 
ATOM     25  C   LIG A   1      -8.662   2.394 129.169  0.00  0.00    +0.015 C 
ATOM     26  C   LIG A   1      -8.065   0.983 129.207  0.00  0.00    +0.003 C 
ATOM     27  C   LIG A   1      -6.530   0.910 129.165  0.00  0.00    +0.019 C 
ENDBRANCH  20  21
ENDBRANCH  19  20
ENDBRANCH  12  19
TORSDOF 4
ENDMDL
MODEL 5
REMARK VINA RESULT:      -7.3      3.178      4.462
REMARK  Name = NuBBE_345
REMARK  6 active torsions:
REMARK  status: ('A' for Active; 'I' for Inactive)
REMARK    1  A    between atoms: C_1  and  S_2
REMARK    2  A    between atoms: S_2  and  C_3
REMARK    3  A    between atoms: N_14  and  C_15
REMARK    4  A    between atoms: C_15  and  C_16
REMARK    5  A    between atoms: C_16  and  C_17
REMARK    6  A    between atoms: N_19  and  C_20
REMARK                            x       y       z     vdW  Elec       q    Type
REMARK                         _______ _______ _______ _____ _____    ______ ____
ROOT
ATOM      1  C   LIG A   1      -6.843  -2.543 124.126  0.00  0.00    +0.009 A 
ATOM      2  C   LIG A   1      -8.189  -2.819 123.912  0.00  0.00    +0.017 A 
ATOM      3  C   LIG A   1      -9.071  -1.774 123.682  0.00  0.00    +0.030 A 
ATOM      4  C   LIG A   1      -8.629  -0.468 123.733  0.00  0.00    +0.115 A 
ATOM      5  S   LIG A   1      -9.675   0.873 123.332  0.00  0.00    +0.029 S 
ATOM      6  C   LIG A   1      -8.629   2.037 122.534  0.00  0.00    +0.115 A 
ATOM      7  C   LIG A   1      -9.166   2.908 121.592  0.00  0.00    +0.029 A 
ATOM      8  C   LIG A   1      -8.318   3.785 120.934  0.00  0.00    +0.002 A 
ATOM      9  C   LIG A   1      -6.947   3.753 121.199  0.00  0.00    +0.002 A 
ATOM     10  C   LIG A   1      -6.428   2.898 122.185  0.00  0.00    +0.025 A 
ATOM     11  C   LIG A   1      -7.277   2.050 122.913  0.00  0.00    +0.059 A 
ATOM     12  N   LIG A   1      -6.810   1.178 123.922  0.00  0.00    -0.297 N 
ATOM     13  C   LIG A   1      -7.279  -0.137 123.981  0.00  0.00    +0.061 A 
ATOM     14  C   LIG A   1      -6.401  -1.211 124.093  0.00  0.00    +0.040 A 
ATOM     15  O   LIG A   1     -10.599   0.357 122.309  0.00  0.00    -0.164 OA
ATOM     16  O   LIG A   1     -10.150   1.463 124.537  0.00  0.00    -0.164 OA
ENDROOT
BRANCH   1  18
ATOM     17  C   LIG A   1      -4.404  -3.449 123.357  0.00  0.00    +0.090 C 
ATOM     18  S   LIG A   1      -5.732  -3.898 124.475  0.00  0.00    -0.129 S 
ENDBRANCH   1  18
BRANCH  12  19
ATOM     19  C   LIG A   1      -6.155   1.787 125.134  0.00  0.00    +0.112 C 
BRANCH  19  20
ATOM     20  C   LIG A   1      -7.055   2.278 126.310  0.00  0.00    +0.038 C 
BRANCH  20  21
ATOM     21  C   LIG A   1      -7.232   3.811 126.561  0.00  0.00    +0.058 C 
ATOM     22  N   LIG A   1      -7.044   4.333 127.912  0.00  0.00    -0.302 NA
ATOM     23  C   LIG A   1      -8.171   4.500 128.757  0.00  0.00    +0.105 C 
ATOM     24  C   LIG A   1      -5.825   4.033 128.608  0.00  0.00    +0.084 C 
ATOM     25  C   LIG A   1      -4.739   4.815 127.900  0.00  0.00    +0.015 C 
ATOM     26  C   LIG A   1      -4.813   4.633 126.381  0.00  0.00    +0.003 C 
ATOM     27  C   LIG A   1      -6.225   4.674 125.774  0.00  0.00    +0.019 C 
ENDBRANCH  20  21
ENDBRANCH  19  20
ENDBRANCH  12  19
TORSDOF 4
ENDMDL
MODEL 6
REMARK VINA RESULT:      -7.2      1.035      1.611
REMARK  Name = NuBBE_345
REMARK  6 active torsions:
REMARK  status: ('A' for Active; 'I' for Inactive)
REMARK    1  A    between atoms: C_1  and  S_2
REMARK    2  A    between atoms: S_2  and  C_3
REMARK    3  A    between atoms: N_14  and  C_15
REMARK    4  A    between atoms: C_15  and  C_16
REMARK    5  A    between atoms: C_16  and  C_17
REMARK    6  A    between atoms: N_19  and  C_20
REMARK                            x       y       z     vdW  Elec       q    Type
REMARK                         _______ _______ _______ _____ _____    ______ ____
ROOT
ATOM      1  C   LIG A   1      -6.051  -3.030 129.221  0.00  0.00    +0.009 A 
ATOM      2  C   LIG A   1      -7.408  -3.283 129.383  0.00  0.00    +0.017 A 
ATOM      3  C   LIG A   1      -8.300  -2.869 128.405  0.00  0.00    +0.030 A 
ATOM      4  C   LIG A   1      -7.851  -2.152 127.314  0.00  0.00    +0.115 A 
ATOM      5  S   LIG A   1      -8.916  -1.713 126.001  0.00  0.00    +0.029 S 
ATOM      6  C   LIG A   1      -7.920  -1.821 124.558  0.00  0.00    +0.115 A 
ATOM      7  C   LIG A   1      -8.513  -2.119 123.336  0.00  0.00    +0.029 A 
ATOM      8  C   LIG A   1      -7.707  -2.252 122.217  0.00  0.00    +0.002 A 
ATOM      9  C   LIG A   1      -6.322  -2.123 122.342  0.00  0.00    +0.002 A 
ATOM     10  C   LIG A   1      -5.744  -1.778 123.575  0.00  0.00    +0.025 A 
ATOM     11  C   LIG A   1      -6.547  -1.571 124.707  0.00  0.00    +0.059 A 
ATOM     12  N   LIG A   1      -6.019  -1.213 125.968  0.00  0.00    -0.297 N 
ATOM     13  C   LIG A   1      -6.487  -1.841 127.125  0.00  0.00    +0.061 A 
ATOM     14  C   LIG A   1      -5.607  -2.371 128.064  0.00  0.00    +0.040 A 
ATOM     15  O   LIG A   1      -9.907  -2.800 125.920  0.00  0.00    -0.164 OA
ATOM     16  O   LIG A   1      -9.311  -0.355 126.162  0.00  0.00    -0.164 OA
ENDROOT
BRANCH   1  18
ATOM     17  C   LIG A   1      -5.598  -5.151 130.853  0.00  0.00    +0.090 C 
ATOM     18  S   LIG A   1      -4.924  -3.524 130.517  0.00  0.00    -0.129 S 
ENDBRANCH   1  18
BRANCH  12  19
ATOM     19  C   LIG A   1      -5.285   0.098 126.080  0.00  0.00    +0.112 C 
BRANCH  19  20
ATOM     20  C   LIG A   1      -5.874   1.215 126.996  0.00  0.00    +0.038 C 
BRANCH  20  21
ATOM     21  C   LIG A   1      -7.041   2.111 126.469  0.00  0.00    +0.058 C 
ATOM     22  N   LIG A   1      -7.059   3.529 126.822  0.00  0.00    -0.302 NA
ATOM     23  C   LIG A   1      -7.809   3.957 127.946  0.00  0.00    +0.105 C 
ATOM     24  C   LIG A   1      -5.896   4.325 126.551  0.00  0.00    +0.084 C 
ATOM     25  C   LIG A   1      -5.824   4.458 125.045  0.00  0.00    +0.015 C 
ATOM     26  C   LIG A   1      -5.997   3.103 124.351  0.00  0.00    +0.003 C 
ATOM     27  C   LIG A   1      -7.095   2.195 124.930  0.00  0.00    +0.019 C 
ENDBRANCH  20  21
ENDBRANCH  19  20
ENDBRANCH  12  19
TORSDOF 4
ENDMDL
MODEL 7
REMARK VINA RESULT:      -7.1      8.131     10.057
REMARK  Name = NuBBE_345
REMARK  6 active torsions:
REMARK  status: ('A' for Active; 'I' for Inactive)
REMARK    1  A    between atoms: C_1  and  S_2
REMARK    2  A    between atoms: S_2  and  C_3
REMARK    3  A    between atoms: N_14  and  C_15
REMARK    4  A    between atoms: C_15  and  C_16
REMARK    5  A    between atoms: C_16  and  C_17
REMARK    6  A    between atoms: N_19  and  C_20
REMARK                            x       y       z     vdW  Elec       q    Type
REMARK                         _______ _______ _______ _____ _____    ______ ____
ROOT
ATOM      1  C   LIG A   1     -11.330   6.631 130.411  0.00  0.00    +0.009 A 
ATOM      2  C   LIG A   1     -11.707   5.325 130.119  0.00  0.00    +0.017 A 
ATOM      3  C   LIG A   1     -10.840   4.284 130.412  0.00  0.00    +0.030 A 
ATOM      4  C   LIG A   1      -9.586   4.547 130.925  0.00  0.00    +0.115 A 
ATOM      5  S   LIG A   1      -8.507   3.265 131.420  0.00  0.00    +0.029 S 
ATOM      6  C   LIG A   1      -7.668   3.901 132.826  0.00  0.00    +0.115 A 
ATOM      7  C   LIG A   1      -7.203   3.025 133.801  0.00  0.00    +0.029 A 
ATOM      8  C   LIG A   1      -6.588   3.546 134.929  0.00  0.00    +0.002 A 
ATOM      9  C   LIG A   1      -6.480   4.931 135.082  0.00  0.00    +0.002 A 
ATOM     10  C   LIG A   1      -6.915   5.799 134.066  0.00  0.00    +0.025 A 
ATOM     11  C   LIG A   1      -7.478   5.290 132.885  0.00  0.00    +0.059 A 
ATOM     12  N   LIG A   1      -7.922   6.117 131.828  0.00  0.00    -0.297 N 
ATOM     13  C   LIG A   1      -9.146   5.859 131.206  0.00  0.00    +0.061 A 
ATOM     14  C   LIG A   1     -10.082   6.869 131.009  0.00  0.00    +0.040 A 
ATOM     15  O   LIG A   1      -9.381   2.180 131.898  0.00  0.00    -0.164 OA
ATOM     16  O   LIG A   1      -7.546   3.049 130.393  0.00  0.00    -0.164 OA
ENDROOT
BRANCH   1  18
ATOM     17  C   LIG A   1     -11.589   8.550 128.510  0.00  0.00    +0.090 C 
ATOM     18  S   LIG A   1     -12.438   7.964 129.977  0.00  0.00    -0.129 S 
ENDBRANCH   1  18
BRANCH  12  19
ATOM     19  C   LIG A   1      -6.903   6.982 131.132  0.00  0.00    +0.112 C 
BRANCH  19  20
ATOM     20  C   LIG A   1      -5.476   6.405 130.876  0.00  0.00    +0.038 C 
BRANCH  20  21
ATOM     21  C   LIG A   1      -4.232   7.347 130.976  0.00  0.00    +0.058 C 
ATOM     22  N   LIG A   1      -2.914   6.756 131.195  0.00  0.00    -0.302 NA
ATOM     23  C   LIG A   1      -2.407   6.655 132.515  0.00  0.00    +0.105 C 
ATOM     24  C   LIG A   1      -2.462   5.722 130.308  0.00  0.00    +0.084 C 
ATOM     25  C   LIG A   1      -2.200   6.397 128.979  0.00  0.00    +0.015 C 
ATOM     26  C   LIG A   1      -3.368   7.298 128.564  0.00  0.00    +0.003 C 
ATOM     27  C   LIG A   1      -3.978   8.155 129.687  0.00  0.00    +0.019 C 
ENDBRANCH  20  21
ENDBRANCH  19  20
ENDBRANCH  12  19
TORSDOF 4
ENDMDL
MODEL 8
REMARK VINA RESULT:      -7.0      6.180      8.732
REMARK  Name = NuBBE_345
REMARK  6 active torsions:
REMARK  status: ('A' for Active; 'I' for Inactive)
REMARK    1  A    between atoms: C_1  and  S_2
REMARK    2  A    between atoms: S_2  and  C_3
REMARK    3  A    between atoms: N_14  and  C_15
REMARK    4  A    between atoms: C_15  and  C_16
REMARK    5  A    between atoms: C_16  and  C_17
REMARK    6  A    between atoms: N_19  and  C_20
REMARK                            x       y       z     vdW  Elec       q    Type
REMARK                         _______ _______ _______ _____ _____    ______ ____
ROOT
ATOM      1  C   LIG A   1      -4.719   2.408 127.090  0.00  0.00    +0.009 A 
ATOM      2  C   LIG A   1      -4.369   3.469 126.262  0.00  0.00    +0.017 A 
ATOM      3  C   LIG A   1      -3.981   4.675 126.826  0.00  0.00    +0.030 A 
ATOM      4  C   LIG A   1      -4.009   4.841 128.196  0.00  0.00    +0.115 A 
ATOM      5  S   LIG A   1      -3.418   6.299 128.958  0.00  0.00    +0.029 S 
ATOM      6  C   LIG A   1      -2.681   5.756 130.456  0.00  0.00    +0.115 A 
ATOM      7  C   LIG A   1      -1.637   6.489 131.011  0.00  0.00    +0.029 A 
ATOM      8  C   LIG A   1      -1.031   6.020 132.167  0.00  0.00    +0.002 A 
ATOM      9  C   LIG A   1      -1.452   4.811 132.727  0.00  0.00    +0.002 A 
ATOM     10  C   LIG A   1      -2.537   4.107 132.178  0.00  0.00    +0.025 A 
ATOM     11  C   LIG A   1      -3.209   4.599 131.049  0.00  0.00    +0.059 A 
ATOM     12  N   LIG A   1      -4.312   3.937 130.464  0.00  0.00    -0.297 N 
ATOM     13  C   LIG A   1      -4.391   3.804 129.076  0.00  0.00    +0.061 A 
ATOM     14  C   LIG A   1      -4.661   2.574 128.483  0.00  0.00    +0.040 A 
ATOM     15  O   LIG A   1      -2.327   6.778 128.092  0.00  0.00    -0.164 OA
ATOM     16  O   LIG A   1      -4.527   7.129 129.287  0.00  0.00    -0.164 OA
ENDROOT
BRANCH   1  18
ATOM     17  C   LIG A   1      -6.521   0.431 127.544  0.00  0.00    +0.090 C 
ATOM     18  S   LIG A   1      -5.266   0.880 126.344  0.00  0.00    -0.129 S 
ENDBRANCH   1  18
BRANCH  12  19
ATOM     19  C   LIG A   1      -5.555   3.763 131.297  0.00  0.00    +0.112 C 
BRANCH  19  20
ATOM     20  C   LIG A   1      -6.438   5.013 131.604  0.00  0.00    +0.038 C 
BRANCH  20  21
ATOM     21  C   LIG A   1      -7.341   5.616 130.480  0.00  0.00    +0.058 C 
ATOM     22  N   LIG A   1      -8.353   4.768 129.855  0.00  0.00    -0.302 NA
ATOM     23  C   LIG A   1      -8.045   4.089 128.650  0.00  0.00    +0.105 C 
ATOM     24  C   LIG A   1      -9.298   4.084 130.693  0.00  0.00    +0.084 C 
ATOM     25  C   LIG A   1     -10.204   5.155 131.259  0.00  0.00    +0.015 C 
ATOM     26  C   LIG A   1      -9.402   6.333 131.822  0.00  0.00    +0.003 C 
ATOM     27  C   LIG A   1      -8.209   6.794 130.967  0.00  0.00    +0.019 C 
ENDBRANCH  20  21
ENDBRANCH  19  20
ENDBRANCH  12  19
TORSDOF 4
ENDMDL
MODEL 9
REMARK VINA RESULT:      -7.0      3.395      5.993
REMARK  Name = NuBBE_345
REMARK  6 active torsions:
REMARK  status: ('A' for Active; 'I' for Inactive)
REMARK    1  A    between atoms: C_1  and  S_2
REMARK    2  A    between atoms: S_2  and  C_3
REMARK    3  A    between atoms: N_14  and  C_15
REMARK    4  A    between atoms: C_15  and  C_16
REMARK    5  A    between atoms: C_16  and  C_17
REMARK    6  A    between atoms: N_19  and  C_20
REMARK                            x       y       z     vdW  Elec       q    Type
REMARK                         _______ _______ _______ _____ _____    ______ ____
ROOT
ATOM      1  C   LIG A   1      -8.181   3.267 129.568  0.00  0.00    +0.009 A 
ATOM      2  C   LIG A   1      -6.882   3.762 129.570  0.00  0.00    +0.017 A 
ATOM      3  C   LIG A   1      -6.075   3.564 128.461  0.00  0.00    +0.030 A 
ATOM      4  C   LIG A   1      -6.535   2.824 127.390  0.00  0.00    +0.115 A 
ATOM      5  S   LIG A   1      -5.601   2.649 125.924  0.00  0.00    +0.029 S 
ATOM      6  C   LIG A   1      -6.791   2.631 124.632  0.00  0.00    +0.115 A 
ATOM      7  C   LIG A   1      -6.436   3.087 123.367  0.00  0.00    +0.029 A 
ATOM      8  C   LIG A   1      -7.401   3.115 122.372  0.00  0.00    +0.002 A 
ATOM      9  C   LIG A   1      -8.709   2.724 122.665  0.00  0.00    +0.002 A 
ATOM     10  C   LIG A   1      -9.040   2.224 123.936  0.00  0.00    +0.025 A 
ATOM     11  C   LIG A   1      -8.063   2.122 124.939  0.00  0.00    +0.059 A 
ATOM     12  N   LIG A   1      -8.338   1.618 126.230  0.00  0.00    -0.297 N 
ATOM     13  C   LIG A   1      -7.834   2.272 127.357  0.00  0.00    +0.061 A 
ATOM     14  C   LIG A   1      -8.656   2.587 128.435  0.00  0.00    +0.040 A 
ATOM     15  O   LIG A   1      -4.843   3.904 125.791  0.00  0.00    -0.164 OA
ATOM     16  O   LIG A   1      -4.950   1.383 125.940  0.00  0.00    -0.164 OA
ENDROOT
BRANCH   1  18
ATOM     17  C   LIG A   1     -10.007   5.011 130.563  0.00  0.00    +0.090 C 
ATOM     18  S   LIG A   1      -9.188   3.485 131.028  0.00  0.00    -0.129 S 
ENDBRANCH   1  18
BRANCH  12  19
ATOM     19  C   LIG A   1      -8.802   0.190 126.346  0.00  0.00    +0.112 C 
BRANCH  19  20
ATOM     20  C   LIG A   1      -7.812  -0.957 125.972  0.00  0.00    +0.038 C 
BRANCH  20  21
ATOM     21  C   LIG A   1      -8.212  -1.998 124.877  0.00  0.00    +0.058 C 
ATOM     22  N   LIG A   1      -8.131  -1.612 123.471  0.00  0.00    -0.302 NA
ATOM     23  C   LIG A   1      -9.288  -1.120 122.816  0.00  0.00    +0.105 C 
ATOM     24  C   LIG A   1      -6.897  -1.077 122.969  0.00  0.00    +0.084 C 
ATOM     25  C   LIG A   1      -5.919  -2.232 122.952  0.00  0.00    +0.015 C 
ATOM     26  C   LIG A   1      -5.932  -3.000 124.278  0.00  0.00    +0.003 C 
ATOM     27  C   LIG A   1      -7.322  -3.258 124.884  0.00  0.00    +0.019 C 
ENDBRANCH  20  21
ENDBRANCH  19  20
ENDBRANCH  12  19
TORSDOF 4
ENDMDL
