MODEL 1
REMARK VINA RESULT:      -5.3      0.000      0.000
REMARK  Name = NuBBE_668
REMARK  3 active torsions:
REMARK  status: ('A' for Active; 'I' for Inactive)
REMARK    1  A    between atoms: C_1  and  C_2
REMARK    2  A    between atoms: C_4  and  O_5
REMARK    3  A    between atoms: C_7  and  O_8
REMARK                            x       y       z     vdW  Elec       q    Type
REMARK                         _______ _______ _______ _____ _____    ______ ____
ROOT
ATOM      1  C   LIG A   1     -13.296  10.591 129.831  0.00  0.00    +0.044 C 
ATOM      2  C   LIG A   1     -12.967   9.138 129.661  0.00  0.00    -0.044 A 
ATOM      3  C   LIG A   1     -12.848   8.568 128.386  0.00  0.00    +0.049 A 
ATOM      4  C   LIG A   1     -12.540   7.215 128.258  0.00  0.00    +0.121 A 
ATOM      5  C   LIG A   1     -12.347   6.412 129.376  0.00  0.00    +0.090 A 
ATOM      6  C   LIG A   1     -12.467   6.980 130.639  0.00  0.00    +0.121 A 
ATOM      7  C   LIG A   1     -12.773   8.329 130.790  0.00  0.00    +0.049 A 
ENDROOT
BRANCH   4   8
ATOM      8  O   LIG A   1     -12.417   6.630 127.031  0.00  0.00    -0.507 OA
ATOM      9  H   LIG A   1     -11.658   7.029 126.573  0.00  0.00    +0.292 HD
ENDBRANCH   4   8
BRANCH   6  10
ATOM     10  O   LIG A   1     -12.287   6.239 131.770  0.00  0.00    -0.507 OA
ATOM     11  H   LIG A   1     -12.619   5.340 131.603  0.00  0.00    +0.292 HD
ENDBRANCH   6  10
TORSDOF 2
ENDMDL
MODEL 2
REMARK VINA RESULT:      -5.3      0.074      2.758
REMARK  Name = NuBBE_668
REMARK  3 active torsions:
REMARK  status: ('A' for Active; 'I' for Inactive)
REMARK    1  A    between atoms: C_1  and  C_2
REMARK    2  A    between atoms: C_4  and  O_5
REMARK    3  A    between atoms: C_7  and  O_8
REMARK                            x       y       z     vdW  Elec       q    Type
REMARK                         _______ _______ _______ _____ _____    ______ ____
ROOT
ATOM      1  C   LIG A   1     -13.306  10.559 129.731  0.00  0.00    +0.044 C 
ATOM      2  C   LIG A   1     -12.951   9.106 129.623  0.00  0.00    -0.044 A 
ATOM      3  C   LIG A   1     -12.774   8.318 130.767  0.00  0.00    +0.049 A 
ATOM      4  C   LIG A   1     -12.446   6.969 130.636  0.00  0.00    +0.121 A 
ATOM      5  C   LIG A   1     -12.289   6.386 129.385  0.00  0.00    +0.090 A 
ATOM      6  C   LIG A   1     -12.464   7.171 128.250  0.00  0.00    +0.121 A 
ATOM      7  C   LIG A   1     -12.793   8.519 128.359  0.00  0.00    +0.049 A 
ENDROOT
BRANCH   4   8
ATOM      8  O   LIG A   1     -12.267   6.175 131.731  0.00  0.00    -0.507 OA
ATOM      9  H   LIG A   1     -12.360   5.247 131.458  0.00  0.00    +0.292 HD
ENDBRANCH   4   8
BRANCH   6  10
ATOM     10  O   LIG A   1     -12.323   6.650 126.998  0.00  0.00    -0.507 OA
ATOM     11  H   LIG A   1     -13.028   7.010 126.435  0.00  0.00    +0.292 HD
ENDBRANCH   6  10
TORSDOF 2
ENDMDL
MODEL 3
REMARK VINA RESULT:      -5.0      1.868      2.851
REMARK  Name = NuBBE_668
REMARK  3 active torsions:
REMARK  status: ('A' for Active; 'I' for Inactive)
REMARK    1  A    between atoms: C_1  and  C_2
REMARK    2  A    between atoms: C_4  and  O_5
REMARK    3  A    between atoms: C_7  and  O_8
REMARK                            x       y       z     vdW  Elec       q    Type
REMARK                         _______ _______ _______ _____ _____    ______ ____
ROOT
ATOM      1  C   LIG A   1     -12.041   6.634 131.556  0.00  0.00    +0.044 C 
ATOM      2  C   LIG A   1     -12.313   7.278 130.230  0.00  0.00    -0.044 A 
ATOM      3  C   LIG A   1     -12.189   6.554 129.036  0.00  0.00    +0.049 A 
ATOM      4  C   LIG A   1     -12.449   7.179 127.817  0.00  0.00    +0.121 A 
ATOM      5  C   LIG A   1     -12.833   8.513 127.760  0.00  0.00    +0.090 A 
ATOM      6  C   LIG A   1     -12.954   9.229 128.945  0.00  0.00    +0.121 A 
ATOM      7  C   LIG A   1     -12.699   8.625 130.174  0.00  0.00    +0.049 A 
ENDROOT
BRANCH   4   8
ATOM      8  O   LIG A   1     -12.337   6.502 126.637  0.00  0.00    -0.507 OA
ATOM      9  H   LIG A   1     -13.027   6.821 126.031  0.00  0.00    +0.292 HD
ENDBRANCH   4   8
BRANCH   6  10
ATOM     10  O   LIG A   1     -13.328  10.540 128.947  0.00  0.00    -0.507 OA
ATOM     11  H   LIG A   1     -14.291  10.584 129.073  0.00  0.00    +0.292 HD
ENDBRANCH   6  10
TORSDOF 2
ENDMDL
MODEL 4
REMARK VINA RESULT:      -5.0      1.857      3.356
REMARK  Name = NuBBE_668
REMARK  3 active torsions:
REMARK  status: ('A' for Active; 'I' for Inactive)
REMARK    1  A    between atoms: C_1  and  C_2
REMARK    2  A    between atoms: C_4  and  O_5
REMARK    3  A    between atoms: C_7  and  O_8
REMARK                            x       y       z     vdW  Elec       q    Type
REMARK                         _______ _______ _______ _____ _____    ______ ____
ROOT
ATOM      1  C   LIG A   1     -12.008   6.555 131.506  0.00  0.00    +0.044 C 
ATOM      2  C   LIG A   1     -12.309   7.258 130.217  0.00  0.00    -0.044 A 
ATOM      3  C   LIG A   1     -12.691   8.607 130.200  0.00  0.00    +0.049 A 
ATOM      4  C   LIG A   1     -12.964   9.235 128.986  0.00  0.00    +0.121 A 
ATOM      5  C   LIG A   1     -12.864   8.548 127.782  0.00  0.00    +0.090 A 
ATOM      6  C   LIG A   1     -12.486   7.210 127.801  0.00  0.00    +0.121 A 
ATOM      7  C   LIG A   1     -12.209   6.563 129.003  0.00  0.00    +0.049 A 
ENDROOT
BRANCH   4   8
ATOM      8  O   LIG A   1     -13.338  10.547 128.937  0.00  0.00    -0.507 OA
ATOM      9  H   LIG A   1     -13.147  10.955 129.798  0.00  0.00    +0.292 HD
ENDBRANCH   4   8
BRANCH   6  10
ATOM     10  O   LIG A   1     -12.373   6.489 126.650  0.00  0.00    -0.507 OA
ATOM     11  H   LIG A   1     -11.608   6.824 126.152  0.00  0.00    +0.292 HD
ENDBRANCH   6  10
TORSDOF 2
ENDMDL
MODEL 5
REMARK VINA RESULT:      -4.8      1.812      3.423
REMARK  Name = NuBBE_668
REMARK  3 active torsions:
REMARK  status: ('A' for Active; 'I' for Inactive)
REMARK    1  A    between atoms: C_1  and  C_2
REMARK    2  A    between atoms: C_4  and  O_5
REMARK    3  A    between atoms: C_7  and  O_8
REMARK                            x       y       z     vdW  Elec       q    Type
REMARK                         _______ _______ _______ _____ _____    ______ ____
ROOT
ATOM      1  C   LIG A   1     -10.603   7.221 127.246  0.00  0.00    +0.044 C 
ATOM      2  C   LIG A   1     -11.353   7.542 128.504  0.00  0.00    -0.044 A 
ATOM      3  C   LIG A   1     -11.409   6.630 129.566  0.00  0.00    +0.049 A 
ATOM      4  C   LIG A   1     -12.113   6.956 130.724  0.00  0.00    +0.121 A 
ATOM      5  C   LIG A   1     -12.765   8.177 130.850  0.00  0.00    +0.090 A 
ATOM      6  C   LIG A   1     -12.710   9.080 129.794  0.00  0.00    +0.121 A 
ATOM      7  C   LIG A   1     -12.012   8.774 128.628  0.00  0.00    +0.049 A 
ENDROOT
BRANCH   4   8
ATOM      8  O   LIG A   1     -12.186   6.090 131.776  0.00  0.00    -0.507 OA
ATOM      9  H   LIG A   1     -13.071   6.156 132.171  0.00  0.00    +0.292 HD
ENDBRANCH   4   8
BRANCH   6  10
ATOM     10  O   LIG A   1     -13.331  10.292 129.863  0.00  0.00    -0.507 OA
ATOM     11  H   LIG A   1     -12.802  10.936 129.364  0.00  0.00    +0.292 HD
ENDBRANCH   6  10
TORSDOF 2
ENDMDL
MODEL 6
REMARK VINA RESULT:      -4.7      2.260      3.968
REMARK  Name = NuBBE_668
REMARK  3 active torsions:
REMARK  status: ('A' for Active; 'I' for Inactive)
REMARK    1  A    between atoms: C_1  and  C_2
REMARK    2  A    between atoms: C_4  and  O_5
REMARK    3  A    between atoms: C_7  and  O_8
REMARK                            x       y       z     vdW  Elec       q    Type
REMARK                         _______ _______ _______ _____ _____    ______ ____
ROOT
ATOM      1  C   LIG A   1      -8.605   6.451 131.037  0.00  0.00    +0.044 C 
ATOM      2  C   LIG A   1      -9.916   6.994 130.553  0.00  0.00    -0.044 A 
ATOM      3  C   LIG A   1     -11.096   6.793 131.282  0.00  0.00    +0.049 A 
ATOM      4  C   LIG A   1     -12.300   7.310 130.807  0.00  0.00    +0.121 A 
ATOM      5  C   LIG A   1     -12.356   8.028 129.618  0.00  0.00    +0.090 A 
ATOM      6  C   LIG A   1     -11.184   8.225 128.897  0.00  0.00    +0.121 A 
ATOM      7  C   LIG A   1      -9.971   7.717 129.352  0.00  0.00    +0.049 A 
ENDROOT
BRANCH   4   8
ATOM      8  O   LIG A   1     -13.466   7.132 131.493  0.00  0.00    -0.507 OA
ATOM      9  H   LIG A   1     -13.336   7.434 132.408  0.00  0.00    +0.292 HD
ENDBRANCH   4   8
BRANCH   6  10
ATOM     10  O   LIG A   1     -11.182   8.921 127.724  0.00  0.00    -0.507 OA
ATOM     11  H   LIG A   1     -11.867   9.608 127.774  0.00  0.00    +0.292 HD
ENDBRANCH   6  10
TORSDOF 2
ENDMDL
MODEL 7
REMARK VINA RESULT:      -4.6      2.300      3.328
REMARK  Name = NuBBE_668
REMARK  3 active torsions:
REMARK  status: ('A' for Active; 'I' for Inactive)
REMARK    1  A    between atoms: C_1  and  C_2
REMARK    2  A    between atoms: C_4  and  O_5
REMARK    3  A    between atoms: C_7  and  O_8
REMARK                            x       y       z     vdW  Elec       q    Type
REMARK                         _______ _______ _______ _____ _____    ______ ____
ROOT
ATOM      1  C   LIG A   1     -10.595   8.443 127.899  0.00  0.00    +0.044 C 
ATOM      2  C   LIG A   1     -10.772   7.782 129.233  0.00  0.00    -0.044 A 
ATOM      3  C   LIG A   1      -9.688   7.193 129.897  0.00  0.00    +0.049 A 
ATOM      4  C   LIG A   1      -9.882   6.586 131.137  0.00  0.00    +0.121 A 
ATOM      5  C   LIG A   1     -11.137   6.555 131.734  0.00  0.00    +0.090 A 
ATOM      6  C   LIG A   1     -12.210   7.139 131.073  0.00  0.00    +0.121 A 
ATOM      7  C   LIG A   1     -12.039   7.750 129.833  0.00  0.00    +0.049 A 
ENDROOT
BRANCH   4   8
ATOM      8  O   LIG A   1      -8.847   6.003 131.810  0.00  0.00    -0.507 OA
ATOM      9  H   LIG A   1      -8.053   6.046 131.251  0.00  0.00    +0.292 HD
ENDBRANCH   4   8
BRANCH   6  10
ATOM     10  O   LIG A   1     -13.463   7.137 131.612  0.00  0.00    -0.507 OA
ATOM     11  H   LIG A   1     -13.914   6.322 131.337  0.00  0.00    +0.292 HD
ENDBRANCH   6  10
TORSDOF 2
ENDMDL
MODEL 8
REMARK VINA RESULT:      -4.5     11.889     13.001
REMARK  Name = NuBBE_668
REMARK  3 active torsions:
REMARK  status: ('A' for Active; 'I' for Inactive)
REMARK    1  A    between atoms: C_1  and  C_2
REMARK    2  A    between atoms: C_4  and  O_5
REMARK    3  A    between atoms: C_7  and  O_8
REMARK                            x       y       z     vdW  Elec       q    Type
REMARK                         _______ _______ _______ _____ _____    ______ ____
ROOT
ATOM      1  C   LIG A   1      -5.413  -2.851 123.708  0.00  0.00    +0.044 C 
ATOM      2  C   LIG A   1      -6.756  -2.882 124.373  0.00  0.00    -0.044 A 
ATOM      3  C   LIG A   1      -6.889  -2.643 125.747  0.00  0.00    +0.049 A 
ATOM      4  C   LIG A   1      -8.151  -2.678 126.338  0.00  0.00    +0.121 A 
ATOM      5  C   LIG A   1      -9.290  -2.945 125.587  0.00  0.00    +0.090 A 
ATOM      6  C   LIG A   1      -9.155  -3.183 124.224  0.00  0.00    +0.121 A 
ATOM      7  C   LIG A   1      -7.904  -3.154 123.614  0.00  0.00    +0.049 A 
ENDROOT
BRANCH   4   8
ATOM      8  O   LIG A   1      -8.314  -2.449 127.674  0.00  0.00    -0.507 OA
ATOM      9  H   LIG A   1      -7.542  -1.955 127.999  0.00  0.00    +0.292 HD
ENDBRANCH   4   8
BRANCH   6  10
ATOM     10  O   LIG A   1     -10.238  -3.450 123.440  0.00  0.00    -0.507 OA
ATOM     11  H   LIG A   1     -10.914  -3.883 123.988  0.00  0.00    +0.292 HD
ENDBRANCH   6  10
TORSDOF 2
ENDMDL
MODEL 9
REMARK VINA RESULT:      -4.5     11.907     12.677
REMARK  Name = NuBBE_668
REMARK  3 active torsions:
REMARK  status: ('A' for Active; 'I' for Inactive)
REMARK    1  A    between atoms: C_1  and  C_2
REMARK    2  A    between atoms: C_4  and  O_5
REMARK    3  A    between atoms: C_7  and  O_8
REMARK                            x       y       z     vdW  Elec       q    Type
REMARK                         _______ _______ _______ _____ _____    ______ ____
ROOT
ATOM      1  C   LIG A   1      -5.372  -2.588 123.863  0.00  0.00    +0.044 C 
ATOM      2  C   LIG A   1      -6.745  -2.737 124.449  0.00  0.00    -0.044 A 
ATOM      3  C   LIG A   1      -7.849  -3.033 123.638  0.00  0.00    +0.049 A 
ATOM      4  C   LIG A   1      -9.113  -3.168 124.210  0.00  0.00    +0.121 A 
ATOM      5  C   LIG A   1      -9.303  -3.014 125.578  0.00  0.00    +0.090 A 
ATOM      6  C   LIG A   1      -8.206  -2.719 126.380  0.00  0.00    +0.121 A 
ATOM      7  C   LIG A   1      -6.935  -2.581 125.830  0.00  0.00    +0.049 A 
ENDROOT
BRANCH   4   8
ATOM      8  O   LIG A   1     -10.208  -3.455 123.448  0.00  0.00    -0.507 OA
ATOM      9  H   LIG A   1     -10.389  -4.408 123.515  0.00  0.00    +0.292 HD
ENDBRANCH   4   8
BRANCH   6  10
ATOM     10  O   LIG A   1      -8.335  -2.558 127.728  0.00  0.00    -0.507 OA
ATOM     11  H   LIG A   1      -7.647  -3.086 128.167  0.00  0.00    +0.292 HD
ENDBRANCH   6  10
TORSDOF 2
ENDMDL
