MODEL 1
REMARK VINA RESULT:      -8.1      0.000      0.000
REMARK  Name = NuBBE_2514
REMARK  7 active torsions:
REMARK  status: ('A' for Active; 'I' for Inactive)
REMARK    1  A    between atoms: C_1  and  C_2
REMARK    2  A    between atoms: C_1  and  C_4
REMARK    3  A    between atoms: C_9  and  O_11
REMARK    4  A    between atoms: O_11  and  C_12
REMARK    5  A    between atoms: C_14  and  C_19
REMARK    6  A    between atoms: C_16  and  C_18
REMARK    7  A    between atoms: C_19  and  C_20
REMARK                            x       y       z     vdW  Elec       q    Type
REMARK                         _______ _______ _______ _____ _____    ______ ____
ROOT
ATOM      1  C   LIG A   1      -7.129  -1.389 124.847  0.00  0.00    +0.059 C 
ATOM      2  C   LIG A   1      -6.163  -0.340 125.342  0.00  0.00    +0.113 C 
ATOM      3  C   LIG A   1      -5.572  -0.349 126.537  0.00  0.00    +0.096 C 
ATOM      4  C   LIG A   1      -5.865  -1.432 127.504  0.00  0.00    +0.223 C 
ATOM      5  O   LIG A   1      -5.191  -1.512 128.519  0.00  0.00    -0.284 OA
ATOM      6  C   LIG A   1      -7.049  -2.324 127.197  0.00  0.00    +0.164 C 
ATOM      7  C   LIG A   1      -7.627  -2.254 125.985  0.00  0.00    +0.038 C 
ATOM      8  O   LIG A   1      -6.135   0.803 124.559  0.00  0.00    -0.491 OA
ATOM      9  C   LIG A   1      -7.310   0.732 123.724  0.00  0.00    +0.181 C 
ATOM     10  C   LIG A   1      -8.186  -0.391 124.320  0.00  0.00    +0.045 C 
ATOM     11  C   LIG A   1      -9.218  -0.907 123.323  0.00  0.00    +0.012 C 
ENDROOT
BRANCH   6  12
ATOM     12  O   LIG A   1      -7.599  -3.193 128.132  0.00  0.00    -0.492 OA
ATOM     13  C   LIG A   1      -8.822  -3.822 127.761  0.00  0.00    +0.277 C 
ENDBRANCH   6  12
BRANCH   1  14
ATOM     14  C   LIG A   1      -6.514  -2.294 123.722  0.00  0.00    +0.045 C 
BRANCH  14  15
ATOM     15  C   LIG A   1      -5.059  -2.690 123.880  0.00  0.00    -0.033 C 
ATOM     16  C   LIG A   1      -4.528  -3.854 123.481  0.00  0.00    +0.004 C 
ENDBRANCH  14  15
ENDBRANCH   1  14
BRANCH   9  17
ATOM     17  C   LIG A   1      -8.013   2.100 123.692  0.00  0.00    +0.080 C 
BRANCH  17  18
ATOM     18  C   LIG A   1      -7.765   2.876 122.413  0.00  0.00    -0.040 A 
ATOM     19  C   LIG A   1      -6.475   3.344 122.111  0.00  0.00    +0.053 A 
ATOM     20  C   LIG A   1      -6.291   4.039 120.933  0.00  0.00    +0.167 A 
ATOM     21  C   LIG A   1      -7.329   4.288 120.068  0.00  0.00    +0.166 A 
ATOM     22  C   LIG A   1      -8.610   3.858 120.333  0.00  0.00    +0.050 A 
ATOM     23  C   LIG A   1      -8.827   3.147 121.519  0.00  0.00    +0.007 A 
ATOM     24  O   LIG A   1      -6.935   4.983 118.968  0.00  0.00    -0.453 OA
ATOM     25  C   LIG A   1      -5.524   5.123 119.228  0.00  0.00    +0.466 C 
ATOM     26  O   LIG A   1      -5.112   4.548 120.485  0.00  0.00    -0.453 OA
ENDBRANCH  17  18
ENDBRANCH   9  17
TORSDOF 5
ENDMDL
MODEL 2
REMARK VINA RESULT:      -7.8      3.307      9.204
REMARK  Name = NuBBE_2514
REMARK  7 active torsions:
REMARK  status: ('A' for Active; 'I' for Inactive)
REMARK    1  A    between atoms: C_1  and  C_2
REMARK    2  A    between atoms: C_1  and  C_4
REMARK    3  A    between atoms: C_9  and  O_11
REMARK    4  A    between atoms: O_11  and  C_12
REMARK    5  A    between atoms: C_14  and  C_19
REMARK    6  A    between atoms: C_16  and  C_18
REMARK    7  A    between atoms: C_19  and  C_20
REMARK                            x       y       z     vdW  Elec       q    Type
REMARK                         _______ _______ _______ _____ _____    ______ ____
ROOT
ATOM      1  C   LIG A   1      -6.832  -1.621 125.672  0.00  0.00    +0.059 C 
ATOM      2  C   LIG A   1      -8.044  -2.516 125.591  0.00  0.00    +0.113 C 
ATOM      3  C   LIG A   1      -9.025  -2.394 124.696  0.00  0.00    +0.096 C 
ATOM      4  C   LIG A   1      -8.989  -1.303 123.697  0.00  0.00    +0.223 C 
ATOM      5  O   LIG A   1      -9.804  -1.311 122.788  0.00  0.00    -0.284 OA
ATOM      6  C   LIG A   1      -7.981  -0.196 123.925  0.00  0.00    +0.164 C 
ATOM      7  C   LIG A   1      -7.029  -0.358 124.861  0.00  0.00    +0.038 C 
ATOM      8  O   LIG A   1      -8.210  -3.328 126.702  0.00  0.00    -0.491 OA
ATOM      9  C   LIG A   1      -7.344  -2.779 127.718  0.00  0.00    +0.181 C 
ATOM     10  C   LIG A   1      -6.909  -1.392 127.200  0.00  0.00    +0.045 C 
ATOM     11  C   LIG A   1      -5.659  -0.879 127.907  0.00  0.00    +0.012 C 
ENDROOT
BRANCH   6  12
ATOM     12  O   LIG A   1      -8.016   1.009 123.233  0.00  0.00    -0.492 OA
ATOM     13  C   LIG A   1      -8.936   1.983 123.716  0.00  0.00    +0.277 C 
ENDBRANCH   6  12
BRANCH   1  14
ATOM     14  C   LIG A   1      -5.515  -2.344 125.219  0.00  0.00    +0.045 C 
BRANCH  14  15
ATOM     15  C   LIG A   1      -5.631  -3.314 124.060  0.00  0.00    -0.033 C 
ATOM     16  C   LIG A   1      -4.672  -4.163 123.664  0.00  0.00    +0.004 C 
ENDBRANCH  14  15
ENDBRANCH   1  14
BRANCH   9  17
ATOM     17  C   LIG A   1      -8.090  -2.720 129.064  0.00  0.00    +0.080 C 
BRANCH  17  18
ATOM     18  C   LIG A   1      -7.275  -3.249 130.228  0.00  0.00    -0.040 A 
ATOM     19  C   LIG A   1      -7.495  -2.756 131.525  0.00  0.00    +0.053 A 
ATOM     20  C   LIG A   1      -6.738  -3.270 132.557  0.00  0.00    +0.167 A 
ATOM     21  C   LIG A   1      -5.779  -4.231 132.345  0.00  0.00    +0.166 A 
ATOM     22  C   LIG A   1      -5.523  -4.731 131.088  0.00  0.00    +0.050 A 
ATOM     23  C   LIG A   1      -6.278  -4.231 130.021  0.00  0.00    +0.007 A 
ATOM     24  O   LIG A   1      -5.150  -4.602 133.491  0.00  0.00    -0.453 OA
ATOM     25  C   LIG A   1      -5.839  -3.781 134.455  0.00  0.00    +0.466 C 
ATOM     26  O   LIG A   1      -6.831  -2.915 133.867  0.00  0.00    -0.453 OA
ENDBRANCH  17  18
ENDBRANCH   9  17
TORSDOF 5
ENDMDL
MODEL 3
REMARK VINA RESULT:      -7.8      4.171      6.170
REMARK  Name = NuBBE_2514
REMARK  7 active torsions:
REMARK  status: ('A' for Active; 'I' for Inactive)
REMARK    1  A    between atoms: C_1  and  C_2
REMARK    2  A    between atoms: C_1  and  C_4
REMARK    3  A    between atoms: C_9  and  O_11
REMARK    4  A    between atoms: O_11  and  C_12
REMARK    5  A    between atoms: C_14  and  C_19
REMARK    6  A    between atoms: C_16  and  C_18
REMARK    7  A    between atoms: C_19  and  C_20
REMARK                            x       y       z     vdW  Elec       q    Type
REMARK                         _______ _______ _______ _____ _____    ______ ____
ROOT
ATOM      1  C   LIG A   1      -7.705   0.428 125.318  0.00  0.00    +0.059 C 
ATOM      2  C   LIG A   1      -8.373   1.672 124.786  0.00  0.00    +0.113 C 
ATOM      3  C   LIG A   1      -9.328   1.688 123.856  0.00  0.00    +0.096 C 
ATOM      4  C   LIG A   1      -9.793   0.423 123.245  0.00  0.00    +0.223 C 
ATOM      5  O   LIG A   1     -10.778   0.445 122.523  0.00  0.00    -0.284 OA
ATOM      6  C   LIG A   1      -8.952  -0.811 123.497  0.00  0.00    +0.164 C 
ATOM      7  C   LIG A   1      -7.981  -0.765 124.427  0.00  0.00    +0.038 C 
ATOM      8  O   LIG A   1      -7.726   2.845 125.141  0.00  0.00    -0.491 OA
ATOM      9  C   LIG A   1      -6.424   2.443 125.616  0.00  0.00    +0.181 C 
ATOM     10  C   LIG A   1      -6.259   0.965 125.201  0.00  0.00    +0.045 C 
ATOM     11  C   LIG A   1      -5.170   0.259 126.002  0.00  0.00    +0.012 C 
ENDROOT
BRANCH   6  12
ATOM     12  O   LIG A   1      -9.110  -1.991 122.779  0.00  0.00    -0.492 OA
ATOM     13  C   LIG A   1      -9.309  -3.173 123.548  0.00  0.00    +0.277 C 
ENDBRANCH   6  12
BRANCH   1  14
ATOM     14  C   LIG A   1      -8.127   0.098 126.793  0.00  0.00    +0.045 C 
BRANCH  14  15
ATOM     15  C   LIG A   1      -8.190  -1.367 127.176  0.00  0.00    -0.033 C 
ATOM     16  C   LIG A   1      -7.591  -1.913 128.243  0.00  0.00    +0.004 C 
ENDBRANCH  14  15
ENDBRANCH   1  14
BRANCH   9  17
ATOM     17  C   LIG A   1      -5.343   3.365 125.023  0.00  0.00    +0.080 C 
BRANCH  17  18
ATOM     18  C   LIG A   1      -4.445   3.993 126.071  0.00  0.00    -0.040 A 
ATOM     19  C   LIG A   1      -4.840   5.173 126.722  0.00  0.00    +0.053 A 
ATOM     20  C   LIG A   1      -3.997   5.708 127.675  0.00  0.00    +0.167 A 
ATOM     21  C   LIG A   1      -2.793   5.124 127.988  0.00  0.00    +0.166 A 
ATOM     22  C   LIG A   1      -2.364   3.974 127.364  0.00  0.00    +0.050 A 
ATOM     23  C   LIG A   1      -3.199   3.407 126.395  0.00  0.00    +0.007 A 
ATOM     24  O   LIG A   1      -2.118   5.805 128.952  0.00  0.00    -0.453 OA
ATOM     25  C   LIG A   1      -3.046   6.873 129.228  0.00  0.00    +0.466 C 
ATOM     26  O   LIG A   1      -4.230   6.833 128.404  0.00  0.00    -0.453 OA
ENDBRANCH  17  18
ENDBRANCH   9  17
TORSDOF 5
ENDMDL
MODEL 4
REMARK VINA RESULT:      -7.6      2.616      7.632
REMARK  Name = NuBBE_2514
REMARK  7 active torsions:
REMARK  status: ('A' for Active; 'I' for Inactive)
REMARK    1  A    between atoms: C_1  and  C_2
REMARK    2  A    between atoms: C_1  and  C_4
REMARK    3  A    between atoms: C_9  and  O_11
REMARK    4  A    between atoms: O_11  and  C_12
REMARK    5  A    between atoms: C_14  and  C_19
REMARK    6  A    between atoms: C_16  and  C_18
REMARK    7  A    between atoms: C_19  and  C_20
REMARK                            x       y       z     vdW  Elec       q    Type
REMARK                         _______ _______ _______ _____ _____    ______ ____
ROOT
ATOM      1  C   LIG A   1      -7.997   0.597 124.283  0.00  0.00    +0.059 C 
ATOM      2  C   LIG A   1      -8.888   0.302 125.464  0.00  0.00    +0.113 C 
ATOM      3  C   LIG A   1      -8.985   1.060 126.556  0.00  0.00    +0.096 C 
ATOM      4  C   LIG A   1      -8.163   2.284 126.688  0.00  0.00    +0.223 C 
ATOM      5  O   LIG A   1      -8.388   3.048 127.613  0.00  0.00    -0.284 OA
ATOM      6  C   LIG A   1      -7.031   2.461 125.696  0.00  0.00    +0.164 C 
ATOM      7  C   LIG A   1      -6.964   1.649 124.626  0.00  0.00    +0.038 C 
ATOM      8  O   LIG A   1      -9.413  -0.980 125.457  0.00  0.00    -0.491 OA
ATOM      9  C   LIG A   1      -8.637  -1.714 124.486  0.00  0.00    +0.181 C 
ATOM     10  C   LIG A   1      -7.412  -0.830 124.168  0.00  0.00    +0.045 C 
ATOM     11  C   LIG A   1      -6.743  -1.222 122.855  0.00  0.00    +0.012 C 
ENDROOT
BRANCH   6  12
ATOM     12  O   LIG A   1      -6.025   3.405 125.862  0.00  0.00    -0.492 OA
ATOM     13  C   LIG A   1      -6.105   4.561 125.033  0.00  0.00    +0.277 C 
ENDBRANCH   6  12
BRANCH   1  14
ATOM     14  C   LIG A   1      -8.804   1.041 123.012  0.00  0.00    +0.045 C 
BRANCH  14  15
ATOM     15  C   LIG A   1      -8.992   2.530 122.805  0.00  0.00    -0.033 C 
ATOM     16  C   LIG A   1      -8.587   3.218 121.729  0.00  0.00    +0.004 C 
ENDBRANCH  14  15
ENDBRANCH   1  14
BRANCH   9  17
ATOM     17  C   LIG A   1      -8.261  -3.095 125.052  0.00  0.00    +0.080 C 
BRANCH  17  18
ATOM     18  C   LIG A   1      -8.086  -3.101 126.558  0.00  0.00    -0.040 A 
ATOM     19  C   LIG A   1      -6.986  -2.451 127.143  0.00  0.00    +0.053 A 
ATOM     20  C   LIG A   1      -6.868  -2.474 128.518  0.00  0.00    +0.167 A 
ATOM     21  C   LIG A   1      -7.784  -3.119 129.313  0.00  0.00    +0.166 A 
ATOM     22  C   LIG A   1      -8.868  -3.779 128.779  0.00  0.00    +0.050 A 
ATOM     23  C   LIG A   1      -9.016  -3.770 127.388  0.00  0.00    +0.007 A 
ATOM     24  O   LIG A   1      -7.486  -3.020 130.637  0.00  0.00    -0.453 OA
ATOM     25  C   LIG A   1      -6.290  -2.217 130.584  0.00  0.00    +0.466 C 
ATOM     26  O   LIG A   1      -5.877  -1.887 129.242  0.00  0.00    -0.453 OA
ENDBRANCH  17  18
ENDBRANCH   9  17
TORSDOF 5
ENDMDL
MODEL 5
REMARK VINA RESULT:      -7.4      2.018      3.596
REMARK  Name = NuBBE_2514
REMARK  7 active torsions:
REMARK  status: ('A' for Active; 'I' for Inactive)
REMARK    1  A    between atoms: C_1  and  C_2
REMARK    2  A    between atoms: C_1  and  C_4
REMARK    3  A    between atoms: C_9  and  O_11
REMARK    4  A    between atoms: O_11  and  C_12
REMARK    5  A    between atoms: C_14  and  C_19
REMARK    6  A    between atoms: C_16  and  C_18
REMARK    7  A    between atoms: C_19  and  C_20
REMARK                            x       y       z     vdW  Elec       q    Type
REMARK                         _______ _______ _______ _____ _____    ______ ____
ROOT
ATOM      1  C   LIG A   1      -6.903  -0.274 126.397  0.00  0.00    +0.059 C 
ATOM      2  C   LIG A   1      -8.357   0.086 126.213  0.00  0.00    +0.113 C 
ATOM      3  C   LIG A   1      -9.229  -0.609 125.482  0.00  0.00    +0.096 C 
ATOM      4  C   LIG A   1      -8.792  -1.821 124.755  0.00  0.00    +0.223 C 
ATOM      5  O   LIG A   1      -9.637  -2.531 124.233  0.00  0.00    -0.284 OA
ATOM      6  C   LIG A   1      -7.299  -2.052 124.640  0.00  0.00    +0.164 C 
ATOM      7  C   LIG A   1      -6.461  -1.303 125.378  0.00  0.00    +0.038 C 
ATOM      8  O   LIG A   1      -8.671   1.365 126.644  0.00  0.00    -0.491 OA
ATOM      9  C   LIG A   1      -7.407   2.043 126.806  0.00  0.00    +0.181 C 
ATOM     10  C   LIG A   1      -6.355   1.145 126.122  0.00  0.00    +0.045 C 
ATOM     11  C   LIG A   1      -4.937   1.463 126.586  0.00  0.00    +0.012 C 
ENDROOT
BRANCH   6  12
ATOM     12  O   LIG A   1      -6.746  -2.983 123.769  0.00  0.00    -0.492 OA
ATOM     13  C   LIG A   1      -5.695  -2.512 122.931  0.00  0.00    +0.277 C 
ENDBRANCH   6  12
BRANCH   1  14
ATOM     14  C   LIG A   1      -6.588  -0.791 127.845  0.00  0.00    +0.045 C 
BRANCH  14  15
ATOM     15  C   LIG A   1      -6.815  -2.266 128.111  0.00  0.00    -0.033 C 
ATOM     16  C   LIG A   1      -7.970  -2.808 128.522  0.00  0.00    +0.004 C 
ENDBRANCH  14  15
ENDBRANCH   1  14
BRANCH   9  17
ATOM     17  C   LIG A   1      -7.490   3.455 126.199  0.00  0.00    +0.080 C 
BRANCH  17  18
ATOM     18  C   LIG A   1      -7.303   3.475 124.694  0.00  0.00    -0.040 A 
ATOM     19  C   LIG A   1      -6.127   4.004 124.136  0.00  0.00    +0.053 A 
ATOM     20  C   LIG A   1      -5.994   3.996 122.762  0.00  0.00    +0.167 A 
ATOM     21  C   LIG A   1      -6.978   3.500 121.941  0.00  0.00    +0.166 A 
ATOM     22  C   LIG A   1      -8.150   2.986 122.447  0.00  0.00    +0.050 A 
ATOM     23  C   LIG A   1      -8.312   2.977 123.837  0.00  0.00    +0.007 A 
ATOM     24  O   LIG A   1      -6.649   3.584 120.624  0.00  0.00    -0.453 OA
ATOM     25  C   LIG A   1      -5.333   4.167 120.712  0.00  0.00    +0.466 C 
ATOM     26  O   LIG A   1      -4.920   4.455 122.064  0.00  0.00    -0.453 OA
ENDBRANCH  17  18
ENDBRANCH   9  17
TORSDOF 5
ENDMDL
MODEL 6
REMARK VINA RESULT:      -7.3      4.024      5.665
REMARK  Name = NuBBE_2514
REMARK  7 active torsions:
REMARK  status: ('A' for Active; 'I' for Inactive)
REMARK    1  A    between atoms: C_1  and  C_2
REMARK    2  A    between atoms: C_1  and  C_4
REMARK    3  A    between atoms: C_9  and  O_11
REMARK    4  A    between atoms: O_11  and  C_12
REMARK    5  A    between atoms: C_14  and  C_19
REMARK    6  A    between atoms: C_16  and  C_18
REMARK    7  A    between atoms: C_19  and  C_20
REMARK                            x       y       z     vdW  Elec       q    Type
REMARK                         _______ _______ _______ _____ _____    ______ ____
ROOT
ATOM      1  C   LIG A   1      -6.703  -1.108 126.185  0.00  0.00    +0.059 C 
ATOM      2  C   LIG A   1      -6.769  -1.438 127.656  0.00  0.00    +0.113 C 
ATOM      3  C   LIG A   1      -7.591  -2.333 128.203  0.00  0.00    +0.096 C 
ATOM      4  C   LIG A   1      -8.552  -3.075 127.355  0.00  0.00    +0.223 C 
ATOM      5  O   LIG A   1      -9.174  -4.004 127.846  0.00  0.00    -0.284 OA
ATOM      6  C   LIG A   1      -8.756  -2.567 125.943  0.00  0.00    +0.164 C 
ATOM      7  C   LIG A   1      -7.914  -1.641 125.451  0.00  0.00    +0.038 C 
ATOM      8  O   LIG A   1      -6.090  -0.534 128.459  0.00  0.00    -0.491 OA
ATOM      9  C   LIG A   1      -5.840   0.617 127.624  0.00  0.00    +0.181 C 
ATOM     10  C   LIG A   1      -6.717   0.427 126.368  0.00  0.00    +0.045 C 
ATOM     11  C   LIG A   1      -6.245   1.289 125.201  0.00  0.00    +0.012 C 
ENDROOT
BRANCH   6  12
ATOM     12  O   LIG A   1      -9.807  -2.988 125.136  0.00  0.00    -0.492 OA
ATOM     13  C   LIG A   1      -9.478  -3.291 123.784  0.00  0.00    +0.277 C 
ENDBRANCH   6  12
BRANCH   1  14
ATOM     14  C   LIG A   1      -5.392  -1.639 125.505  0.00  0.00    +0.045 C 
BRANCH  14  15
ATOM     15  C   LIG A   1      -5.523  -2.877 124.640  0.00  0.00    -0.033 C 
ATOM     16  C   LIG A   1      -5.151  -2.965 123.355  0.00  0.00    +0.004 C 
ENDBRANCH  14  15
ENDBRANCH   1  14
BRANCH   9  17
ATOM     17  C   LIG A   1      -6.161   1.906 128.402  0.00  0.00    +0.080 C 
BRANCH  17  18
ATOM     18  C   LIG A   1      -5.083   2.966 128.283  0.00  0.00    -0.040 A 
ATOM     19  C   LIG A   1      -5.385   4.312 128.549  0.00  0.00    +0.053 A 
ATOM     20  C   LIG A   1      -4.374   5.244 128.436  0.00  0.00    +0.167 A 
ATOM     21  C   LIG A   1      -3.099   4.889 128.065  0.00  0.00    +0.166 A 
ATOM     22  C   LIG A   1      -2.765   3.583 127.784  0.00  0.00    +0.050 A 
ATOM     23  C   LIG A   1      -3.770   2.615 127.892  0.00  0.00    +0.007 A 
ATOM     24  O   LIG A   1      -2.255   5.954 128.017  0.00  0.00    -0.453 OA
ATOM     25  C   LIG A   1      -3.139   7.017 128.425  0.00  0.00    +0.466 C 
ATOM     26  O   LIG A   1      -4.492   6.579 128.669  0.00  0.00    -0.453 OA
ENDBRANCH  17  18
ENDBRANCH   9  17
TORSDOF 5
ENDMDL
MODEL 7
REMARK VINA RESULT:      -7.1      7.318      9.083
REMARK  Name = NuBBE_2514
REMARK  7 active torsions:
REMARK  status: ('A' for Active; 'I' for Inactive)
REMARK    1  A    between atoms: C_1  and  C_2
REMARK    2  A    between atoms: C_1  and  C_4
REMARK    3  A    between atoms: C_9  and  O_11
REMARK    4  A    between atoms: O_11  and  C_12
REMARK    5  A    between atoms: C_14  and  C_19
REMARK    6  A    between atoms: C_16  and  C_18
REMARK    7  A    between atoms: C_19  and  C_20
REMARK                            x       y       z     vdW  Elec       q    Type
REMARK                         _______ _______ _______ _____ _____    ______ ____
ROOT
ATOM      1  C   LIG A   1      -6.930   4.057 130.442  0.00  0.00    +0.059 C 
ATOM      2  C   LIG A   1      -8.290   3.430 130.630  0.00  0.00    +0.113 C 
ATOM      3  C   LIG A   1      -8.954   2.750 129.695  0.00  0.00    +0.096 C 
ATOM      4  C   LIG A   1      -8.374   2.585 128.343  0.00  0.00    +0.223 C 
ATOM      5  O   LIG A   1      -8.917   1.823 127.559  0.00  0.00    -0.284 OA
ATOM      6  C   LIG A   1      -7.179   3.450 127.998  0.00  0.00    +0.164 C 
ATOM      7  C   LIG A   1      -6.564   4.138 128.975  0.00  0.00    +0.038 C 
ATOM      8  O   LIG A   1      -8.938   3.846 131.782  0.00  0.00    -0.491 OA
ATOM      9  C   LIG A   1      -8.221   5.014 132.233  0.00  0.00    +0.181 C 
ATOM     10  C   LIG A   1      -7.301   5.424 131.063  0.00  0.00    +0.045 C 
ATOM     11  C   LIG A   1      -6.164   6.333 131.516  0.00  0.00    +0.012 C 
ENDROOT
BRANCH   6  12
ATOM     12  O   LIG A   1      -6.708   3.599 126.699  0.00  0.00    -0.492 OA
ATOM     13  C   LIG A   1      -7.421   4.514 125.873  0.00  0.00    +0.277 C 
ENDBRANCH   6  12
BRANCH   1  14
ATOM     14  C   LIG A   1      -5.802   3.303 131.231  0.00  0.00    +0.045 C 
BRANCH  14  15
ATOM     15  C   LIG A   1      -4.438   3.231 130.573  0.00  0.00    -0.033 C 
ATOM     16  C   LIG A   1      -3.350   3.901 130.976  0.00  0.00    +0.004 C 
ENDBRANCH  14  15
ENDBRANCH   1  14
BRANCH   9  17
ATOM     17  C   LIG A   1      -9.218   6.115 132.638  0.00  0.00    +0.080 C 
BRANCH  17  18
ATOM     18  C   LIG A   1     -10.132   6.545 131.507  0.00  0.00    -0.040 A 
ATOM     19  C   LIG A   1      -9.597   7.154 130.360  0.00  0.00    +0.053 A 
ATOM     20  C   LIG A   1     -10.463   7.523 129.350  0.00  0.00    +0.167 A 
ATOM     21  C   LIG A   1     -11.819   7.321 129.448  0.00  0.00    +0.166 A 
ATOM     22  C   LIG A   1     -12.384   6.741 130.561  0.00  0.00    +0.050 A 
ATOM     23  C   LIG A   1     -11.531   6.353 131.599  0.00  0.00    +0.007 A 
ATOM     24  O   LIG A   1     -12.491   7.753 128.348  0.00  0.00    -0.453 OA
ATOM     25  C   LIG A   1     -11.399   8.228 127.535  0.00  0.00    +0.466 C 
ATOM     26  O   LIG A   1     -10.111   8.108 128.174  0.00  0.00    -0.453 OA
ENDBRANCH  17  18
ENDBRANCH   9  17
TORSDOF 5
ENDMDL
MODEL 8
REMARK VINA RESULT:      -7.1      7.683      9.314
REMARK  Name = NuBBE_2514
REMARK  7 active torsions:
REMARK  status: ('A' for Active; 'I' for Inactive)
REMARK    1  A    between atoms: C_1  and  C_2
REMARK    2  A    between atoms: C_1  and  C_4
REMARK    3  A    between atoms: C_9  and  O_11
REMARK    4  A    between atoms: O_11  and  C_12
REMARK    5  A    between atoms: C_14  and  C_19
REMARK    6  A    between atoms: C_16  and  C_18
REMARK    7  A    between atoms: C_19  and  C_20
REMARK                            x       y       z     vdW  Elec       q    Type
REMARK                         _______ _______ _______ _____ _____    ______ ____
ROOT
ATOM      1  C   LIG A   1      -7.827   3.504 132.153  0.00  0.00    +0.059 C 
ATOM      2  C   LIG A   1      -8.745   3.649 130.965  0.00  0.00    +0.113 C 
ATOM      3  C   LIG A   1      -8.379   3.490 129.693  0.00  0.00    +0.096 C 
ATOM      4  C   LIG A   1      -6.973   3.171 129.357  0.00  0.00    +0.223 C 
ATOM      5  O   LIG A   1      -6.697   2.866 128.208  0.00  0.00    -0.284 OA
ATOM      6  C   LIG A   1      -5.951   3.327 130.464  0.00  0.00    +0.164 C 
ATOM      7  C   LIG A   1      -6.375   3.514 131.727  0.00  0.00    +0.038 C 
ATOM      8  O   LIG A   1      -9.963   4.235 131.272  0.00  0.00    -0.491 OA
ATOM      9  C   LIG A   1      -9.793   4.826 132.577  0.00  0.00    +0.181 C 
ATOM     10  C   LIG A   1      -8.275   4.807 132.856  0.00  0.00    +0.045 C 
ATOM     11  C   LIG A   1      -7.959   4.961 134.340  0.00  0.00    +0.012 C 
ENDROOT
BRANCH   6  12
ATOM     12  O   LIG A   1      -4.581   3.326 130.230  0.00  0.00    -0.492 OA
ATOM     13  C   LIG A   1      -3.825   4.316 130.921  0.00  0.00    +0.277 C 
ENDBRANCH   6  12
BRANCH   1  14
ATOM     14  C   LIG A   1      -8.126   2.213 132.994  0.00  0.00    +0.045 C 
BRANCH  14  15
ATOM     15  C   LIG A   1      -8.113   0.893 132.249  0.00  0.00    -0.033 C 
ATOM     16  C   LIG A   1      -9.192   0.286 131.734  0.00  0.00    +0.004 C 
ENDBRANCH  14  15
ENDBRANCH   1  14
BRANCH   9  17
ATOM     17  C   LIG A   1     -10.397   6.242 132.593  0.00  0.00    +0.080 C 
BRANCH  17  18
ATOM     18  C   LIG A   1     -10.974   6.665 131.256  0.00  0.00    -0.040 A 
ATOM     19  C   LIG A   1     -10.119   7.011 130.196  0.00  0.00    +0.053 A 
ATOM     20  C   LIG A   1     -10.686   7.383 128.993  0.00  0.00    +0.167 A 
ATOM     21  C   LIG A   1     -12.048   7.433 128.818  0.00  0.00    +0.166 A 
ATOM     22  C   LIG A   1     -12.919   7.115 129.835  0.00  0.00    +0.050 A 
ATOM     23  C   LIG A   1     -12.374   6.730 131.065  0.00  0.00    +0.007 A 
ATOM     24  O   LIG A   1     -12.398   7.819 127.562  0.00  0.00    -0.453 OA
ATOM     25  C   LIG A   1     -11.099   7.985 126.959  0.00  0.00    +0.466 C 
ATOM     26  O   LIG A   1     -10.006   7.734 127.868  0.00  0.00    -0.453 OA
ENDBRANCH  17  18
ENDBRANCH   9  17
TORSDOF 5
ENDMDL
MODEL 9
REMARK VINA RESULT:      -7.1      2.627      4.734
REMARK  Name = NuBBE_2514
REMARK  7 active torsions:
REMARK  status: ('A' for Active; 'I' for Inactive)
REMARK    1  A    between atoms: C_1  and  C_2
REMARK    2  A    between atoms: C_1  and  C_4
REMARK    3  A    between atoms: C_9  and  O_11
REMARK    4  A    between atoms: O_11  and  C_12
REMARK    5  A    between atoms: C_14  and  C_19
REMARK    6  A    between atoms: C_16  and  C_18
REMARK    7  A    between atoms: C_19  and  C_20
REMARK                            x       y       z     vdW  Elec       q    Type
REMARK                         _______ _______ _______ _____ _____    ______ ____
ROOT
ATOM      1  C   LIG A   1      -7.238  -2.294 129.033  0.00  0.00    +0.059 C 
ATOM      2  C   LIG A   1      -6.519  -1.234 128.234  0.00  0.00    +0.113 C 
ATOM      3  C   LIG A   1      -6.239  -0.006 128.672  0.00  0.00    +0.096 C 
ATOM      4  C   LIG A   1      -6.661   0.415 130.027  0.00  0.00    +0.223 C 
ATOM      5  O   LIG A   1      -6.250   1.477 130.467  0.00  0.00    -0.284 OA
ATOM      6  C   LIG A   1      -7.651  -0.477 130.746  0.00  0.00    +0.164 C 
ATOM      7  C   LIG A   1      -7.919  -1.696 130.246  0.00  0.00    +0.038 C 
ATOM      8  O   LIG A   1      -6.404  -1.538 126.887  0.00  0.00    -0.491 OA
ATOM      9  C   LIG A   1      -7.328  -2.621 126.651  0.00  0.00    +0.181 C 
ATOM     10  C   LIG A   1      -8.219  -2.699 127.909  0.00  0.00    +0.045 C 
ATOM     11  C   LIG A   1      -8.927  -4.044 128.031  0.00  0.00    +0.012 C 
ENDROOT
BRANCH   6  12
ATOM     12  O   LIG A   1      -8.332  -0.077 131.889  0.00  0.00    -0.492 OA
ATOM     13  C   LIG A   1      -9.425   0.814 131.689  0.00  0.00    +0.277 C 
ENDBRANCH   6  12
BRANCH   1  14
ATOM     14  C   LIG A   1      -6.289  -3.462 129.479  0.00  0.00    +0.045 C 
BRANCH  14  15
ATOM     15  C   LIG A   1      -4.847  -3.099 129.773  0.00  0.00    -0.033 C 
ATOM     16  C   LIG A   1      -3.785  -3.527 129.078  0.00  0.00    +0.004 C 
ENDBRANCH  14  15
ENDBRANCH   1  14
BRANCH   9  17
ATOM     17  C   LIG A   1      -8.121  -2.358 125.358  0.00  0.00    +0.080 C 
BRANCH  17  18
ATOM     18  C   LIG A   1      -8.314  -0.884 125.059  0.00  0.00    -0.040 A 
ATOM     19  C   LIG A   1      -7.531  -0.256 124.076  0.00  0.00    +0.053 A 
ATOM     20  C   LIG A   1      -7.744   1.085 123.828  0.00  0.00    +0.167 A 
ATOM     21  C   LIG A   1      -8.684   1.810 124.521  0.00  0.00    +0.166 A 
ATOM     22  C   LIG A   1      -9.462   1.235 125.500  0.00  0.00    +0.050 A 
ATOM     23  C   LIG A   1      -9.271  -0.124 125.771  0.00  0.00    +0.007 A 
ATOM     24  O   LIG A   1      -8.736   3.109 124.124  0.00  0.00    -0.453 OA
ATOM     25  C   LIG A   1      -7.738   3.114 123.084  0.00  0.00    +0.466 C 
ATOM     26  O   LIG A   1      -7.086   1.839 122.907  0.00  0.00    -0.453 OA
ENDBRANCH  17  18
ENDBRANCH   9  17
TORSDOF 5
ENDMDL
