MODEL 1
REMARK VINA RESULT:      -8.0      0.000      0.000
REMARK  Name = NuBBE_2499
REMARK  6 active torsions:
REMARK  status: ('A' for Active; 'I' for Inactive)
REMARK    1  A    between atoms: C_1  and  C_2
REMARK    2  A    between atoms: C_2  and  C_3
REMARK    3  A    between atoms: C_4  and  C_5
REMARK    4  A    between atoms: C_14  and  C_15
REMARK    5  A    between atoms: C_14  and  C_16
REMARK    6  A    between atoms: C_20  and  C_21
REMARK                            x       y       z     vdW  Elec       q    Type
REMARK                         _______ _______ _______ _____ _____    ______ ____
ROOT
ATOM      1  C   LIG A   1      -6.231  -2.619 128.875  0.00  0.00    -0.041 A 
ATOM      2  C   LIG A   1      -7.324  -3.031 129.673  0.00  0.00    -0.047 A 
ATOM      3  C   LIG A   1      -7.240  -3.144 131.172  0.00  0.00    +0.044 C 
ATOM      4  C   LIG A   1      -8.539  -3.343 129.060  0.00  0.00    +0.004 A 
ATOM      5  C   LIG A   1      -8.678  -3.276 127.677  0.00  0.00    +0.005 A 
ATOM      6  C   LIG A   1      -7.616  -2.880 126.842  0.00  0.00    -0.038 A 
ATOM      7  C   LIG A   1      -6.384  -2.540 127.455  0.00  0.00    -0.040 A 
ATOM      8  C   LIG A   1      -5.224  -2.157 126.570  0.00  0.00    +0.036 C 
ATOM      9  C   LIG A   1      -5.704  -1.410 125.341  0.00  0.00    +0.009 C 
ATOM     10  C   LIG A   1      -6.597  -2.309 124.475  0.00  0.00    +0.005 C 
ATOM     11  C   LIG A   1      -6.958  -1.605 123.103  0.00  0.00    -0.031 C 
ATOM     12  C   LIG A   1      -5.810  -1.854 122.095  0.00  0.00    +0.011 C 
ATOM     13  C   LIG A   1      -7.130  -0.070 123.205  0.00  0.00    +0.011 C 
ATOM     14  C   LIG A   1      -8.243  -2.203 122.502  0.00  0.00    +0.007 C 
ATOM     15  C   LIG A   1      -9.445  -2.121 123.433  0.00  0.00    +0.001 C 
ATOM     16  C   LIG A   1      -9.105  -2.126 124.923  0.00  0.00    +0.012 C 
ATOM     17  C   LIG A   1      -7.814  -2.898 125.300  0.00  0.00    -0.004 C 
ATOM     18  C   LIG A   1      -7.976  -4.401 124.929  0.00  0.00    +0.016 C 
ENDROOT
BRANCH   1  20
ATOM     19  C   LIG A   1      -3.978  -3.516 129.589  0.00  0.00    +0.009 C 
ATOM     20  C   LIG A   1      -4.901  -2.306 129.543  0.00  0.00    +0.032 C 
ENDBRANCH   1  20
TORSDOF 1
ENDMDL
MODEL 2
REMARK VINA RESULT:      -7.8      1.255      5.816
REMARK  Name = NuBBE_2499
REMARK  6 active torsions:
REMARK  status: ('A' for Active; 'I' for Inactive)
REMARK    1  A    between atoms: C_1  and  C_2
REMARK    2  A    between atoms: C_2  and  C_3
REMARK    3  A    between atoms: C_4  and  C_5
REMARK    4  A    between atoms: C_14  and  C_15
REMARK    5  A    between atoms: C_14  and  C_16
REMARK    6  A    between atoms: C_20  and  C_21
REMARK                            x       y       z     vdW  Elec       q    Type
REMARK                         _______ _______ _______ _____ _____    ______ ____
ROOT
ATOM      1  C   LIG A   1      -7.136  -2.610 125.212  0.00  0.00    -0.041 A 
ATOM      2  C   LIG A   1      -8.472  -3.033 125.014  0.00  0.00    -0.047 A 
ATOM      3  C   LIG A   1      -9.050  -3.285 123.647  0.00  0.00    +0.044 C 
ATOM      4  C   LIG A   1      -9.297  -3.236 126.122  0.00  0.00    +0.004 A 
ATOM      5  C   LIG A   1      -8.828  -3.003 127.412  0.00  0.00    +0.005 A 
ATOM      6  C   LIG A   1      -7.511  -2.574 127.657  0.00  0.00    -0.038 A 
ATOM      7  C   LIG A   1      -6.657  -2.386 126.542  0.00  0.00    -0.040 A 
ATOM      8  C   LIG A   1      -5.257  -1.883 126.787  0.00  0.00    +0.036 C 
ATOM      9  C   LIG A   1      -4.707  -2.422 128.093  0.00  0.00    +0.009 C 
ATOM     10  C   LIG A   1      -5.537  -1.913 129.280  0.00  0.00    +0.005 C 
ATOM     11  C   LIG A   1      -4.872  -2.320 130.659  0.00  0.00    -0.031 C 
ATOM     12  C   LIG A   1      -3.792  -1.272 131.023  0.00  0.00    +0.011 C 
ATOM     13  C   LIG A   1      -4.160  -3.695 130.637  0.00  0.00    +0.011 C 
ATOM     14  C   LIG A   1      -5.915  -2.326 131.791  0.00  0.00    +0.007 C 
ATOM     15  C   LIG A   1      -7.099  -3.245 131.521  0.00  0.00    +0.001 C 
ATOM     16  C   LIG A   1      -7.426  -3.453 130.042  0.00  0.00    +0.012 C 
ATOM     17  C   LIG A   1      -7.073  -2.261 129.116  0.00  0.00    -0.004 C 
ATOM     18  C   LIG A   1      -7.905  -1.012 129.530  0.00  0.00    +0.016 C 
ENDROOT
BRANCH   1  20
ATOM     19  C   LIG A   1      -5.271  -3.507 123.762  0.00  0.00    +0.009 C 
ATOM     20  C   LIG A   1      -6.247  -2.364 124.003  0.00  0.00    +0.032 C 
ENDBRANCH   1  20
TORSDOF 1
ENDMDL
MODEL 3
REMARK VINA RESULT:      -7.4      1.818      2.966
REMARK  Name = NuBBE_2499
REMARK  6 active torsions:
REMARK  status: ('A' for Active; 'I' for Inactive)
REMARK    1  A    between atoms: C_1  and  C_2
REMARK    2  A    between atoms: C_2  and  C_3
REMARK    3  A    between atoms: C_4  and  C_5
REMARK    4  A    between atoms: C_14  and  C_15
REMARK    5  A    between atoms: C_14  and  C_16
REMARK    6  A    between atoms: C_20  and  C_21
REMARK                            x       y       z     vdW  Elec       q    Type
REMARK                         _______ _______ _______ _____ _____    ______ ____
ROOT
ATOM      1  C   LIG A   1      -7.496  -1.924 129.568  0.00  0.00    -0.041 A 
ATOM      2  C   LIG A   1      -7.029  -0.720 130.145  0.00  0.00    -0.047 A 
ATOM      3  C   LIG A   1      -6.594  -0.624 131.583  0.00  0.00    +0.044 C 
ATOM      4  C   LIG A   1      -6.956   0.432 129.360  0.00  0.00    +0.004 A 
ATOM      5  C   LIG A   1      -7.359   0.414 128.028  0.00  0.00    +0.005 A 
ATOM      6  C   LIG A   1      -7.838  -0.758 127.413  0.00  0.00    -0.038 A 
ATOM      7  C   LIG A   1      -7.897  -1.939 128.194  0.00  0.00    -0.040 A 
ATOM      8  C   LIG A   1      -8.450  -3.191 127.562  0.00  0.00    +0.036 C 
ATOM      9  C   LIG A   1      -8.092  -3.260 126.090  0.00  0.00    +0.009 C 
ATOM     10  C   LIG A   1      -8.734  -2.096 125.322  0.00  0.00    +0.005 C 
ATOM     11  C   LIG A   1      -8.519  -2.253 123.761  0.00  0.00    -0.031 C 
ATOM     12  C   LIG A   1      -9.623  -3.178 123.193  0.00  0.00    +0.011 C 
ATOM     13  C   LIG A   1      -7.164  -2.894 123.370  0.00  0.00    +0.011 C 
ATOM     14  C   LIG A   1      -8.640  -0.893 123.051  0.00  0.00    +0.007 C 
ATOM     15  C   LIG A   1      -7.674   0.158 123.582  0.00  0.00    +0.001 C 
ATOM     16  C   LIG A   1      -7.273  -0.020 125.046  0.00  0.00    +0.012 C 
ATOM     17  C   LIG A   1      -8.343  -0.693 125.943  0.00  0.00    -0.004 C 
ATOM     18  C   LIG A   1      -9.621   0.195 125.992  0.00  0.00    +0.016 C 
ENDROOT
BRANCH   1  20
ATOM     19  C   LIG A   1      -6.342  -4.026 130.366  0.00  0.00    +0.009 C 
ATOM     20  C   LIG A   1      -7.600  -3.171 130.432  0.00  0.00    +0.032 C 
ENDBRANCH   1  20
TORSDOF 1
ENDMDL
MODEL 4
REMARK VINA RESULT:      -7.2      2.404      3.794
REMARK  Name = NuBBE_2499
REMARK  6 active torsions:
REMARK  status: ('A' for Active; 'I' for Inactive)
REMARK    1  A    between atoms: C_1  and  C_2
REMARK    2  A    between atoms: C_2  and  C_3
REMARK    3  A    between atoms: C_4  and  C_5
REMARK    4  A    between atoms: C_14  and  C_15
REMARK    5  A    between atoms: C_14  and  C_16
REMARK    6  A    between atoms: C_20  and  C_21
REMARK                            x       y       z     vdW  Elec       q    Type
REMARK                         _______ _______ _______ _____ _____    ______ ____
ROOT
ATOM      1  C   LIG A   1      -7.777  -1.933 127.572  0.00  0.00    -0.041 A 
ATOM      2  C   LIG A   1      -8.683  -2.935 127.152  0.00  0.00    -0.047 A 
ATOM      3  C   LIG A   1      -9.014  -4.137 127.997  0.00  0.00    +0.044 C 
ATOM      4  C   LIG A   1      -9.308  -2.816 125.910  0.00  0.00    +0.004 A 
ATOM      5  C   LIG A   1      -9.031  -1.739 125.073  0.00  0.00    +0.005 A 
ATOM      6  C   LIG A   1      -8.131  -0.722 125.445  0.00  0.00    -0.038 A 
ATOM      7  C   LIG A   1      -7.507  -0.821 126.713  0.00  0.00    -0.040 A 
ATOM      8  C   LIG A   1      -6.507   0.237 127.105  0.00  0.00    +0.036 C 
ATOM      9  C   LIG A   1      -6.901   1.590 126.545  0.00  0.00    +0.009 C 
ATOM     10  C   LIG A   1      -6.888   1.565 125.011  0.00  0.00    +0.005 C 
ATOM     11  C   LIG A   1      -7.122   3.014 124.413  0.00  0.00    -0.031 C 
ATOM     12  C   LIG A   1      -5.767   3.761 124.367  0.00  0.00    +0.011 C 
ATOM     13  C   LIG A   1      -8.083   3.895 125.249  0.00  0.00    +0.011 C 
ATOM     14  C   LIG A   1      -7.658   2.933 122.973  0.00  0.00    +0.007 C 
ATOM     15  C   LIG A   1      -8.947   2.131 122.848  0.00  0.00    +0.001 C 
ATOM     16  C   LIG A   1      -9.126   1.036 123.900  0.00  0.00    +0.012 C 
ATOM     17  C   LIG A   1      -7.810   0.415 124.433  0.00  0.00    -0.004 C 
ATOM     18  C   LIG A   1      -7.051  -0.283 123.266  0.00  0.00    +0.016 C 
ENDROOT
BRANCH   1  20
ATOM     19  C   LIG A   1      -7.847  -1.407 130.043  0.00  0.00    +0.009 C 
ATOM     20  C   LIG A   1      -7.078  -2.079 128.915  0.00  0.00    +0.032 C 
ENDBRANCH   1  20
TORSDOF 1
ENDMDL
MODEL 5
REMARK VINA RESULT:      -7.1      3.302      5.882
REMARK  Name = NuBBE_2499
REMARK  6 active torsions:
REMARK  status: ('A' for Active; 'I' for Inactive)
REMARK    1  A    between atoms: C_1  and  C_2
REMARK    2  A    between atoms: C_2  and  C_3
REMARK    3  A    between atoms: C_4  and  C_5
REMARK    4  A    between atoms: C_14  and  C_15
REMARK    5  A    between atoms: C_14  and  C_16
REMARK    6  A    between atoms: C_20  and  C_21
REMARK                            x       y       z     vdW  Elec       q    Type
REMARK                         _______ _______ _______ _____ _____    ______ ____
ROOT
ATOM      1  C   LIG A   1      -7.254  -1.625 124.418  0.00  0.00    -0.041 A 
ATOM      2  C   LIG A   1      -8.476  -1.736 123.714  0.00  0.00    -0.047 A 
ATOM      3  C   LIG A   1      -9.087  -3.064 123.353  0.00  0.00    +0.044 C 
ATOM      4  C   LIG A   1      -9.158  -0.577 123.339  0.00  0.00    +0.004 A 
ATOM      5  C   LIG A   1      -8.638   0.681 123.628  0.00  0.00    +0.005 A 
ATOM      6  C   LIG A   1      -7.422   0.841 124.318  0.00  0.00    -0.038 A 
ATOM      7  C   LIG A   1      -6.731  -0.328 124.724  0.00  0.00    -0.040 A 
ATOM      8  C   LIG A   1      -5.405  -0.172 125.425  0.00  0.00    +0.036 C 
ATOM      9  C   LIG A   1      -5.396   1.068 126.298  0.00  0.00    +0.009 C 
ATOM     10  C   LIG A   1      -5.557   2.332 125.442  0.00  0.00    +0.005 C 
ATOM     11  C   LIG A   1      -5.369   3.641 126.316  0.00  0.00    -0.031 C 
ATOM     12  C   LIG A   1      -3.858   3.960 126.422  0.00  0.00    +0.011 C 
ATOM     13  C   LIG A   1      -5.896   3.514 127.767  0.00  0.00    +0.011 C 
ATOM     14  C   LIG A   1      -6.054   4.847 125.650  0.00  0.00    +0.007 C 
ATOM     15  C   LIG A   1      -7.539   4.635 125.387  0.00  0.00    +0.001 C 
ATOM     16  C   LIG A   1      -7.951   3.178 125.170  0.00  0.00    +0.012 C 
ATOM     17  C   LIG A   1      -6.859   2.273 124.544  0.00  0.00    -0.004 C 
ATOM     18  C   LIG A   1      -6.498   2.796 123.122  0.00  0.00    +0.016 C 
ENDROOT
BRANCH   1  20
ATOM     19  C   LIG A   1      -5.427  -3.253 123.786  0.00  0.00    +0.009 C 
ATOM     20  C   LIG A   1      -6.500  -2.888 124.803  0.00  0.00    +0.032 C 
ENDBRANCH   1  20
TORSDOF 1
ENDMDL
MODEL 6
REMARK VINA RESULT:      -6.9      1.305      6.292
REMARK  Name = NuBBE_2499
REMARK  6 active torsions:
REMARK  status: ('A' for Active; 'I' for Inactive)
REMARK    1  A    between atoms: C_1  and  C_2
REMARK    2  A    between atoms: C_2  and  C_3
REMARK    3  A    between atoms: C_4  and  C_5
REMARK    4  A    between atoms: C_14  and  C_15
REMARK    5  A    between atoms: C_14  and  C_16
REMARK    6  A    between atoms: C_20  and  C_21
REMARK                            x       y       z     vdW  Elec       q    Type
REMARK                         _______ _______ _______ _____ _____    ______ ____
ROOT
ATOM      1  C   LIG A   1      -7.324  -2.780 125.059  0.00  0.00    -0.041 A 
ATOM      2  C   LIG A   1      -6.446  -2.081 124.198  0.00  0.00    -0.047 A 
ATOM      3  C   LIG A   1      -6.552  -2.150 122.698  0.00  0.00    +0.044 C 
ATOM      4  C   LIG A   1      -5.439  -1.285 124.747  0.00  0.00    +0.004 A 
ATOM      5  C   LIG A   1      -5.277  -1.192 126.126  0.00  0.00    +0.005 A 
ATOM      6  C   LIG A   1      -6.121  -1.876 127.021  0.00  0.00    -0.038 A 
ATOM      7  C   LIG A   1      -7.160  -2.670 126.476  0.00  0.00    -0.040 A 
ATOM      8  C   LIG A   1      -8.044  -3.443 127.421  0.00  0.00    +0.036 C 
ATOM      9  C   LIG A   1      -8.258  -2.678 128.712  0.00  0.00    +0.009 C 
ATOM     10  C   LIG A   1      -6.929  -2.491 129.457  0.00  0.00    +0.005 C 
ATOM     11  C   LIG A   1      -7.161  -1.853 130.889  0.00  0.00    -0.031 C 
ATOM     12  C   LIG A   1      -7.511  -2.981 131.889  0.00  0.00    +0.011 C 
ATOM     13  C   LIG A   1      -8.328  -0.836 130.947  0.00  0.00    +0.011 C 
ATOM     14  C   LIG A   1      -5.883  -1.161 131.395  0.00  0.00    +0.007 C 
ATOM     15  C   LIG A   1      -5.359  -0.086 130.451  0.00  0.00    +0.001 C 
ATOM     16  C   LIG A   1      -5.698  -0.306 128.977  0.00  0.00    +0.012 C 
ATOM     17  C   LIG A   1      -5.839  -1.789 128.549  0.00  0.00    -0.004 C 
ATOM     18  C   LIG A   1      -4.483  -2.525 128.753  0.00  0.00    +0.016 C 
ENDROOT
BRANCH   1  20
ATOM     19  C   LIG A   1      -9.514  -2.861 123.799  0.00  0.00    +0.009 C 
ATOM     20  C   LIG A   1      -8.403  -3.668 124.458  0.00  0.00    +0.032 C 
ENDBRANCH   1  20
TORSDOF 1
ENDMDL
MODEL 7
REMARK VINA RESULT:      -6.9      1.980      2.533
REMARK  Name = NuBBE_2499
REMARK  6 active torsions:
REMARK  status: ('A' for Active; 'I' for Inactive)
REMARK    1  A    between atoms: C_1  and  C_2
REMARK    2  A    between atoms: C_2  and  C_3
REMARK    3  A    between atoms: C_4  and  C_5
REMARK    4  A    between atoms: C_14  and  C_15
REMARK    5  A    between atoms: C_14  and  C_16
REMARK    6  A    between atoms: C_20  and  C_21
REMARK                            x       y       z     vdW  Elec       q    Type
REMARK                         _______ _______ _______ _____ _____    ______ ____
ROOT
ATOM      1  C   LIG A   1      -7.516  -1.173 129.679  0.00  0.00    -0.041 A 
ATOM      2  C   LIG A   1      -7.744  -2.482 130.164  0.00  0.00    -0.047 A 
ATOM      3  C   LIG A   1      -7.725  -2.820 131.631  0.00  0.00    +0.044 C 
ATOM      4  C   LIG A   1      -8.007  -3.511 129.258  0.00  0.00    +0.004 A 
ATOM      5  C   LIG A   1      -8.021  -3.268 127.888  0.00  0.00    +0.005 A 
ATOM      6  C   LIG A   1      -7.791  -1.984 127.359  0.00  0.00    -0.038 A 
ATOM      7  C   LIG A   1      -7.545  -0.927 128.270  0.00  0.00    -0.040 A 
ATOM      8  C   LIG A   1      -7.252   0.444 127.716  0.00  0.00    +0.036 C 
ATOM      9  C   LIG A   1      -8.036   0.693 126.442  0.00  0.00    +0.009 C 
ATOM     10  C   LIG A   1      -7.611  -0.290 125.344  0.00  0.00    +0.005 C 
ATOM     11  C   LIG A   1      -8.289   0.071 123.958  0.00  0.00    -0.031 C 
ATOM     12  C   LIG A   1      -7.440   1.156 123.253  0.00  0.00    +0.011 C 
ATOM     13  C   LIG A   1      -9.721   0.647 124.086  0.00  0.00    +0.011 C 
ATOM     14  C   LIG A   1      -8.336  -1.158 123.033  0.00  0.00    +0.007 C 
ATOM     15  C   LIG A   1      -9.059  -2.351 123.644  0.00  0.00    +0.001 C 
ATOM     16  C   LIG A   1      -9.011  -2.419 125.171  0.00  0.00    +0.012 C 
ATOM     17  C   LIG A   1      -7.747  -1.795 125.816  0.00  0.00    -0.004 C 
ATOM     18  C   LIG A   1      -6.482  -2.573 125.348  0.00  0.00    +0.016 C 
ENDROOT
BRANCH   1  20
ATOM     19  C   LIG A   1      -8.457   0.672 131.127  0.00  0.00    +0.009 C 
ATOM     20  C   LIG A   1      -7.204  -0.059 130.667  0.00  0.00    +0.032 C 
ENDBRANCH   1  20
TORSDOF 1
ENDMDL
MODEL 8
REMARK VINA RESULT:      -6.7      3.149      3.966
REMARK  Name = NuBBE_2499
REMARK  6 active torsions:
REMARK  status: ('A' for Active; 'I' for Inactive)
REMARK    1  A    between atoms: C_1  and  C_2
REMARK    2  A    between atoms: C_2  and  C_3
REMARK    3  A    between atoms: C_4  and  C_5
REMARK    4  A    between atoms: C_14  and  C_15
REMARK    5  A    between atoms: C_14  and  C_16
REMARK    6  A    between atoms: C_20  and  C_21
REMARK                            x       y       z     vdW  Elec       q    Type
REMARK                         _______ _______ _______ _____ _____    ______ ____
ROOT
ATOM      1  C   LIG A   1      -5.972   1.966 127.564  0.00  0.00    -0.041 A 
ATOM      2  C   LIG A   1      -6.984   2.483 128.408  0.00  0.00    -0.047 A 
ATOM      3  C   LIG A   1      -6.860   3.812 129.104  0.00  0.00    +0.044 C 
ATOM      4  C   LIG A   1      -8.153   1.746 128.606  0.00  0.00    +0.004 A 
ATOM      5  C   LIG A   1      -8.321   0.502 128.005  0.00  0.00    +0.005 A 
ATOM      6  C   LIG A   1      -7.339  -0.056 127.166  0.00  0.00    -0.038 A 
ATOM      7  C   LIG A   1      -6.158   0.693 126.939  0.00  0.00    -0.040 A 
ATOM      8  C   LIG A   1      -5.078   0.087 126.078  0.00  0.00    +0.036 C 
ATOM      9  C   LIG A   1      -5.678  -0.757 124.970  0.00  0.00    +0.009 C 
ATOM     10  C   LIG A   1      -6.449  -1.948 125.555  0.00  0.00    +0.005 C 
ATOM     11  C   LIG A   1      -6.928  -2.935 124.412  0.00  0.00    -0.031 C 
ATOM     12  C   LIG A   1      -5.771  -3.908 124.074  0.00  0.00    +0.011 C 
ATOM     13  C   LIG A   1      -7.313  -2.232 123.088  0.00  0.00    +0.011 C 
ATOM     14  C   LIG A   1      -8.124  -3.780 124.883  0.00  0.00    +0.007 C 
ATOM     15  C   LIG A   1      -9.311  -2.947 125.349  0.00  0.00    +0.001 C 
ATOM     16  C   LIG A   1      -8.950  -1.572 125.910  0.00  0.00    +0.012 C 
ATOM     17  C   LIG A   1      -7.557  -1.483 126.585  0.00  0.00    -0.004 C 
ATOM     18  C   LIG A   1      -7.511  -2.434 127.817  0.00  0.00    +0.016 C 
ENDROOT
BRANCH   1  20
ATOM     19  C   LIG A   1      -4.706   3.582 126.090  0.00  0.00    +0.009 C 
ATOM     20  C   LIG A   1      -4.689   2.760 127.371  0.00  0.00    +0.032 C 
ENDBRANCH   1  20
TORSDOF 1
ENDMDL
MODEL 9
REMARK VINA RESULT:      -6.6      7.951     10.137
REMARK  Name = NuBBE_2499
REMARK  6 active torsions:
REMARK  status: ('A' for Active; 'I' for Inactive)
REMARK    1  A    between atoms: C_1  and  C_2
REMARK    2  A    between atoms: C_2  and  C_3
REMARK    3  A    between atoms: C_4  and  C_5
REMARK    4  A    between atoms: C_14  and  C_15
REMARK    5  A    between atoms: C_14  and  C_16
REMARK    6  A    between atoms: C_20  and  C_21
REMARK                            x       y       z     vdW  Elec       q    Type
REMARK                         _______ _______ _______ _____ _____    ______ ____
ROOT
ATOM      1  C   LIG A   1      -3.829   5.102 129.240  0.00  0.00    -0.041 A 
ATOM      2  C   LIG A   1      -3.419   6.452 129.136  0.00  0.00    -0.047 A 
ATOM      3  C   LIG A   1      -2.241   6.882 128.303  0.00  0.00    +0.044 C 
ATOM      4  C   LIG A   1      -4.130   7.438 129.823  0.00  0.00    +0.004 A 
ATOM      5  C   LIG A   1      -5.218   7.105 130.624  0.00  0.00    +0.005 A 
ATOM      6  C   LIG A   1      -5.656   5.774 130.765  0.00  0.00    -0.038 A 
ATOM      7  C   LIG A   1      -4.956   4.768 130.055  0.00  0.00    -0.040 A 
ATOM      8  C   LIG A   1      -5.386   3.333 130.232  0.00  0.00    +0.036 C 
ATOM      9  C   LIG A   1      -6.888   3.237 130.421  0.00  0.00    +0.009 C 
ATOM     10  C   LIG A   1      -7.318   3.954 131.709  0.00  0.00    +0.005 C 
ATOM     11  C   LIG A   1      -8.853   3.710 132.014  0.00  0.00    -0.031 C 
ATOM     12  C   LIG A   1      -9.007   2.365 132.765  0.00  0.00    +0.011 C 
ATOM     13  C   LIG A   1      -9.742   3.613 130.749  0.00  0.00    +0.011 C 
ATOM     14  C   LIG A   1      -9.415   4.818 132.923  0.00  0.00    +0.007 C 
ATOM     15  C   LIG A   1      -9.238   6.219 132.353  0.00  0.00    +0.001 C 
ATOM     16  C   LIG A   1      -8.034   6.389 131.426  0.00  0.00    +0.012 C 
ATOM     17  C   LIG A   1      -6.831   5.461 131.734  0.00  0.00    -0.004 C 
ATOM     18  C   LIG A   1      -6.279   5.774 133.156  0.00  0.00    +0.016 C 
ENDROOT
BRANCH   1  20
ATOM     19  C   LIG A   1      -3.564   3.772 127.108  0.00  0.00    +0.009 C 
ATOM     20  C   LIG A   1      -3.036   4.027 128.512  0.00  0.00    +0.032 C 
ENDBRANCH   1  20
TORSDOF 1
ENDMDL
