MODEL 1
REMARK VINA RESULT:      -5.2      0.000      0.000
REMARK  Name = NuBBE_309
REMARK  4 active torsions:
REMARK  status: ('A' for Active; 'I' for Inactive)
REMARK    1  A    between atoms: O_1  and  C_2
REMARK    2  A    between atoms: C_2  and  C_3
REMARK    3  A    between atoms: C_3  and  C_5
REMARK    4  A    between atoms: C_3  and  O_11
REMARK                            x       y       z     vdW  Elec       q    Type
REMARK                         _______ _______ _______ _____ _____    ______ ____
ROOT
ATOM      1  C   LIG A   1     -11.023   5.863 131.077  0.00  0.00    +0.170 C 
ENDROOT
BRANCH   1   2
ATOM      2  C   LIG A   1     -11.245   6.690 129.834  0.00  0.00    -0.017 A 
ATOM      3  C   LIG A   1     -10.286   7.625 129.408  0.00  0.00    +0.006 A 
ATOM      4  C   LIG A   1     -10.491   8.376 128.250  0.00  0.00    +0.000 A 
ATOM      5  C   LIG A   1     -11.656   8.205 127.505  0.00  0.00    +0.000 A 
ATOM      6  C   LIG A   1     -12.618   7.286 127.920  0.00  0.00    +0.000 A 
ATOM      7  C   LIG A   1     -12.413   6.532 129.077  0.00  0.00    +0.006 A 
ENDBRANCH   1   2
BRANCH   1   8
ATOM      8  O   LIG A   1     -12.107   6.060 131.999  0.00  0.00    -0.385 OA
ATOM      9  H   LIG A   1     -12.547   6.888 131.735  0.00  0.00    +0.210 HD
ENDBRANCH   1   8
BRANCH   1  10
ATOM     10  C   LIG A   1      -9.710   6.197 131.799  0.00  0.00    +0.192 C 
BRANCH  10  11
ATOM     11  O   LIG A   1      -9.964   6.424 133.188  0.00  0.00    -0.392 OA
ATOM     12  H   LIG A   1      -9.367   5.807 133.656  0.00  0.00    +0.209 HD
ENDBRANCH  10  11
ENDBRANCH   1  10
TORSDOF 4
ENDMDL
MODEL 2
REMARK VINA RESULT:      -5.2      1.387      1.472
REMARK  Name = NuBBE_309
REMARK  4 active torsions:
REMARK  status: ('A' for Active; 'I' for Inactive)
REMARK    1  A    between atoms: O_1  and  C_2
REMARK    2  A    between atoms: C_2  and  C_3
REMARK    3  A    between atoms: C_3  and  C_5
REMARK    4  A    between atoms: C_3  and  O_11
REMARK                            x       y       z     vdW  Elec       q    Type
REMARK                         _______ _______ _______ _____ _____    ______ ____
ROOT
ATOM      1  C   LIG A   1     -11.548   6.129 130.775  0.00  0.00    +0.170 C 
ENDROOT
BRANCH   1   2
ATOM      2  C   LIG A   1     -12.285   7.043 129.826  0.00  0.00    -0.017 A 
ATOM      3  C   LIG A   1     -12.250   8.437 129.992  0.00  0.00    +0.006 A 
ATOM      4  C   LIG A   1     -12.921   9.277 129.102  0.00  0.00    +0.000 A 
ATOM      5  C   LIG A   1     -13.638   8.735 128.038  0.00  0.00    +0.000 A 
ATOM      6  C   LIG A   1     -13.687   7.353 127.865  0.00  0.00    +0.000 A 
ATOM      7  C   LIG A   1     -13.014   6.511 128.753  0.00  0.00    +0.006 A 
ENDBRANCH   1   2
BRANCH   1   8
ATOM      8  O   LIG A   1     -12.202   6.118 132.054  0.00  0.00    -0.385 OA
ATOM      9  H   LIG A   1     -11.755   5.436 132.587  0.00  0.00    +0.210 HD
ENDBRANCH   1   8
BRANCH   1  10
ATOM     10  C   LIG A   1     -10.082   6.532 130.986  0.00  0.00    +0.192 C 
BRANCH  10  11
ATOM     11  O   LIG A   1      -9.768   6.505 132.381  0.00  0.00    -0.392 OA
ATOM     12  H   LIG A   1     -10.035   7.385 132.715  0.00  0.00    +0.209 HD
ENDBRANCH  10  11
ENDBRANCH   1  10
TORSDOF 4
ENDMDL
MODEL 3
REMARK VINA RESULT:      -5.1      2.662      4.368
REMARK  Name = NuBBE_309
REMARK  4 active torsions:
REMARK  status: ('A' for Active; 'I' for Inactive)
REMARK    1  A    between atoms: O_1  and  C_2
REMARK    2  A    between atoms: C_2  and  C_3
REMARK    3  A    between atoms: C_3  and  C_5
REMARK    4  A    between atoms: C_3  and  O_11
REMARK                            x       y       z     vdW  Elec       q    Type
REMARK                         _______ _______ _______ _____ _____    ______ ____
ROOT
ATOM      1  C   LIG A   1     -11.869   8.245 128.127  0.00  0.00    +0.170 C 
ENDROOT
BRANCH   1   2
ATOM      2  C   LIG A   1     -11.402   7.596 129.408  0.00  0.00    -0.017 A 
ATOM      3  C   LIG A   1     -12.323   7.169 130.379  0.00  0.00    +0.006 A 
ATOM      4  C   LIG A   1     -11.884   6.557 131.554  0.00  0.00    +0.000 A 
ATOM      5  C   LIG A   1     -10.522   6.368 131.776  0.00  0.00    +0.000 A 
ATOM      6  C   LIG A   1      -9.597   6.793 130.824  0.00  0.00    +0.000 A 
ATOM      7  C   LIG A   1     -10.034   7.403 129.646  0.00  0.00    +0.006 A 
ENDBRANCH   1   2
BRANCH   1   8
ATOM      8  O   LIG A   1     -12.714   9.368 128.424  0.00  0.00    -0.385 OA
ATOM      9  H   LIG A   1     -13.033   9.241 129.336  0.00  0.00    +0.210 HD
ENDBRANCH   1   8
BRANCH   1  10
ATOM     10  C   LIG A   1     -12.645   7.286 127.213  0.00  0.00    +0.192 C 
BRANCH  10  11
ATOM     11  O   LIG A   1     -11.748   6.664 126.289  0.00  0.00    -0.392 OA
ATOM     12  H   LIG A   1     -10.875   6.692 126.730  0.00  0.00    +0.209 HD
ENDBRANCH  10  11
ENDBRANCH   1  10
TORSDOF 4
ENDMDL
MODEL 4
REMARK VINA RESULT:      -4.9     11.981     12.290
REMARK  Name = NuBBE_309
REMARK  4 active torsions:
REMARK  status: ('A' for Active; 'I' for Inactive)
REMARK    1  A    between atoms: O_1  and  C_2
REMARK    2  A    between atoms: C_2  and  C_3
REMARK    3  A    between atoms: C_3  and  C_5
REMARK    4  A    between atoms: C_3  and  O_11
REMARK                            x       y       z     vdW  Elec       q    Type
REMARK                         _______ _______ _______ _____ _____    ______ ____
ROOT
ATOM      1  C   LIG A   1      -9.142  -3.522 124.430  0.00  0.00    +0.170 C 
ENDROOT
BRANCH   1   2
ATOM      2  C   LIG A   1      -7.750  -3.202 123.939  0.00  0.00    -0.017 A 
ATOM      3  C   LIG A   1      -7.535  -2.188 122.990  0.00  0.00    +0.006 A 
ATOM      4  C   LIG A   1      -6.245  -1.887 122.552  0.00  0.00    +0.000 A 
ATOM      5  C   LIG A   1      -5.155  -2.596 123.053  0.00  0.00    +0.000 A 
ATOM      6  C   LIG A   1      -5.355  -3.608 123.990  0.00  0.00    +0.000 A 
ATOM      7  C   LIG A   1      -6.645  -3.909 124.432  0.00  0.00    +0.006 A 
ENDBRANCH   1   2
BRANCH   1   8
ATOM      8  O   LIG A   1     -10.115  -3.088 123.467  0.00  0.00    -0.385 OA
ATOM      9  H   LIG A   1     -10.831  -3.748 123.480  0.00  0.00    +0.210 HD
ENDBRANCH   1   8
BRANCH   1  10
ATOM     10  C   LIG A   1      -9.472  -2.867 125.779  0.00  0.00    +0.192 C 
BRANCH  10  11
ATOM     11  O   LIG A   1      -9.794  -1.488 125.581  0.00  0.00    -0.392 OA
ATOM     12  H   LIG A   1      -9.826  -1.107 126.482  0.00  0.00    +0.209 HD
ENDBRANCH  10  11
ENDBRANCH   1  10
TORSDOF 4
ENDMDL
MODEL 5
REMARK VINA RESULT:      -4.8      2.778      4.420
REMARK  Name = NuBBE_309
REMARK  4 active torsions:
REMARK  status: ('A' for Active; 'I' for Inactive)
REMARK    1  A    between atoms: O_1  and  C_2
REMARK    2  A    between atoms: C_2  and  C_3
REMARK    3  A    between atoms: C_3  and  C_5
REMARK    4  A    between atoms: C_3  and  O_11
REMARK                            x       y       z     vdW  Elec       q    Type
REMARK                         _______ _______ _______ _____ _____    ______ ____
ROOT
ATOM      1  C   LIG A   1     -12.152   8.500 128.856  0.00  0.00    +0.170 C 
ENDROOT
BRANCH   1   2
ATOM      2  C   LIG A   1     -11.348   7.719 129.867  0.00  0.00    -0.017 A 
ATOM      3  C   LIG A   1     -11.971   7.101 130.965  0.00  0.00    +0.006 A 
ATOM      4  C   LIG A   1     -11.223   6.368 131.887  0.00  0.00    +0.000 A 
ATOM      5  C   LIG A   1      -9.845   6.246 131.727  0.00  0.00    +0.000 A 
ATOM      6  C   LIG A   1      -9.213   6.858 130.647  0.00  0.00    +0.000 A 
ATOM      7  C   LIG A   1      -9.960   7.590 129.721  0.00  0.00    +0.006 A 
ENDBRANCH   1   2
BRANCH   1   8
ATOM      8  O   LIG A   1     -11.289   8.998 127.821  0.00  0.00    -0.385 OA
ATOM      9  H   LIG A   1     -11.699   8.747 126.974  0.00  0.00    +0.210 HD
ENDBRANCH   1   8
BRANCH   1  10
ATOM     10  C   LIG A   1     -12.902   9.690 129.471  0.00  0.00    +0.192 C 
BRANCH  10  11
ATOM     11  O   LIG A   1     -13.689  10.338 128.467  0.00  0.00    -0.392 OA
ATOM     12  H   LIG A   1     -14.516  10.591 128.923  0.00  0.00    +0.209 HD
ENDBRANCH  10  11
ENDBRANCH   1  10
TORSDOF 4
ENDMDL
MODEL 6
REMARK VINA RESULT:      -4.8      1.327      2.120
REMARK  Name = NuBBE_309
REMARK  4 active torsions:
REMARK  status: ('A' for Active; 'I' for Inactive)
REMARK    1  A    between atoms: O_1  and  C_2
REMARK    2  A    between atoms: C_2  and  C_3
REMARK    3  A    between atoms: C_3  and  C_5
REMARK    4  A    between atoms: C_3  and  O_11
REMARK                            x       y       z     vdW  Elec       q    Type
REMARK                         _______ _______ _______ _____ _____    ______ ____
ROOT
ATOM      1  C   LIG A   1      -9.592   6.856 130.776  0.00  0.00    +0.170 C 
ENDROOT
BRANCH   1   2
ATOM      2  C   LIG A   1     -10.731   7.258 129.870  0.00  0.00    -0.017 A 
ATOM      3  C   LIG A   1     -12.046   6.837 130.132  0.00  0.00    +0.006 A 
ATOM      4  C   LIG A   1     -13.096   7.224 129.298  0.00  0.00    +0.000 A 
ATOM      5  C   LIG A   1     -12.846   8.033 128.192  0.00  0.00    +0.000 A 
ATOM      6  C   LIG A   1     -11.546   8.452 127.917  0.00  0.00    +0.000 A 
ATOM      7  C   LIG A   1     -10.494   8.068 128.751  0.00  0.00    +0.006 A 
ENDBRANCH   1   2
BRANCH   1   8
ATOM      8  O   LIG A   1      -8.515   6.308 129.998  0.00  0.00    -0.385 OA
ATOM      9  H   LIG A   1      -7.832   6.026 130.632  0.00  0.00    +0.210 HD
ENDBRANCH   1   8
BRANCH   1  10
ATOM     10  C   LIG A   1      -9.998   5.820 131.833  0.00  0.00    +0.192 C 
BRANCH  10  11
ATOM     11  O   LIG A   1     -10.127   6.455 133.109  0.00  0.00    -0.392 OA
ATOM     12  H   LIG A   1      -9.526   5.958 133.698  0.00  0.00    +0.209 HD
ENDBRANCH  10  11
ENDBRANCH   1  10
TORSDOF 4
ENDMDL
MODEL 7
REMARK VINA RESULT:      -4.8      1.388      1.870
REMARK  Name = NuBBE_309
REMARK  4 active torsions:
REMARK  status: ('A' for Active; 'I' for Inactive)
REMARK    1  A    between atoms: O_1  and  C_2
REMARK    2  A    between atoms: C_2  and  C_3
REMARK    3  A    between atoms: C_3  and  C_5
REMARK    4  A    between atoms: C_3  and  O_11
REMARK                            x       y       z     vdW  Elec       q    Type
REMARK                         _______ _______ _______ _____ _____    ______ ____
ROOT
ATOM      1  C   LIG A   1     -10.752   5.961 131.553  0.00  0.00    +0.170 C 
ENDROOT
BRANCH   1   2
ATOM      2  C   LIG A   1     -11.133   6.965 130.491  0.00  0.00    -0.017 A 
ATOM      3  C   LIG A   1     -10.215   7.352 129.500  0.00  0.00    +0.006 A 
ATOM      4  C   LIG A   1     -10.580   8.269 128.513  0.00  0.00    +0.000 A 
ATOM      5  C   LIG A   1     -11.862   8.812 128.505  0.00  0.00    +0.000 A 
ATOM      6  C   LIG A   1     -12.780   8.442 129.486  0.00  0.00    +0.000 A 
ATOM      7  C   LIG A   1     -12.419   7.523 130.473  0.00  0.00    +0.006 A 
ENDBRANCH   1   2
BRANCH   1   8
ATOM      8  O   LIG A   1      -9.699   6.491 132.375  0.00  0.00    -0.385 OA
ATOM      9  H   LIG A   1      -9.583   7.421 132.110  0.00  0.00    +0.210 HD
ENDBRANCH   1   8
BRANCH   1  10
ATOM     10  C   LIG A   1     -10.282   4.619 130.974  0.00  0.00    +0.192 C 
BRANCH  10  11
ATOM     11  O   LIG A   1     -11.378   3.953 130.342  0.00  0.00    -0.392 OA
ATOM     12  H   LIG A   1     -11.469   4.391 129.472  0.00  0.00    +0.209 HD
ENDBRANCH  10  11
ENDBRANCH   1  10
TORSDOF 4
ENDMDL
MODEL 8
REMARK VINA RESULT:      -4.7     10.426     11.375
REMARK  Name = NuBBE_309
REMARK  4 active torsions:
REMARK  status: ('A' for Active; 'I' for Inactive)
REMARK    1  A    between atoms: O_1  and  C_2
REMARK    2  A    between atoms: C_2  and  C_3
REMARK    3  A    between atoms: C_3  and  C_5
REMARK    4  A    between atoms: C_3  and  O_11
REMARK                            x       y       z     vdW  Elec       q    Type
REMARK                         _______ _______ _______ _____ _____    ______ ____
ROOT
ATOM      1  C   LIG A   1      -8.506  -2.077 124.907  0.00  0.00    +0.170 C 
ENDROOT
BRANCH   1   2
ATOM      2  C   LIG A   1      -8.429  -2.439 126.371  0.00  0.00    -0.017 A 
ATOM      3  C   LIG A   1      -8.979  -3.641 126.847  0.00  0.00    +0.006 A 
ATOM      4  C   LIG A   1      -8.891  -3.976 128.199  0.00  0.00    +0.000 A 
ATOM      5  C   LIG A   1      -8.256  -3.116 129.091  0.00  0.00    +0.000 A 
ATOM      6  C   LIG A   1      -7.711  -1.917 128.633  0.00  0.00    +0.000 A 
ATOM      7  C   LIG A   1      -7.796  -1.581 127.280  0.00  0.00    +0.006 A 
ENDBRANCH   1   2
BRANCH   1   8
ATOM      8  O   LIG A   1      -9.564  -1.130 124.690  0.00  0.00    -0.385 OA
ATOM      9  H   LIG A   1      -9.234  -0.269 125.004  0.00  0.00    +0.210 HD
ENDBRANCH   1   8
BRANCH   1  10
ATOM     10  C   LIG A   1      -8.750  -3.288 123.997  0.00  0.00    +0.192 C 
BRANCH  10  11
ATOM     11  O   LIG A   1     -10.084  -3.247 123.482  0.00  0.00    -0.392 OA
ATOM     12  H   LIG A   1     -10.232  -2.310 123.244  0.00  0.00    +0.209 HD
ENDBRANCH  10  11
ENDBRANCH   1  10
TORSDOF 4
ENDMDL
MODEL 9
REMARK VINA RESULT:      -4.6      1.952      4.198
REMARK  Name = NuBBE_309
REMARK  4 active torsions:
REMARK  status: ('A' for Active; 'I' for Inactive)
REMARK    1  A    between atoms: O_1  and  C_2
REMARK    2  A    between atoms: C_2  and  C_3
REMARK    3  A    between atoms: C_3  and  C_5
REMARK    4  A    between atoms: C_3  and  O_11
REMARK                            x       y       z     vdW  Elec       q    Type
REMARK                         _______ _______ _______ _____ _____    ______ ____
ROOT
ATOM      1  C   LIG A   1     -11.170   6.621 131.128  0.00  0.00    +0.170 C 
ENDROOT
BRANCH   1   2
ATOM      2  C   LIG A   1      -9.720   6.468 131.520  0.00  0.00    -0.017 A 
ATOM      3  C   LIG A   1      -8.694   6.966 130.700  0.00  0.00    +0.006 A 
ATOM      4  C   LIG A   1      -7.357   6.834 131.077  0.00  0.00    +0.000 A 
ATOM      5  C   LIG A   1      -7.028   6.201 132.273  0.00  0.00    +0.000 A 
ATOM      6  C   LIG A   1      -8.036   5.696 133.092  0.00  0.00    +0.000 A 
ATOM      7  C   LIG A   1      -9.375   5.830 132.719  0.00  0.00    +0.006 A 
ENDBRANCH   1   2
BRANCH   1   8
ATOM      8  O   LIG A   1     -12.015   6.015 132.119  0.00  0.00    -0.385 OA
ATOM      9  H   LIG A   1     -11.872   6.511 132.945  0.00  0.00    +0.210 HD
ENDBRANCH   1   8
BRANCH   1  10
ATOM     10  C   LIG A   1     -11.497   5.991 129.766  0.00  0.00    +0.192 C 
BRANCH  10  11
ATOM     11  O   LIG A   1     -11.499   4.566 129.880  0.00  0.00    -0.392 OA
ATOM     12  H   LIG A   1     -11.008   4.379 130.705  0.00  0.00    +0.209 HD
ENDBRANCH  10  11
ENDBRANCH   1  10
TORSDOF 4
ENDMDL
