MODEL 1
REMARK VINA RESULT:      -7.9      0.000      0.000
REMARK  Name = NuBBE_933
REMARK  3 active torsions:
REMARK  status: ('A' for Active; 'I' for Inactive)
REMARK    1  A    between atoms: C_1  and  C_2
REMARK    2  A    between atoms: C_17  and  C_21
REMARK    3  A    between atoms: C_21  and  C_22
REMARK                            x       y       z     vdW  Elec       q    Type
REMARK                         _______ _______ _______ _____ _____    ______ ____
ROOT
ATOM      1  C   LIG A   1      -9.755   1.774 123.087  0.00  0.00    +0.052 C 
ATOM      2  C   LIG A   1      -8.393   2.297 122.825  0.00  0.00    +0.041 C 
ATOM      3  C   LIG A   1      -7.237   2.212 123.484  0.00  0.00    +0.020 C 
ATOM      4  C   LIG A   1      -6.826   1.584 124.743  0.00  0.00    +0.067 A 
ATOM      5  C   LIG A   1      -7.311   0.362 125.233  0.00  0.00    +0.150 A 
ATOM      6  C   LIG A   1      -6.859  -0.184 126.437  0.00  0.00    +0.019 A 
ATOM      7  C   LIG A   1      -5.880   0.490 127.169  0.00  0.00    +0.015 A 
ATOM      8  C   LIG A   1      -5.350   1.685 126.685  0.00  0.00    +0.047 A 
ATOM      9  C   LIG A   1      -5.813   2.228 125.482  0.00  0.00    +0.132 A 
ATOM     10  O   LIG A   1      -5.172   3.383 125.087  0.00  0.00    -0.487 OA
ATOM     11  C   LIG A   1      -5.765   4.065 123.971  0.00  0.00    +0.278 C 
ATOM     12  C   LIG A   1      -6.219   3.102 122.883  0.00  0.00    +0.245 C 
ATOM     13  O   LIG A   1      -6.896   3.762 121.824  0.00  0.00    -0.450 OA
ATOM     14  C   LIG A   1      -8.162   3.263 121.736  0.00  0.00    +0.336 C 
ATOM     15  O   LIG A   1      -8.987   3.604 120.908  0.00  0.00    -0.245 OA
ATOM     16  C   LIG A   1      -7.406  -1.451 126.897  0.00  0.00    +0.022 A 
ATOM     17  C   LIG A   1      -8.323  -2.111 126.173  0.00  0.00    +0.037 A 
ATOM     18  C   LIG A   1      -8.780  -1.580 124.864  0.00  0.00    +0.340 A 
ATOM     19  O   LIG A   1      -9.595  -2.176 124.169  0.00  0.00    -0.245 OA
ATOM     20  O   LIG A   1      -8.238  -0.366 124.457  0.00  0.00    -0.421 OA
ENDROOT
BRANCH  17  21
ATOM     21  C   LIG A   1      -8.902  -3.428 126.613  0.00  0.00    +0.039 C 
ATOM     22  C   LIG A   1      -8.683  -3.688 128.097  0.00  0.00    +0.009 C 
ENDBRANCH  17  21
TORSDOF 1
ENDMDL
MODEL 2
REMARK VINA RESULT:      -7.7      2.301      4.312
REMARK  Name = NuBBE_933
REMARK  3 active torsions:
REMARK  status: ('A' for Active; 'I' for Inactive)
REMARK    1  A    between atoms: C_1  and  C_2
REMARK    2  A    between atoms: C_17  and  C_21
REMARK    3  A    between atoms: C_21  and  C_22
REMARK                            x       y       z     vdW  Elec       q    Type
REMARK                         _______ _______ _______ _____ _____    ______ ____
ROOT
ATOM      1  C   LIG A   1      -6.984   1.858 126.421  0.00  0.00    +0.052 C 
ATOM      2  C   LIG A   1      -8.152   1.647 125.533  0.00  0.00    +0.041 C 
ATOM      3  C   LIG A   1      -8.842   0.564 125.168  0.00  0.00    +0.020 C 
ATOM      4  C   LIG A   1      -8.731  -0.864 125.475  0.00  0.00    +0.067 A 
ATOM      5  C   LIG A   1      -8.357  -1.398 126.716  0.00  0.00    +0.150 A 
ATOM      6  C   LIG A   1      -8.289  -2.776 126.940  0.00  0.00    +0.019 A 
ATOM      7  C   LIG A   1      -8.625  -3.653 125.908  0.00  0.00    +0.015 A 
ATOM      8  C   LIG A   1      -9.041  -3.150 124.675  0.00  0.00    +0.047 A 
ATOM      9  C   LIG A   1      -9.099  -1.770 124.459  0.00  0.00    +0.132 A 
ATOM     10  O   LIG A   1      -9.578  -1.402 123.219  0.00  0.00    -0.487 OA
ATOM     11  C   LIG A   1      -9.452  -0.007 122.902  0.00  0.00    +0.278 C 
ATOM     12  C   LIG A   1      -9.797   0.887 124.085  0.00  0.00    +0.245 C 
ATOM     13  O   LIG A   1      -9.578   2.262 123.807  0.00  0.00    -0.450 OA
ATOM     14  C   LIG A   1      -8.654   2.743 124.686  0.00  0.00    +0.336 C 
ATOM     15  O   LIG A   1      -8.269   3.898 124.726  0.00  0.00    -0.245 OA
ATOM     16  C   LIG A   1      -7.885  -3.269 128.248  0.00  0.00    +0.022 A 
ATOM     17  C   LIG A   1      -7.595  -2.421 129.246  0.00  0.00    +0.037 A 
ATOM     18  C   LIG A   1      -7.712  -0.954 129.051  0.00  0.00    +0.340 A 
ATOM     19  O   LIG A   1      -7.480  -0.158 129.955  0.00  0.00    -0.245 OA
ATOM     20  O   LIG A   1      -8.097  -0.519 127.790  0.00  0.00    -0.421 OA
ENDROOT
BRANCH  17  21
ATOM     21  C   LIG A   1      -7.185  -2.897 130.614  0.00  0.00    +0.039 C 
ATOM     22  C   LIG A   1      -6.113  -3.976 130.552  0.00  0.00    +0.009 C 
ENDBRANCH  17  21
TORSDOF 1
ENDMDL
MODEL 3
REMARK VINA RESULT:      -7.4      2.433      4.698
REMARK  Name = NuBBE_933
REMARK  3 active torsions:
REMARK  status: ('A' for Active; 'I' for Inactive)
REMARK    1  A    between atoms: C_1  and  C_2
REMARK    2  A    between atoms: C_17  and  C_21
REMARK    3  A    between atoms: C_21  and  C_22
REMARK                            x       y       z     vdW  Elec       q    Type
REMARK                         _______ _______ _______ _____ _____    ______ ____
ROOT
ATOM      1  C   LIG A   1      -5.183   0.636 126.355  0.00  0.00    +0.052 C 
ATOM      2  C   LIG A   1      -6.504   0.894 125.734  0.00  0.00    +0.041 C 
ATOM      3  C   LIG A   1      -7.645   0.203 125.686  0.00  0.00    +0.020 C 
ATOM      4  C   LIG A   1      -8.069  -1.099 126.207  0.00  0.00    +0.067 A 
ATOM      5  C   LIG A   1      -7.673  -1.645 127.436  0.00  0.00    +0.150 A 
ATOM      6  C   LIG A   1      -8.133  -2.890 127.875  0.00  0.00    +0.019 A 
ATOM      7  C   LIG A   1      -9.031  -3.605 127.083  0.00  0.00    +0.015 A 
ATOM      8  C   LIG A   1      -9.475  -3.066 125.875  0.00  0.00    +0.047 A 
ATOM      9  C   LIG A   1      -9.003  -1.824 125.440  0.00  0.00    +0.132 A 
ATOM     10  O   LIG A   1      -9.559  -1.379 124.259  0.00  0.00    -0.487 OA
ATOM     11  C   LIG A   1      -8.944  -0.212 123.692  0.00  0.00    +0.278 C 
ATOM     12  C   LIG A   1      -8.602   0.830 124.748  0.00  0.00    +0.245 C 
ATOM     13  O   LIG A   1      -7.903   1.941 124.206  0.00  0.00    -0.450 OA
ATOM     14  C   LIG A   1      -6.687   2.031 124.814  0.00  0.00    +0.336 C 
ATOM     15  O   LIG A   1      -5.860   2.897 124.589  0.00  0.00    -0.245 OA
ATOM     16  C   LIG A   1      -7.679  -3.408 129.157  0.00  0.00    +0.022 A 
ATOM     17  C   LIG A   1      -6.841  -2.701 129.930  0.00  0.00    +0.037 A 
ATOM     18  C   LIG A   1      -6.380  -1.353 129.512  0.00  0.00    +0.340 A 
ATOM     19  O   LIG A   1      -5.636  -0.674 130.211  0.00  0.00    -0.245 OA
ATOM     20  O   LIG A   1      -6.831  -0.891 128.282  0.00  0.00    -0.421 OA
ENDROOT
BRANCH  17  21
ATOM     21  C   LIG A   1      -6.360  -3.202 131.265  0.00  0.00    +0.039 C 
ATOM     22  C   LIG A   1      -7.400  -3.014 132.361  0.00  0.00    +0.009 C 
ENDBRANCH  17  21
TORSDOF 1
ENDMDL
MODEL 4
REMARK VINA RESULT:      -7.1      6.478      8.694
REMARK  Name = NuBBE_933
REMARK  3 active torsions:
REMARK  status: ('A' for Active; 'I' for Inactive)
REMARK    1  A    between atoms: C_1  and  C_2
REMARK    2  A    between atoms: C_17  and  C_21
REMARK    3  A    between atoms: C_21  and  C_22
REMARK                            x       y       z     vdW  Elec       q    Type
REMARK                         _______ _______ _______ _____ _____    ______ ____
ROOT
ATOM      1  C   LIG A   1      -7.248   2.971 128.238  0.00  0.00    +0.052 C 
ATOM      2  C   LIG A   1      -7.888   2.076 129.231  0.00  0.00    +0.041 C 
ATOM      3  C   LIG A   1      -8.550   2.294 130.369  0.00  0.00    +0.020 C 
ATOM      4  C   LIG A   1      -8.909   3.498 131.123  0.00  0.00    +0.067 A 
ATOM      5  C   LIG A   1      -9.277   4.727 130.557  0.00  0.00    +0.150 A 
ATOM      6  C   LIG A   1      -9.623   5.830 131.342  0.00  0.00    +0.019 A 
ATOM      7  C   LIG A   1      -9.627   5.705 132.732  0.00  0.00    +0.015 A 
ATOM      8  C   LIG A   1      -9.307   4.483 133.321  0.00  0.00    +0.047 A 
ATOM      9  C   LIG A   1      -8.955   3.387 132.528  0.00  0.00    +0.132 A 
ATOM     10  O   LIG A   1      -8.713   2.224 133.228  0.00  0.00    -0.487 OA
ATOM     11  C   LIG A   1      -8.154   1.148 132.459  0.00  0.00    +0.278 C 
ATOM     12  C   LIG A   1      -8.801   1.024 131.086  0.00  0.00    +0.245 C 
ATOM     13  O   LIG A   1      -8.184   0.028 130.284  0.00  0.00    -0.450 OA
ATOM     14  C   LIG A   1      -7.689   0.617 129.159  0.00  0.00    +0.336 C 
ATOM     15  O   LIG A   1      -7.124   0.026 128.256  0.00  0.00    -0.245 OA
ATOM     16  C   LIG A   1      -9.987   7.081 130.695  0.00  0.00    +0.022 A 
ATOM     17  C   LIG A   1     -10.013   7.186 129.358  0.00  0.00    +0.037 A 
ATOM     18  C   LIG A   1      -9.703   6.014 128.501  0.00  0.00    +0.340 A 
ATOM     19  O   LIG A   1      -9.747   6.074 127.277  0.00  0.00    -0.245 OA
ATOM     20  O   LIG A   1      -9.357   4.836 129.152  0.00  0.00    -0.421 OA
ENDROOT
BRANCH  17  21
ATOM     21  C   LIG A   1     -10.396   8.461 128.656  0.00  0.00    +0.039 C 
ATOM     22  C   LIG A   1     -11.899   8.703 128.677  0.00  0.00    +0.009 C 
ENDBRANCH  17  21
TORSDOF 1
ENDMDL
MODEL 5
REMARK VINA RESULT:      -7.0      3.299      6.014
REMARK  Name = NuBBE_933
REMARK  3 active torsions:
REMARK  status: ('A' for Active; 'I' for Inactive)
REMARK    1  A    between atoms: C_1  and  C_2
REMARK    2  A    between atoms: C_17  and  C_21
REMARK    3  A    between atoms: C_21  and  C_22
REMARK                            x       y       z     vdW  Elec       q    Type
REMARK                         _______ _______ _______ _____ _____    ______ ____
ROOT
ATOM      1  C   LIG A   1      -8.530   2.103 128.143  0.00  0.00    +0.052 C 
ATOM      2  C   LIG A   1      -7.600   1.533 129.147  0.00  0.00    +0.041 C 
ATOM      3  C   LIG A   1      -7.262   0.285 129.478  0.00  0.00    +0.020 C 
ATOM      4  C   LIG A   1      -7.673  -1.040 129.007  0.00  0.00    +0.067 A 
ATOM      5  C   LIG A   1      -7.974  -1.368 127.677  0.00  0.00    +0.150 A 
ATOM      6  C   LIG A   1      -8.344  -2.661 127.299  0.00  0.00    +0.019 A 
ATOM      7  C   LIG A   1      -8.396  -3.667 128.264  0.00  0.00    +0.015 A 
ATOM      8  C   LIG A   1      -8.062  -3.379 129.587  0.00  0.00    +0.047 A 
ATOM      9  C   LIG A   1      -7.699  -2.081 129.957  0.00  0.00    +0.132 A 
ATOM     10  O   LIG A   1      -7.340  -1.939 131.281  0.00  0.00    -0.487 OA
ATOM     11  C   LIG A   1      -7.164  -0.586 131.729  0.00  0.00    +0.278 C 
ATOM     12  C   LIG A   1      -6.433   0.270 130.704  0.00  0.00    +0.245 C 
ATOM     13  O   LIG A   1      -6.346   1.631 131.098  0.00  0.00    -0.450 OA
ATOM     14  C   LIG A   1      -6.979   2.398 130.165  0.00  0.00    +0.336 C 
ATOM     15  O   LIG A   1      -7.056   3.613 130.201  0.00  0.00    -0.245 OA
ATOM     16  C   LIG A   1      -8.653  -2.937 125.904  0.00  0.00    +0.022 A 
ATOM     17  C   LIG A   1      -8.569  -1.974 124.974  0.00  0.00    +0.037 A 
ATOM     18  C   LIG A   1      -8.125  -0.605 125.340  0.00  0.00    +0.340 A 
ATOM     19  O   LIG A   1      -8.013   0.287 124.506  0.00  0.00    -0.245 OA
ATOM     20  O   LIG A   1      -7.842  -0.377 126.681  0.00  0.00    -0.421 OA
ENDROOT
BRANCH  17  21
ATOM     21  C   LIG A   1      -8.871  -2.227 123.522  0.00  0.00    +0.039 C 
ATOM     22  C   LIG A   1      -9.720  -3.474 123.317  0.00  0.00    +0.009 C 
ENDBRANCH  17  21
TORSDOF 1
ENDMDL
MODEL 6
REMARK VINA RESULT:      -6.7      3.182      4.637
REMARK  Name = NuBBE_933
REMARK  3 active torsions:
REMARK  status: ('A' for Active; 'I' for Inactive)
REMARK    1  A    between atoms: C_1  and  C_2
REMARK    2  A    between atoms: C_17  and  C_21
REMARK    3  A    between atoms: C_21  and  C_22
REMARK                            x       y       z     vdW  Elec       q    Type
REMARK                         _______ _______ _______ _____ _____    ______ ____
ROOT
ATOM      1  C   LIG A   1      -7.943   3.537 125.294  0.00  0.00    +0.052 C 
ATOM      2  C   LIG A   1      -8.524   2.306 124.708  0.00  0.00    +0.041 C 
ATOM      3  C   LIG A   1      -8.656   1.054 125.150  0.00  0.00    +0.020 C 
ATOM      4  C   LIG A   1      -8.271   0.364 126.384  0.00  0.00    +0.067 A 
ATOM      5  C   LIG A   1      -8.303   0.928 127.668  0.00  0.00    +0.150 A 
ATOM      6  C   LIG A   1      -7.936   0.201 128.805  0.00  0.00    +0.019 A 
ATOM      7  C   LIG A   1      -7.547  -1.132 128.668  0.00  0.00    +0.015 A 
ATOM      8  C   LIG A   1      -7.546  -1.730 127.408  0.00  0.00    +0.047 A 
ATOM      9  C   LIG A   1      -7.908  -0.993 126.276  0.00  0.00    +0.132 A 
ATOM     10  O   LIG A   1      -7.918  -1.713 125.100  0.00  0.00    -0.487 OA
ATOM     11  C   LIG A   1      -8.085  -0.936 123.904  0.00  0.00    +0.278 C 
ATOM     12  C   LIG A   1      -9.129   0.159 124.070  0.00  0.00    +0.245 C 
ATOM     13  O   LIG A   1      -9.225   0.994 122.926  0.00  0.00    -0.450 OA
ATOM     14  C   LIG A   1      -8.928   2.273 123.291  0.00  0.00    +0.336 C 
ATOM     15  O   LIG A   1      -8.948   3.233 122.541  0.00  0.00    -0.245 OA
ATOM     16  C   LIG A   1      -7.982   0.844 130.109  0.00  0.00    +0.022 A 
ATOM     17  C   LIG A   1      -8.389   2.115 130.239  0.00  0.00    +0.037 A 
ATOM     18  C   LIG A   1      -8.836   2.892 129.055  0.00  0.00    +0.340 A 
ATOM     19  O   LIG A   1      -9.239   4.046 129.149  0.00  0.00    -0.245 OA
ATOM     20  O   LIG A   1      -8.777   2.248 127.825  0.00  0.00    -0.421 OA
ENDROOT
BRANCH  17  21
ATOM     21  C   LIG A   1      -8.459   2.807 131.574  0.00  0.00    +0.039 C 
ATOM     22  C   LIG A   1      -9.495   2.180 132.496  0.00  0.00    +0.009 C 
ENDBRANCH  17  21
TORSDOF 1
ENDMDL
MODEL 7
REMARK VINA RESULT:      -6.7      3.139      4.929
REMARK  Name = NuBBE_933
REMARK  3 active torsions:
REMARK  status: ('A' for Active; 'I' for Inactive)
REMARK    1  A    between atoms: C_1  and  C_2
REMARK    2  A    between atoms: C_17  and  C_21
REMARK    3  A    between atoms: C_21  and  C_22
REMARK                            x       y       z     vdW  Elec       q    Type
REMARK                         _______ _______ _______ _____ _____    ______ ____
ROOT
ATOM      1  C   LIG A   1      -8.906  -3.408 126.451  0.00  0.00    +0.052 C 
ATOM      2  C   LIG A   1      -8.485  -2.194 125.713  0.00  0.00    +0.041 C 
ATOM      3  C   LIG A   1      -8.188  -0.949 126.091  0.00  0.00    +0.020 C 
ATOM      4  C   LIG A   1      -8.167  -0.254 127.380  0.00  0.00    +0.067 A 
ATOM      5  C   LIG A   1      -7.774  -0.825 128.600  0.00  0.00    +0.150 A 
ATOM      6  C   LIG A   1      -7.764  -0.093 129.791  0.00  0.00    +0.019 A 
ATOM      7  C   LIG A   1      -8.133   1.253 129.769  0.00  0.00    +0.015 A 
ATOM      8  C   LIG A   1      -8.488   1.857 128.563  0.00  0.00    +0.047 A 
ATOM      9  C   LIG A   1      -8.502   1.115 127.378  0.00  0.00    +0.132 A 
ATOM     10  O   LIG A   1      -8.818   1.841 126.249  0.00  0.00    -0.487 OA
ATOM     11  C   LIG A   1      -9.038   1.064 125.061  0.00  0.00    +0.278 C 
ATOM     12  C   LIG A   1      -8.027  -0.065 124.915  0.00  0.00    +0.245 C 
ATOM     13  O   LIG A   1      -8.302  -0.896 123.797  0.00  0.00    -0.450 OA
ATOM     14  C   LIG A   1      -8.518  -2.167 124.240  0.00  0.00    +0.336 C 
ATOM     15  O   LIG A   1      -8.753  -3.123 123.522  0.00  0.00    -0.245 OA
ATOM     16  C   LIG A   1      -7.354  -0.743 131.026  0.00  0.00    +0.022 A 
ATOM     17  C   LIG A   1      -6.968  -2.028 131.035  0.00  0.00    +0.037 A 
ATOM     18  C   LIG A   1      -6.918  -2.812 129.775  0.00  0.00    +0.340 A 
ATOM     19  O   LIG A   1      -6.542  -3.979 129.750  0.00  0.00    -0.245 OA
ATOM     20  O   LIG A   1      -7.318  -2.160 128.616  0.00  0.00    -0.421 OA
ENDROOT
BRANCH  17  21
ATOM     21  C   LIG A   1      -6.528  -2.728 132.292  0.00  0.00    +0.039 C 
ATOM     22  C   LIG A   1      -7.694  -3.031 133.223  0.00  0.00    +0.009 C 
ENDBRANCH  17  21
TORSDOF 1
ENDMDL
MODEL 8
REMARK VINA RESULT:      -6.7      2.472      3.991
REMARK  Name = NuBBE_933
REMARK  3 active torsions:
REMARK  status: ('A' for Active; 'I' for Inactive)
REMARK    1  A    between atoms: C_1  and  C_2
REMARK    2  A    between atoms: C_17  and  C_21
REMARK    3  A    between atoms: C_21  and  C_22
REMARK                            x       y       z     vdW  Elec       q    Type
REMARK                         _______ _______ _______ _____ _____    ______ ____
ROOT
ATOM      1  C   LIG A   1      -5.654   3.101 126.632  0.00  0.00    +0.052 C 
ATOM      2  C   LIG A   1      -6.974   3.013 125.964  0.00  0.00    +0.041 C 
ATOM      3  C   LIG A   1      -7.639   2.017 125.376  0.00  0.00    +0.020 C 
ATOM      4  C   LIG A   1      -7.344   0.603 125.127  0.00  0.00    +0.067 A 
ATOM      5  C   LIG A   1      -6.650  -0.244 126.003  0.00  0.00    +0.150 A 
ATOM      6  C   LIG A   1      -6.420  -1.590 125.704  0.00  0.00    +0.019 A 
ATOM      7  C   LIG A   1      -6.913  -2.119 124.511  0.00  0.00    +0.015 A 
ATOM      8  C   LIG A   1      -7.643  -1.310 123.641  0.00  0.00    +0.047 A 
ATOM      9  C   LIG A   1      -7.862   0.037 123.944  0.00  0.00    +0.132 A 
ATOM     10  O   LIG A   1      -8.643   0.713 123.031  0.00  0.00    -0.487 OA
ATOM     11  C   LIG A   1      -8.709   2.136 123.213  0.00  0.00    +0.278 C 
ATOM     12  C   LIG A   1      -8.842   2.524 124.679  0.00  0.00    +0.245 C 
ATOM     13  O   LIG A   1      -8.806   3.930 124.873  0.00  0.00    -0.450 OA
ATOM     14  C   LIG A   1      -7.746   4.234 125.674  0.00  0.00    +0.336 C 
ATOM     15  O   LIG A   1      -7.458   5.357 126.049  0.00  0.00    -0.245 OA
ATOM     16  C   LIG A   1      -5.685  -2.416 126.650  0.00  0.00    +0.022 A 
ATOM     17  C   LIG A   1      -5.243  -1.910 127.810  0.00  0.00    +0.037 A 
ATOM     18  C   LIG A   1      -5.521  -0.499 128.177  0.00  0.00    +0.340 A 
ATOM     19  O   LIG A   1      -5.152  -0.019 129.243  0.00  0.00    -0.245 OA
ATOM     20  O   LIG A   1      -6.222   0.262 127.249  0.00  0.00    -0.421 OA
ENDROOT
BRANCH  17  21
ATOM     21  C   LIG A   1      -4.489  -2.739 128.816  0.00  0.00    +0.039 C 
ATOM     22  C   LIG A   1      -5.420  -3.504 129.747  0.00  0.00    +0.009 C 
ENDBRANCH  17  21
TORSDOF 1
ENDMDL
MODEL 9
REMARK VINA RESULT:      -6.6      8.268      9.537
REMARK  Name = NuBBE_933
REMARK  3 active torsions:
REMARK  status: ('A' for Active; 'I' for Inactive)
REMARK    1  A    between atoms: C_1  and  C_2
REMARK    2  A    between atoms: C_17  and  C_21
REMARK    3  A    between atoms: C_21  and  C_22
REMARK                            x       y       z     vdW  Elec       q    Type
REMARK                         _______ _______ _______ _____ _____    ______ ____
ROOT
ATOM      1  C   LIG A   1      -5.437   7.451 130.690  0.00  0.00    +0.052 C 
ATOM      2  C   LIG A   1      -5.029   6.034 130.848  0.00  0.00    +0.041 C 
ATOM      3  C   LIG A   1      -5.602   4.974 131.422  0.00  0.00    +0.020 C 
ATOM      4  C   LIG A   1      -6.857   4.764 132.147  0.00  0.00    +0.067 A 
ATOM      5  C   LIG A   1      -8.077   5.387 131.849  0.00  0.00    +0.150 A 
ATOM      6  C   LIG A   1      -9.241   5.123 132.577  0.00  0.00    +0.019 A 
ATOM      7  C   LIG A   1      -9.200   4.196 133.619  0.00  0.00    +0.015 A 
ATOM      8  C   LIG A   1      -8.009   3.530 133.910  0.00  0.00    +0.047 A 
ATOM      9  C   LIG A   1      -6.849   3.806 133.181  0.00  0.00    +0.132 A 
ATOM     10  O   LIG A   1      -5.755   3.043 133.531  0.00  0.00    -0.487 OA
ATOM     11  C   LIG A   1      -4.509   3.448 132.943  0.00  0.00    +0.278 C 
ATOM     12  C   LIG A   1      -4.662   3.832 131.477  0.00  0.00    +0.245 C 
ATOM     13  O   LIG A   1      -3.455   4.330 130.919  0.00  0.00    -0.450 OA
ATOM     14  C   LIG A   1      -3.665   5.606 130.491  0.00  0.00    +0.336 C 
ATOM     15  O   LIG A   1      -2.829   6.300 129.939  0.00  0.00    -0.245 OA
ATOM     16  C   LIG A   1     -10.475   5.808 132.224  0.00  0.00    +0.022 A 
ATOM     17  C   LIG A   1     -10.516   6.674 131.200  0.00  0.00    +0.037 A 
ATOM     18  C   LIG A   1      -9.308   6.931 130.377  0.00  0.00    +0.340 A 
ATOM     19  O   LIG A   1      -9.325   7.696 129.418  0.00  0.00    -0.245 OA
ATOM     20  O   LIG A   1      -8.147   6.262 130.743  0.00  0.00    -0.421 OA
ENDROOT
BRANCH  17  21
ATOM     21  C   LIG A   1     -11.778   7.392 130.802  0.00  0.00    +0.039 C 
ATOM     22  C   LIG A   1     -12.574   6.622 129.757  0.00  0.00    +0.009 C 
ENDBRANCH  17  21
TORSDOF 1
ENDMDL
