MODEL 1
REMARK VINA RESULT:      -7.2      0.000      0.000
REMARK  Name = NuBBE_1836
REMARK  12 active torsions:
REMARK  status: ('A' for Active; 'I' for Inactive)
REMARK    1  A    between atoms: O_1  and  C_2
REMARK    2  A    between atoms: O_1  and  C_3
REMARK    3  A    between atoms: C_6  and  C_23
REMARK    4  A    between atoms: C_8  and  C_11
REMARK    5  A    between atoms: C_13  and  O_14
REMARK    6  A    between atoms: O_14  and  C_15
REMARK    7  A    between atoms: C_16  and  O_21
REMARK    8  A    between atoms: C_17  and  O_19
REMARK    9  A    between atoms: O_19  and  C_20
REMARK   10  A    between atoms: O_21  and  C_22
REMARK   11  A    between atoms: C_25  and  C_27
REMARK   12  A    between atoms: C_28  and  C_29
REMARK                            x       y       z     vdW  Elec       q    Type
REMARK                         _______ _______ _______ _____ _____    ______ ____
ROOT
ATOM      1  C   LIG A   1      -8.412  -0.372 124.208  0.00  0.00    +0.162 A 
ATOM      2  C   LIG A   1      -7.765   0.383 125.178  0.00  0.00    +0.166 A 
ATOM      3  C   LIG A   1      -6.473   0.102 125.585  0.00  0.00    +0.005 A 
ATOM      4  C   LIG A   1      -6.047   1.035 126.660  0.00  0.00    +0.065 C 
ATOM      5  C   LIG A   1      -7.313   1.918 126.781  0.00  0.00    +0.211 C 
ATOM      6  O   LIG A   1      -8.319   1.455 125.832  0.00  0.00    -0.480 OA
ATOM      7  C   LIG A   1      -4.808   1.842 126.287  0.00  0.00    +0.016 C 
ATOM      8  C   LIG A   1      -5.766  -0.951 125.024  0.00  0.00    +0.015 A 
ATOM      9  C   LIG A   1      -6.384  -1.737 124.039  0.00  0.00    -0.021 A 
ATOM     10  C   LIG A   1      -7.693  -1.431 123.629  0.00  0.00    +0.057 A 
ENDROOT
BRANCH   5  11
ATOM     11  C   LIG A   1      -7.900   1.923 128.184  0.00  0.00    +0.000 A 
ATOM     12  C   LIG A   1      -8.694   2.987 128.626  0.00  0.00    +0.057 A 
ATOM     13  C   LIG A   1      -9.315   2.972 129.890  0.00  0.00    +0.166 A 
ATOM     14  C   LIG A   1      -9.102   1.884 130.764  0.00  0.00    +0.203 A 
ATOM     15  C   LIG A   1      -8.275   0.822 130.335  0.00  0.00    +0.166 A 
ATOM     16  C   LIG A   1      -7.691   0.854 129.061  0.00  0.00    +0.057 A 
BRANCH  13  17
ATOM     17  O   LIG A   1     -10.093   4.088 130.077  0.00  0.00    -0.491 OA
ATOM     18  C   LIG A   1      -9.480   5.350 130.295  0.00  0.00    +0.277 C 
ENDBRANCH  13  17
BRANCH  15  19
ATOM     19  O   LIG A   1      -8.145  -0.279 131.145  0.00  0.00    -0.491 OA
ATOM     20  C   LIG A   1      -7.798  -1.505 130.514  0.00  0.00    +0.277 C 
ENDBRANCH  15  19
BRANCH  14  21
ATOM     21  O   LIG A   1      -9.775   1.896 131.960  0.00  0.00    -0.488 OA
ATOM     22  C   LIG A   1      -9.219   2.626 133.045  0.00  0.00    +0.277 C 
ENDBRANCH  14  21
ENDBRANCH   5  11
BRANCH   9  23
ATOM     23  C   LIG A   1      -5.683  -2.861 123.393  0.00  0.00    +0.003 C 
ATOM     24  C   LIG A   1      -4.921  -3.740 124.053  0.00  0.00    -0.030 C 
ATOM     25  C   LIG A   1      -4.206  -4.899 123.425  0.00  0.00    +0.035 C 
ENDBRANCH   9  23
BRANCH   1  26
ATOM     26  O   LIG A   1      -9.702  -0.035 123.910  0.00  0.00    -0.491 OA
ATOM     27  C   LIG A   1      -9.949   0.443 122.592  0.00  0.00    +0.277 C 
ENDBRANCH   1  26
TORSDOF 6
ENDMDL
MODEL 2
REMARK VINA RESULT:      -7.1      0.409      2.510
REMARK  Name = NuBBE_1836
REMARK  12 active torsions:
REMARK  status: ('A' for Active; 'I' for Inactive)
REMARK    1  A    between atoms: O_1  and  C_2
REMARK    2  A    between atoms: O_1  and  C_3
REMARK    3  A    between atoms: C_6  and  C_23
REMARK    4  A    between atoms: C_8  and  C_11
REMARK    5  A    between atoms: C_13  and  O_14
REMARK    6  A    between atoms: O_14  and  C_15
REMARK    7  A    between atoms: C_16  and  O_21
REMARK    8  A    between atoms: C_17  and  O_19
REMARK    9  A    between atoms: O_19  and  C_20
REMARK   10  A    between atoms: O_21  and  C_22
REMARK   11  A    between atoms: C_25  and  C_27
REMARK   12  A    between atoms: C_28  and  C_29
REMARK                            x       y       z     vdW  Elec       q    Type
REMARK                         _______ _______ _______ _____ _____    ______ ____
ROOT
ATOM      1  C   LIG A   1      -8.431  -0.365 124.205  0.00  0.00    +0.162 A 
ATOM      2  C   LIG A   1      -7.783   0.407 125.163  0.00  0.00    +0.166 A 
ATOM      3  C   LIG A   1      -6.485   0.143 125.558  0.00  0.00    +0.005 A 
ATOM      4  C   LIG A   1      -6.059   1.091 126.622  0.00  0.00    +0.065 C 
ATOM      5  C   LIG A   1      -7.334   1.959 126.748  0.00  0.00    +0.211 C 
ATOM      6  O   LIG A   1      -8.344   1.477 125.814  0.00  0.00    -0.480 OA
ATOM      7  C   LIG A   1      -4.833   1.909 126.229  0.00  0.00    +0.016 C 
ATOM      8  C   LIG A   1      -5.771  -0.905 124.999  0.00  0.00    +0.015 A 
ATOM      9  C   LIG A   1      -6.389  -1.707 124.027  0.00  0.00    -0.021 A 
ATOM     10  C   LIG A   1      -7.705  -1.420 123.627  0.00  0.00    +0.057 A 
ENDROOT
BRANCH   5  11
ATOM     11  C   LIG A   1      -7.907   1.969 128.157  0.00  0.00    +0.000 A 
ATOM     12  C   LIG A   1      -7.895   0.814 128.945  0.00  0.00    +0.057 A 
ATOM     13  C   LIG A   1      -8.344   0.824 130.280  0.00  0.00    +0.166 A 
ATOM     14  C   LIG A   1      -8.867   2.011 130.837  0.00  0.00    +0.203 A 
ATOM     15  C   LIG A   1      -8.911   3.174 130.034  0.00  0.00    +0.166 A 
ATOM     16  C   LIG A   1      -8.433   3.139 128.716  0.00  0.00    +0.057 A 
BRANCH  13  17
ATOM     17  O   LIG A   1      -8.176  -0.404 130.873  0.00  0.00    -0.491 OA
ATOM     18  C   LIG A   1      -7.656  -1.488 130.118  0.00  0.00    +0.277 C 
ENDBRANCH  13  17
BRANCH  15  19
ATOM     19  O   LIG A   1      -9.331   4.351 130.603  0.00  0.00    -0.491 OA
ATOM     20  C   LIG A   1      -8.362   5.385 130.730  0.00  0.00    +0.277 C 
ENDBRANCH  15  19
BRANCH  14  21
ATOM     21  O   LIG A   1      -9.238   1.978 132.157  0.00  0.00    -0.488 OA
ATOM     22  C   LIG A   1      -8.288   2.367 133.140  0.00  0.00    +0.277 C 
ENDBRANCH  14  21
ENDBRANCH   5  11
BRANCH   9  23
ATOM     23  C   LIG A   1      -5.681  -2.827 123.383  0.00  0.00    +0.003 C 
ATOM     24  C   LIG A   1      -4.927  -3.711 124.047  0.00  0.00    -0.030 C 
ATOM     25  C   LIG A   1      -4.205  -4.866 123.421  0.00  0.00    +0.035 C 
ENDBRANCH   9  23
BRANCH   1  26
ATOM     26  O   LIG A   1      -9.728  -0.045 123.917  0.00  0.00    -0.491 OA
ATOM     27  C   LIG A   1      -9.950   0.719 122.736  0.00  0.00    +0.277 C 
ENDBRANCH   1  26
TORSDOF 6
ENDMDL
MODEL 3
REMARK VINA RESULT:      -6.9      2.904      4.792
REMARK  Name = NuBBE_1836
REMARK  12 active torsions:
REMARK  status: ('A' for Active; 'I' for Inactive)
REMARK    1  A    between atoms: O_1  and  C_2
REMARK    2  A    between atoms: O_1  and  C_3
REMARK    3  A    between atoms: C_6  and  C_23
REMARK    4  A    between atoms: C_8  and  C_11
REMARK    5  A    between atoms: C_13  and  O_14
REMARK    6  A    between atoms: O_14  and  C_15
REMARK    7  A    between atoms: C_16  and  O_21
REMARK    8  A    between atoms: C_17  and  O_19
REMARK    9  A    between atoms: O_19  and  C_20
REMARK   10  A    between atoms: O_21  and  C_22
REMARK   11  A    between atoms: C_25  and  C_27
REMARK   12  A    between atoms: C_28  and  C_29
REMARK                            x       y       z     vdW  Elec       q    Type
REMARK                         _______ _______ _______ _____ _____    ______ ____
ROOT
ATOM      1  C   LIG A   1      -8.843   2.272 123.649  0.00  0.00    +0.162 A 
ATOM      2  C   LIG A   1      -8.353   2.221 124.948  0.00  0.00    +0.166 A 
ATOM      3  C   LIG A   1      -7.086   2.670 125.270  0.00  0.00    +0.005 A 
ATOM      4  C   LIG A   1      -6.806   2.457 126.714  0.00  0.00    +0.065 C 
ATOM      5  C   LIG A   1      -8.146   1.830 127.169  0.00  0.00    +0.211 C 
ATOM      6  O   LIG A   1      -9.045   1.725 126.025  0.00  0.00    -0.480 OA
ATOM      7  C   LIG A   1      -6.489   3.752 127.454  0.00  0.00    +0.016 C 
ATOM      8  C   LIG A   1      -6.253   3.203 124.298  0.00  0.00    +0.015 A 
ATOM      9  C   LIG A   1      -6.712   3.273 122.974  0.00  0.00    -0.021 A 
ATOM     10  C   LIG A   1      -8.006   2.824 122.664  0.00  0.00    +0.057 A 
ENDROOT
BRANCH   5  11
ATOM     11  C   LIG A   1      -7.974   0.460 127.808  0.00  0.00    +0.000 A 
ATOM     12  C   LIG A   1      -7.747   0.334 129.183  0.00  0.00    +0.057 A 
ATOM     13  C   LIG A   1      -7.669  -0.927 129.807  0.00  0.00    +0.166 A 
ATOM     14  C   LIG A   1      -7.773  -2.102 129.032  0.00  0.00    +0.203 A 
ATOM     15  C   LIG A   1      -7.971  -1.979 127.638  0.00  0.00    +0.166 A 
ATOM     16  C   LIG A   1      -8.070  -0.710 127.049  0.00  0.00    +0.057 A 
BRANCH  13  17
ATOM     17  O   LIG A   1      -7.507  -0.802 131.165  0.00  0.00    -0.491 OA
ATOM     18  C   LIG A   1      -8.544  -0.235 131.952  0.00  0.00    +0.277 C 
ENDBRANCH  13  17
BRANCH  15  19
ATOM     19  O   LIG A   1      -8.167  -3.119 126.899  0.00  0.00    -0.491 OA
ATOM     20  C   LIG A   1      -8.717  -2.955 125.597  0.00  0.00    +0.277 C 
ENDBRANCH  15  19
BRANCH  14  21
ATOM     21  O   LIG A   1      -7.745  -3.301 129.699  0.00  0.00    -0.488 OA
ATOM     22  C   LIG A   1      -6.484  -3.904 129.958  0.00  0.00    +0.277 C 
ENDBRANCH  14  21
ENDBRANCH   5  11
BRANCH   9  23
ATOM     23  C   LIG A   1      -5.882   3.841 121.897  0.00  0.00    +0.003 C 
ATOM     24  C   LIG A   1      -6.369   4.262 120.724  0.00  0.00    -0.030 C 
ATOM     25  C   LIG A   1      -5.551   4.854 119.616  0.00  0.00    +0.035 C 
ENDBRANCH   9  23
BRANCH   1  26
ATOM     26  O   LIG A   1     -10.093   1.764 123.431  0.00  0.00    -0.491 OA
ATOM     27  C   LIG A   1     -10.182   0.635 122.568  0.00  0.00    +0.277 C 
ENDBRANCH   1  26
TORSDOF 6
ENDMDL
MODEL 4
REMARK VINA RESULT:      -6.9      3.010      4.576
REMARK  Name = NuBBE_1836
REMARK  12 active torsions:
REMARK  status: ('A' for Active; 'I' for Inactive)
REMARK    1  A    between atoms: O_1  and  C_2
REMARK    2  A    between atoms: O_1  and  C_3
REMARK    3  A    between atoms: C_6  and  C_23
REMARK    4  A    between atoms: C_8  and  C_11
REMARK    5  A    between atoms: C_13  and  O_14
REMARK    6  A    between atoms: O_14  and  C_15
REMARK    7  A    between atoms: C_16  and  O_21
REMARK    8  A    between atoms: C_17  and  O_19
REMARK    9  A    between atoms: O_19  and  C_20
REMARK   10  A    between atoms: O_21  and  C_22
REMARK   11  A    between atoms: C_25  and  C_27
REMARK   12  A    between atoms: C_28  and  C_29
REMARK                            x       y       z     vdW  Elec       q    Type
REMARK                         _______ _______ _______ _____ _____    ______ ____
ROOT
ATOM      1  C   LIG A   1      -7.306  -1.267 126.977  0.00  0.00    +0.162 A 
ATOM      2  C   LIG A   1      -7.108  -0.022 126.392  0.00  0.00    +0.166 A 
ATOM      3  C   LIG A   1      -6.534   0.115 125.141  0.00  0.00    +0.005 A 
ATOM      4  C   LIG A   1      -6.402   1.551 124.781  0.00  0.00    +0.065 C 
ATOM      5  C   LIG A   1      -7.024   2.212 126.035  0.00  0.00    +0.211 C 
ATOM      6  O   LIG A   1      -7.437   1.176 126.974  0.00  0.00    -0.480 OA
ATOM      7  C   LIG A   1      -7.150   1.912 123.502  0.00  0.00    +0.016 C 
ATOM      8  C   LIG A   1      -6.142  -0.998 124.413  0.00  0.00    +0.015 A 
ATOM      9  C   LIG A   1      -6.327  -2.273 124.969  0.00  0.00    -0.021 A 
ATOM     10  C   LIG A   1      -6.921  -2.397 126.236  0.00  0.00    +0.057 A 
ENDROOT
BRANCH   5  11
ATOM     11  C   LIG A   1      -6.075   3.179 126.728  0.00  0.00    +0.000 A 
ATOM     12  C   LIG A   1      -6.496   3.933 127.828  0.00  0.00    +0.057 A 
ATOM     13  C   LIG A   1      -5.610   4.769 128.534  0.00  0.00    +0.166 A 
ATOM     14  C   LIG A   1      -4.272   4.898 128.105  0.00  0.00    +0.203 A 
ATOM     15  C   LIG A   1      -3.849   4.162 126.974  0.00  0.00    +0.166 A 
ATOM     16  C   LIG A   1      -4.748   3.318 126.306  0.00  0.00    +0.057 A 
BRANCH  13  17
ATOM     17  O   LIG A   1      -6.229   5.356 129.611  0.00  0.00    -0.491 OA
ATOM     18  C   LIG A   1      -6.340   4.647 130.836  0.00  0.00    +0.277 C 
ENDBRANCH  13  17
BRANCH  15  19
ATOM     19  O   LIG A   1      -2.526   4.212 126.613  0.00  0.00    -0.491 OA
ATOM     20  C   LIG A   1      -1.760   3.030 126.810  0.00  0.00    +0.277 C 
ENDBRANCH  15  19
BRANCH  14  21
ATOM     21  O   LIG A   1      -3.440   5.683 128.862  0.00  0.00    -0.488 OA
ATOM     22  C   LIG A   1      -3.308   7.057 128.523  0.00  0.00    +0.277 C 
ENDBRANCH  14  21
ENDBRANCH   5  11
BRANCH   9  23
ATOM     23  C   LIG A   1      -5.946  -3.497 124.242  0.00  0.00    +0.003 C 
ATOM     24  C   LIG A   1      -4.680  -3.850 123.991  0.00  0.00    -0.030 C 
ATOM     25  C   LIG A   1      -4.261  -5.092 123.264  0.00  0.00    +0.035 C 
ENDBRANCH   9  23
BRANCH   1  26
ATOM     26  O   LIG A   1      -7.842  -1.290 128.234  0.00  0.00    -0.491 OA
ATOM     27  C   LIG A   1      -7.910  -2.558 128.876  0.00  0.00    +0.277 C 
ENDBRANCH   1  26
TORSDOF 6
ENDMDL
MODEL 5
REMARK VINA RESULT:      -6.8      4.257      8.131
REMARK  Name = NuBBE_1836
REMARK  12 active torsions:
REMARK  status: ('A' for Active; 'I' for Inactive)
REMARK    1  A    between atoms: O_1  and  C_2
REMARK    2  A    between atoms: O_1  and  C_3
REMARK    3  A    between atoms: C_6  and  C_23
REMARK    4  A    between atoms: C_8  and  C_11
REMARK    5  A    between atoms: C_13  and  O_14
REMARK    6  A    between atoms: O_14  and  C_15
REMARK    7  A    between atoms: C_16  and  O_21
REMARK    8  A    between atoms: C_17  and  O_19
REMARK    9  A    between atoms: O_19  and  C_20
REMARK   10  A    between atoms: O_21  and  C_22
REMARK   11  A    between atoms: C_25  and  C_27
REMARK   12  A    between atoms: C_28  and  C_29
REMARK                            x       y       z     vdW  Elec       q    Type
REMARK                         _______ _______ _______ _____ _____    ______ ____
ROOT
ATOM      1  C   LIG A   1      -4.466   2.929 130.592  0.00  0.00    +0.162 A 
ATOM      2  C   LIG A   1      -4.232   2.979 129.222  0.00  0.00    +0.166 A 
ATOM      3  C   LIG A   1      -3.412   3.937 128.655  0.00  0.00    +0.005 A 
ATOM      4  C   LIG A   1      -3.375   3.786 127.177  0.00  0.00    +0.065 C 
ATOM      5  C   LIG A   1      -4.298   2.556 126.999  0.00  0.00    +0.211 C 
ATOM      6  O   LIG A   1      -4.778   2.118 128.305  0.00  0.00    -0.480 OA
ATOM      7  C   LIG A   1      -1.969   3.540 126.641  0.00  0.00    +0.016 C 
ATOM      8  C   LIG A   1      -2.779   4.887 129.442  0.00  0.00    +0.015 A 
ATOM      9  C   LIG A   1      -2.989   4.869 130.830  0.00  0.00    -0.021 A 
ATOM     10  C   LIG A   1      -3.815   3.882 131.393  0.00  0.00    +0.057 A 
ENDROOT
BRANCH   5  11
ATOM     11  C   LIG A   1      -5.484   2.830 126.086  0.00  0.00    +0.000 A 
ATOM     12  C   LIG A   1      -5.322   3.543 124.894  0.00  0.00    +0.057 A 
ATOM     13  C   LIG A   1      -6.389   3.735 123.996  0.00  0.00    +0.166 A 
ATOM     14  C   LIG A   1      -7.673   3.243 124.315  0.00  0.00    +0.203 A 
ATOM     15  C   LIG A   1      -7.850   2.549 125.533  0.00  0.00    +0.166 A 
ATOM     16  C   LIG A   1      -6.761   2.352 126.396  0.00  0.00    +0.057 A 
BRANCH  13  17
ATOM     17  O   LIG A   1      -5.979   4.405 122.869  0.00  0.00    -0.491 OA
ATOM     18  C   LIG A   1      -5.611   3.675 121.707  0.00  0.00    +0.277 C 
ENDBRANCH  13  17
BRANCH  15  19
ATOM     19  O   LIG A   1      -9.074   1.988 125.800  0.00  0.00    -0.491 OA
ATOM     20  C   LIG A   1      -9.094   0.595 126.087  0.00  0.00    +0.277 C 
ENDBRANCH  15  19
BRANCH  14  21
ATOM     21  O   LIG A   1      -8.662   3.410 123.379  0.00  0.00    -0.488 OA
ATOM     22  C   LIG A   1      -8.985   2.317 122.529  0.00  0.00    +0.277 C 
ENDBRANCH  14  21
ENDBRANCH   5  11
BRANCH   9  23
ATOM     23  C   LIG A   1      -2.335   5.841 131.723  0.00  0.00    +0.003 C 
ATOM     24  C   LIG A   1      -1.048   5.773 132.084  0.00  0.00    -0.030 C 
ATOM     25  C   LIG A   1      -0.354   6.752 132.982  0.00  0.00    +0.035 C 
ENDBRANCH   9  23
BRANCH   1  26
ATOM     26  O   LIG A   1      -5.325   1.968 131.045  0.00  0.00    -0.491 OA
ATOM     27  C   LIG A   1      -4.771   0.961 131.885  0.00  0.00    +0.277 C 
ENDBRANCH   1  26
TORSDOF 6
ENDMDL
MODEL 6
REMARK VINA RESULT:      -6.7      4.217      8.373
REMARK  Name = NuBBE_1836
REMARK  12 active torsions:
REMARK  status: ('A' for Active; 'I' for Inactive)
REMARK    1  A    between atoms: O_1  and  C_2
REMARK    2  A    between atoms: O_1  and  C_3
REMARK    3  A    between atoms: C_6  and  C_23
REMARK    4  A    between atoms: C_8  and  C_11
REMARK    5  A    between atoms: C_13  and  O_14
REMARK    6  A    between atoms: O_14  and  C_15
REMARK    7  A    between atoms: C_16  and  O_21
REMARK    8  A    between atoms: C_17  and  O_19
REMARK    9  A    between atoms: O_19  and  C_20
REMARK   10  A    between atoms: O_21  and  C_22
REMARK   11  A    between atoms: C_25  and  C_27
REMARK   12  A    between atoms: C_28  and  C_29
REMARK                            x       y       z     vdW  Elec       q    Type
REMARK                         _______ _______ _______ _____ _____    ______ ____
ROOT
ATOM      1  C   LIG A   1      -4.357   3.698 130.413  0.00  0.00    +0.162 A 
ATOM      2  C   LIG A   1      -4.138   3.407 129.072  0.00  0.00    +0.166 A 
ATOM      3  C   LIG A   1      -3.262   4.144 128.296  0.00  0.00    +0.005 A 
ATOM      4  C   LIG A   1      -3.256   3.645 126.896  0.00  0.00    +0.065 C 
ATOM      5  C   LIG A   1      -4.265   2.477 127.011  0.00  0.00    +0.211 C 
ATOM      6  O   LIG A   1      -4.756   2.395 128.382  0.00  0.00    -0.480 OA
ATOM      7  C   LIG A   1      -1.878   3.181 126.439  0.00  0.00    +0.016 C 
ATOM      8  C   LIG A   1      -2.553   5.205 128.839  0.00  0.00    +0.015 A 
ATOM      9  C   LIG A   1      -2.744   5.530 130.191  0.00  0.00    -0.021 A 
ATOM     10  C   LIG A   1      -3.630   4.765 130.969  0.00  0.00    +0.057 A 
ENDROOT
BRANCH   5  11
ATOM     11  C   LIG A   1      -5.441   2.612 126.056  0.00  0.00    +0.000 A 
ATOM     12  C   LIG A   1      -6.710   2.141 126.408  0.00  0.00    +0.057 A 
ATOM     13  C   LIG A   1      -7.828   2.332 125.573  0.00  0.00    +0.166 A 
ATOM     14  C   LIG A   1      -7.672   2.971 124.325  0.00  0.00    +0.203 A 
ATOM     15  C   LIG A   1      -6.386   3.420 123.950  0.00  0.00    +0.166 A 
ATOM     16  C   LIG A   1      -5.296   3.238 124.814  0.00  0.00    +0.057 A 
BRANCH  13  17
ATOM     17  O   LIG A   1      -8.974   1.845 126.155  0.00  0.00    -0.491 OA
ATOM     18  C   LIG A   1      -9.290   0.465 126.047  0.00  0.00    +0.277 C 
ENDBRANCH  13  17
BRANCH  15  19
ATOM     19  O   LIG A   1      -6.250   4.125 122.780  0.00  0.00    -0.491 OA
ATOM     20  C   LIG A   1      -4.941   4.569 122.443  0.00  0.00    +0.277 C 
ENDBRANCH  15  19
BRANCH  14  21
ATOM     21  O   LIG A   1      -8.804   3.179 123.578  0.00  0.00    -0.488 OA
ATOM     22  C   LIG A   1      -9.184   2.189 122.631  0.00  0.00    +0.277 C 
ENDBRANCH  14  21
ENDBRANCH   5  11
BRANCH   9  23
ATOM     23  C   LIG A   1      -2.012   6.636 130.832  0.00  0.00    +0.003 C 
ATOM     24  C   LIG A   1      -1.918   6.798 132.156  0.00  0.00    -0.030 C 
ATOM     25  C   LIG A   1      -1.171   7.906 132.836  0.00  0.00    +0.035 C 
ENDBRANCH   9  23
BRANCH   1  26
ATOM     26  O   LIG A   1      -5.275   2.935 131.078  0.00  0.00    -0.491 OA
ATOM     27  C   LIG A   1      -5.909   3.534 132.203  0.00  0.00    +0.277 C 
ENDBRANCH   1  26
TORSDOF 6
ENDMDL
MODEL 7
REMARK VINA RESULT:      -6.6      2.858      4.954
REMARK  Name = NuBBE_1836
REMARK  12 active torsions:
REMARK  status: ('A' for Active; 'I' for Inactive)
REMARK    1  A    between atoms: O_1  and  C_2
REMARK    2  A    between atoms: O_1  and  C_3
REMARK    3  A    between atoms: C_6  and  C_23
REMARK    4  A    between atoms: C_8  and  C_11
REMARK    5  A    between atoms: C_13  and  O_14
REMARK    6  A    between atoms: O_14  and  C_15
REMARK    7  A    between atoms: C_16  and  O_21
REMARK    8  A    between atoms: C_17  and  O_19
REMARK    9  A    between atoms: O_19  and  C_20
REMARK   10  A    between atoms: O_21  and  C_22
REMARK   11  A    between atoms: C_25  and  C_27
REMARK   12  A    between atoms: C_28  and  C_29
REMARK                            x       y       z     vdW  Elec       q    Type
REMARK                         _______ _______ _______ _____ _____    ______ ____
ROOT
ATOM      1  C   LIG A   1      -8.823   2.199 123.776  0.00  0.00    +0.162 A 
ATOM      2  C   LIG A   1      -8.360   2.194 125.086  0.00  0.00    +0.166 A 
ATOM      3  C   LIG A   1      -7.116   2.694 125.425  0.00  0.00    +0.005 A 
ATOM      4  C   LIG A   1      -6.860   2.523 126.879  0.00  0.00    +0.065 C 
ATOM      5  C   LIG A   1      -8.187   1.859 127.319  0.00  0.00    +0.211 C 
ATOM      6  O   LIG A   1      -9.056   1.697 126.159  0.00  0.00    -0.480 OA
ATOM      7  C   LIG A   1      -6.606   3.845 127.595  0.00  0.00    +0.016 C 
ATOM      8  C   LIG A   1      -6.282   3.235 124.458  0.00  0.00    +0.015 A 
ATOM      9  C   LIG A   1      -6.714   3.261 123.123  0.00  0.00    -0.021 A 
ATOM     10  C   LIG A   1      -7.985   2.758 122.797  0.00  0.00    +0.057 A 
ENDROOT
BRANCH   5  11
ATOM     11  C   LIG A   1      -7.981   0.510 127.993  0.00  0.00    +0.000 A 
ATOM     12  C   LIG A   1      -7.876  -0.662 127.236  0.00  0.00    +0.057 A 
ATOM     13  C   LIG A   1      -7.601  -1.907 127.835  0.00  0.00    +0.166 A 
ATOM     14  C   LIG A   1      -7.473  -1.999 129.238  0.00  0.00    +0.203 A 
ATOM     15  C   LIG A   1      -7.610  -0.823 130.010  0.00  0.00    +0.166 A 
ATOM     16  C   LIG A   1      -7.858   0.407 129.382  0.00  0.00    +0.057 A 
BRANCH  13  17
ATOM     17  O   LIG A   1      -7.480  -2.898 126.892  0.00  0.00    -0.491 OA
ATOM     18  C   LIG A   1      -7.148  -2.563 125.553  0.00  0.00    +0.277 C 
ENDBRANCH  13  17
BRANCH  15  19
ATOM     19  O   LIG A   1      -7.391  -0.895 131.363  0.00  0.00    -0.491 OA
ATOM     20  C   LIG A   1      -6.128  -0.441 131.835  0.00  0.00    +0.277 C 
ENDBRANCH  15  19
BRANCH  14  21
ATOM     21  O   LIG A   1      -7.151  -3.225 129.761  0.00  0.00    -0.488 OA
ATOM     22  C   LIG A   1      -5.779  -3.588 129.846  0.00  0.00    +0.277 C 
ENDBRANCH  14  21
ENDBRANCH   5  11
BRANCH   9  23
ATOM     23  C   LIG A   1      -5.882   3.834 122.052  0.00  0.00    +0.003 C 
ATOM     24  C   LIG A   1      -6.358   4.208 120.858  0.00  0.00    -0.030 C 
ATOM     25  C   LIG A   1      -5.538   4.805 119.754  0.00  0.00    +0.035 C 
ENDBRANCH   9  23
BRANCH   1  26
ATOM     26  O   LIG A   1     -10.049   1.642 123.544  0.00  0.00    -0.491 OA
ATOM     27  C   LIG A   1     -10.136   0.714 122.467  0.00  0.00    +0.277 C 
ENDBRANCH   1  26
TORSDOF 6
ENDMDL
MODEL 8
REMARK VINA RESULT:      -6.5      2.594      4.291
REMARK  Name = NuBBE_1836
REMARK  12 active torsions:
REMARK  status: ('A' for Active; 'I' for Inactive)
REMARK    1  A    between atoms: O_1  and  C_2
REMARK    2  A    between atoms: O_1  and  C_3
REMARK    3  A    between atoms: C_6  and  C_23
REMARK    4  A    between atoms: C_8  and  C_11
REMARK    5  A    between atoms: C_13  and  O_14
REMARK    6  A    between atoms: O_14  and  C_15
REMARK    7  A    between atoms: C_16  and  O_21
REMARK    8  A    between atoms: C_17  and  O_19
REMARK    9  A    between atoms: O_19  and  C_20
REMARK   10  A    between atoms: O_21  and  C_22
REMARK   11  A    between atoms: C_25  and  C_27
REMARK   12  A    between atoms: C_28  and  C_29
REMARK                            x       y       z     vdW  Elec       q    Type
REMARK                         _______ _______ _______ _____ _____    ______ ____
ROOT
ATOM      1  C   LIG A   1      -7.467   2.435 125.111  0.00  0.00    +0.162 A 
ATOM      2  C   LIG A   1      -7.554   2.316 126.494  0.00  0.00    +0.166 A 
ATOM      3  C   LIG A   1      -8.138   1.217 127.098  0.00  0.00    +0.005 A 
ATOM      4  C   LIG A   1      -8.136   1.370 128.576  0.00  0.00    +0.065 C 
ATOM      5  C   LIG A   1      -7.426   2.739 128.714  0.00  0.00    +0.211 C 
ATOM      6  O   LIG A   1      -7.097   3.250 127.389  0.00  0.00    -0.480 OA
ATOM      7  C   LIG A   1      -7.384   0.250 129.287  0.00  0.00    +0.016 C 
ATOM      8  C   LIG A   1      -8.653   0.178 126.337  0.00  0.00    +0.015 A 
ATOM      9  C   LIG A   1      -8.582   0.260 124.938  0.00  0.00    -0.021 A 
ATOM     10  C   LIG A   1      -7.976   1.378 124.339  0.00  0.00    +0.057 A 
ENDROOT
BRANCH   5  11
ATOM     11  C   LIG A   1      -8.261   3.767 129.463  0.00  0.00    +0.000 A 
ATOM     12  C   LIG A   1      -8.641   3.552 130.792  0.00  0.00    +0.057 A 
ATOM     13  C   LIG A   1      -9.341   4.527 131.529  0.00  0.00    +0.166 A 
ATOM     14  C   LIG A   1      -9.718   5.739 130.910  0.00  0.00    +0.203 A 
ATOM     15  C   LIG A   1      -9.364   5.948 129.557  0.00  0.00    +0.166 A 
ATOM     16  C   LIG A   1      -8.644   4.968 128.858  0.00  0.00    +0.057 A 
BRANCH  13  17
ATOM     17  O   LIG A   1      -9.547   4.122 132.825  0.00  0.00    -0.491 OA
ATOM     18  C   LIG A   1      -9.199   2.802 133.216  0.00  0.00    +0.277 C 
ENDBRANCH  13  17
BRANCH  15  19
ATOM     19  O   LIG A   1      -9.645   7.163 128.984  0.00  0.00    -0.491 OA
ATOM     20  C   LIG A   1     -10.783   7.224 128.131  0.00  0.00    +0.277 C 
ENDBRANCH  15  19
BRANCH  14  21
ATOM     21  O   LIG A   1     -10.349   6.675 131.689  0.00  0.00    -0.488 OA
ATOM     22  C   LIG A   1     -11.766   6.631 131.790  0.00  0.00    +0.277 C 
ENDBRANCH  14  21
ENDBRANCH   5  11
BRANCH   9  23
ATOM     23  C   LIG A   1      -9.097  -0.815 124.073  0.00  0.00    +0.003 C 
ATOM     24  C   LIG A   1      -8.879  -2.117 124.293  0.00  0.00    -0.030 C 
ATOM     25  C   LIG A   1      -9.399  -3.233 123.437  0.00  0.00    +0.035 C 
ENDBRANCH   9  23
BRANCH   1  26
ATOM     26  O   LIG A   1      -6.909   3.580 124.617  0.00  0.00    -0.491 OA
ATOM     27  C   LIG A   1      -6.360   3.508 123.305  0.00  0.00    +0.277 C 
ENDBRANCH   1  26
TORSDOF 6
ENDMDL
MODEL 9
REMARK VINA RESULT:      -6.5      4.701      5.673
REMARK  Name = NuBBE_1836
REMARK  12 active torsions:
REMARK  status: ('A' for Active; 'I' for Inactive)
REMARK    1  A    between atoms: O_1  and  C_2
REMARK    2  A    between atoms: O_1  and  C_3
REMARK    3  A    between atoms: C_6  and  C_23
REMARK    4  A    between atoms: C_8  and  C_11
REMARK    5  A    between atoms: C_13  and  O_14
REMARK    6  A    between atoms: O_14  and  C_15
REMARK    7  A    between atoms: C_16  and  O_21
REMARK    8  A    between atoms: C_17  and  O_19
REMARK    9  A    between atoms: O_19  and  C_20
REMARK   10  A    between atoms: O_21  and  C_22
REMARK   11  A    between atoms: C_25  and  C_27
REMARK   12  A    between atoms: C_28  and  C_29
REMARK                            x       y       z     vdW  Elec       q    Type
REMARK                         _______ _______ _______ _____ _____    ______ ____
ROOT
ATOM      1  C   LIG A   1      -6.148   4.006 125.889  0.00  0.00    +0.162 A 
ATOM      2  C   LIG A   1      -4.913   4.076 126.523  0.00  0.00    +0.166 A 
ATOM      3  C   LIG A   1      -4.125   2.956 126.717  0.00  0.00    +0.005 A 
ATOM      4  C   LIG A   1      -2.885   3.310 127.456  0.00  0.00    +0.065 C 
ATOM      5  C   LIG A   1      -3.089   4.835 127.630  0.00  0.00    +0.211 C 
ATOM      6  O   LIG A   1      -4.356   5.226 127.025  0.00  0.00    -0.480 OA
ATOM      7  C   LIG A   1      -1.616   2.978 126.678  0.00  0.00    +0.016 C 
ATOM      8  C   LIG A   1      -4.539   1.711 126.270  0.00  0.00    +0.015 A 
ATOM      9  C   LIG A   1      -5.779   1.598 125.624  0.00  0.00    -0.021 A 
ATOM     10  C   LIG A   1      -6.564   2.747 125.425  0.00  0.00    +0.057 A 
ENDROOT
BRANCH   5  11
ATOM     11  C   LIG A   1      -3.064   5.274 129.087  0.00  0.00    +0.000 A 
ATOM     12  C   LIG A   1      -3.199   6.623 129.432  0.00  0.00    +0.057 A 
ATOM     13  C   LIG A   1      -3.262   7.040 130.776  0.00  0.00    +0.166 A 
ATOM     14  C   LIG A   1      -3.139   6.091 131.813  0.00  0.00    +0.203 A 
ATOM     15  C   LIG A   1      -2.970   4.730 131.469  0.00  0.00    +0.166 A 
ATOM     16  C   LIG A   1      -2.936   4.342 130.122  0.00  0.00    +0.057 A 
BRANCH  13  17
ATOM     17  O   LIG A   1      -3.461   8.396 130.868  0.00  0.00    -0.491 OA
ATOM     18  C   LIG A   1      -3.979   9.113 129.757  0.00  0.00    +0.277 C 
ENDBRANCH  13  17
BRANCH  15  19
ATOM     19  O   LIG A   1      -2.946   3.796 132.475  0.00  0.00    -0.491 OA
ATOM     20  C   LIG A   1      -3.646   2.580 132.240  0.00  0.00    +0.277 C 
ENDBRANCH  15  19
BRANCH  14  21
ATOM     21  O   LIG A   1      -3.263   6.545 133.101  0.00  0.00    -0.488 OA
ATOM     22  C   LIG A   1      -4.497   6.345 133.776  0.00  0.00    +0.277 C 
ENDBRANCH  14  21
ENDBRANCH   5  11
BRANCH   9  23
ATOM     23  C   LIG A   1      -6.271   0.307 125.113  0.00  0.00    +0.003 C 
ATOM     24  C   LIG A   1      -5.695  -0.869 125.385  0.00  0.00    -0.030 C 
ATOM     25  C   LIG A   1      -6.179  -2.199 124.889  0.00  0.00    +0.035 C 
ENDBRANCH   9  23
BRANCH   1  26
ATOM     26  O   LIG A   1      -6.865   5.164 125.787  0.00  0.00    -0.491 OA
ATOM     27  C   LIG A   1      -8.281   5.048 125.876  0.00  0.00    +0.277 C 
ENDBRANCH   1  26
TORSDOF 6
ENDMDL
