MODEL 1
REMARK VINA RESULT:      -3.8      0.000      0.000
REMARK  Name = NuBBE_1974
REMARK  6 active torsions:
REMARK  status: ('A' for Active; 'I' for Inactive)
REMARK    1  A    between atoms: S_1  and  S_2
REMARK    2  A    between atoms: S_1  and  C_6
REMARK    3  A    between atoms: S_2  and  C_3
REMARK    4  A    between atoms: C_3  and  C_4
REMARK    5  A    between atoms: C_6  and  C_7
REMARK    6  A    between atoms: C_7  and  C_8
REMARK                            x       y       z     vdW  Elec       q    Type
REMARK                         _______ _______ _______ _____ _____    ______ ____
ROOT
ATOM      1  S   LIG A   1      -8.315  -2.484 123.268  0.00  0.00    -0.093 S 
ENDROOT
BRANCH   1   2
ATOM      2  S   LIG A   1      -6.556  -1.490 123.714  0.00  0.00    -0.089 S 
BRANCH   2   3
ATOM      3  C   LIG A   1      -5.545  -2.788 124.507  0.00  0.00    +0.107 C 
BRANCH   3   4
ATOM      4  C   LIG A   1      -4.705  -3.490 123.469  0.00  0.00    -0.023 C 
ATOM      5  C   LIG A   1      -4.314  -4.767 123.514  0.00  0.00    +0.005 C 
ENDBRANCH   3   4
ENDBRANCH   2   3
ENDBRANCH   1   2
BRANCH   1   6
ATOM      6  C   LIG A   1      -8.488  -3.620 124.685  0.00  0.00    +0.080 C 
BRANCH   6   7
ATOM      7  C   LIG A   1      -9.280  -2.989 125.832  0.00  0.00    +0.008 C 
ATOM      8  C   LIG A   1      -8.897  -3.613 127.171  0.00  0.00    +0.004 C 
ENDBRANCH   6   7
ENDBRANCH   1   6
TORSDOF 5
ENDMDL
MODEL 2
REMARK VINA RESULT:      -3.7      0.985      4.570
REMARK  Name = NuBBE_1974
REMARK  6 active torsions:
REMARK  status: ('A' for Active; 'I' for Inactive)
REMARK    1  A    between atoms: S_1  and  S_2
REMARK    2  A    between atoms: S_1  and  C_6
REMARK    3  A    between atoms: S_2  and  C_3
REMARK    4  A    between atoms: C_3  and  C_4
REMARK    5  A    between atoms: C_6  and  C_7
REMARK    6  A    between atoms: C_7  and  C_8
REMARK                            x       y       z     vdW  Elec       q    Type
REMARK                         _______ _______ _______ _____ _____    ______ ____
ROOT
ATOM      1  S   LIG A   1      -7.603  -2.436 123.444  0.00  0.00    -0.093 S 
ENDROOT
BRANCH   1   2
ATOM      2  S   LIG A   1      -9.205  -3.118 124.562  0.00  0.00    -0.089 S 
BRANCH   2   3
ATOM      3  C   LIG A   1      -8.822  -2.506 126.239  0.00  0.00    +0.107 C 
BRANCH   3   4
ATOM      4  C   LIG A   1      -8.805  -3.656 127.215  0.00  0.00    -0.023 C 
ATOM      5  C   LIG A   1      -8.615  -3.559 128.534  0.00  0.00    +0.005 C 
ENDBRANCH   3   4
ENDBRANCH   2   3
ENDBRANCH   1   2
BRANCH   1   6
ATOM      6  C   LIG A   1      -6.180  -3.176 124.315  0.00  0.00    +0.080 C 
BRANCH   6   7
ATOM      7  C   LIG A   1      -4.928  -3.216 123.437  0.00  0.00    +0.008 C 
ATOM      8  C   LIG A   1      -4.231  -4.569 123.536  0.00  0.00    +0.004 C 
ENDBRANCH   6   7
ENDBRANCH   1   6
TORSDOF 5
ENDMDL
MODEL 3
REMARK VINA RESULT:      -3.7      1.333      1.837
REMARK  Name = NuBBE_1974
REMARK  6 active torsions:
REMARK  status: ('A' for Active; 'I' for Inactive)
REMARK    1  A    between atoms: S_1  and  S_2
REMARK    2  A    between atoms: S_1  and  C_6
REMARK    3  A    between atoms: S_2  and  C_3
REMARK    4  A    between atoms: C_3  and  C_4
REMARK    5  A    between atoms: C_6  and  C_7
REMARK    6  A    between atoms: C_7  and  C_8
REMARK                            x       y       z     vdW  Elec       q    Type
REMARK                         _______ _______ _______ _____ _____    ______ ____
ROOT
ATOM      1  S   LIG A   1      -7.893  -0.866 124.610  0.00  0.00    -0.093 S 
ENDROOT
BRANCH   1   2
ATOM      2  S   LIG A   1      -5.906  -1.387 124.859  0.00  0.00    -0.089 S 
BRANCH   2   3
ATOM      3  C   LIG A   1      -5.606  -2.528 123.464  0.00  0.00    +0.107 C 
BRANCH   3   4
ATOM      4  C   LIG A   1      -5.171  -3.874 123.987  0.00  0.00    -0.023 C 
ATOM      5  C   LIG A   1      -4.162  -4.608 123.509  0.00  0.00    +0.005 C 
ENDBRANCH   3   4
ENDBRANCH   2   3
ENDBRANCH   1   2
BRANCH   1   6
ATOM      6  C   LIG A   1      -8.751  -2.114 125.628  0.00  0.00    +0.080 C 
BRANCH   6   7
ATOM      7  C   LIG A   1      -8.957  -3.428 124.872  0.00  0.00    +0.008 C 
ATOM      8  C   LIG A   1      -9.421  -3.172 123.442  0.00  0.00    +0.004 C 
ENDBRANCH   6   7
ENDBRANCH   1   6
TORSDOF 5
ENDMDL
MODEL 4
REMARK VINA RESULT:      -3.7     11.674     13.038
REMARK  Name = NuBBE_1974
REMARK  6 active torsions:
REMARK  status: ('A' for Active; 'I' for Inactive)
REMARK    1  A    between atoms: S_1  and  S_2
REMARK    2  A    between atoms: S_1  and  C_6
REMARK    3  A    between atoms: S_2  and  C_3
REMARK    4  A    between atoms: C_3  and  C_4
REMARK    5  A    between atoms: C_6  and  C_7
REMARK    6  A    between atoms: C_7  and  C_8
REMARK                            x       y       z     vdW  Elec       q    Type
REMARK                         _______ _______ _______ _____ _____    ______ ____
ROOT
ATOM      1  S   LIG A   1     -10.937   7.970 127.929  0.00  0.00    -0.093 S 
ENDROOT
BRANCH   1   2
ATOM      2  S   LIG A   1     -10.131   6.586 129.238  0.00  0.00    -0.089 S 
BRANCH   2   3
ATOM      3  C   LIG A   1     -11.612   5.844 130.009  0.00  0.00    +0.107 C 
BRANCH   3   4
ATOM      4  C   LIG A   1     -11.921   6.545 131.308  0.00  0.00    -0.023 C 
ATOM      5  C   LIG A   1     -12.878   7.459 131.494  0.00  0.00    +0.005 C 
ENDBRANCH   3   4
ENDBRANCH   2   3
ENDBRANCH   1   2
BRANCH   1   6
ATOM      6  C   LIG A   1     -12.492   7.163 127.420  0.00  0.00    +0.080 C 
BRANCH   6   7
ATOM      7  C   LIG A   1     -13.723   7.957 127.862  0.00  0.00    +0.008 C 
ATOM      8  C   LIG A   1     -13.320   9.284 128.498  0.00  0.00    +0.004 C 
ENDBRANCH   6   7
ENDBRANCH   1   6
TORSDOF 5
ENDMDL
MODEL 5
REMARK VINA RESULT:      -3.6     12.482     12.873
REMARK  Name = NuBBE_1974
REMARK  6 active torsions:
REMARK  status: ('A' for Active; 'I' for Inactive)
REMARK    1  A    between atoms: S_1  and  S_2
REMARK    2  A    between atoms: S_1  and  C_6
REMARK    3  A    between atoms: S_2  and  C_3
REMARK    4  A    between atoms: C_3  and  C_4
REMARK    5  A    between atoms: C_6  and  C_7
REMARK    6  A    between atoms: C_7  and  C_8
REMARK                            x       y       z     vdW  Elec       q    Type
REMARK                         _______ _______ _______ _____ _____    ______ ____
ROOT
ATOM      1  S   LIG A   1     -12.580   8.671 129.522  0.00  0.00    -0.093 S 
ENDROOT
BRANCH   1   2
ATOM      2  S   LIG A   1     -12.733   7.308 131.072  0.00  0.00    -0.089 S 
BRANCH   2   3
ATOM      3  C   LIG A   1     -11.450   6.076 130.659  0.00  0.00    +0.107 C 
BRANCH   3   4
ATOM      4  C   LIG A   1     -10.121   6.509 131.224  0.00  0.00    -0.023 C 
ATOM      5  C   LIG A   1      -9.121   7.063 130.533  0.00  0.00    +0.005 C 
ENDBRANCH   3   4
ENDBRANCH   2   3
ENDBRANCH   1   2
BRANCH   1   6
ATOM      6  C   LIG A   1     -13.292   7.744 128.120  0.00  0.00    +0.080 C 
BRANCH   6   7
ATOM      7  C   LIG A   1     -12.222   7.314 127.115  0.00  0.00    +0.008 C 
ATOM      8  C   LIG A   1     -10.919   8.073 127.342  0.00  0.00    +0.004 C 
ENDBRANCH   6   7
ENDBRANCH   1   6
TORSDOF 5
ENDMDL
MODEL 6
REMARK VINA RESULT:      -3.6      0.921      4.346
REMARK  Name = NuBBE_1974
REMARK  6 active torsions:
REMARK  status: ('A' for Active; 'I' for Inactive)
REMARK    1  A    between atoms: S_1  and  S_2
REMARK    2  A    between atoms: S_1  and  C_6
REMARK    3  A    between atoms: S_2  and  C_3
REMARK    4  A    between atoms: C_3  and  C_4
REMARK    5  A    between atoms: C_6  and  C_7
REMARK    6  A    between atoms: C_7  and  C_8
REMARK                            x       y       z     vdW  Elec       q    Type
REMARK                         _______ _______ _______ _____ _____    ______ ____
ROOT
ATOM      1  S   LIG A   1      -6.413  -1.333 124.086  0.00  0.00    -0.093 S 
ENDROOT
BRANCH   1   2
ATOM      2  S   LIG A   1      -8.362  -1.208 123.403  0.00  0.00    -0.089 S 
BRANCH   2   3
ATOM      3  C   LIG A   1      -8.912  -2.950 123.422  0.00  0.00    +0.107 C 
BRANCH   3   4
ATOM      4  C   LIG A   1      -8.864  -3.488 124.830  0.00  0.00    -0.023 C 
ATOM      5  C   LIG A   1      -9.446  -2.935 125.898  0.00  0.00    +0.005 C 
ENDBRANCH   3   4
ENDBRANCH   2   3
ENDBRANCH   1   2
BRANCH   1   6
ATOM      6  C   LIG A   1      -5.723  -2.664 123.046  0.00  0.00    +0.080 C 
BRANCH   6   7
ATOM      7  C   LIG A   1      -4.427  -3.233 123.628  0.00  0.00    +0.008 C 
ATOM      8  C   LIG A   1      -4.382  -4.751 123.486  0.00  0.00    +0.004 C 
ENDBRANCH   6   7
ENDBRANCH   1   6
TORSDOF 5
ENDMDL
MODEL 7
REMARK VINA RESULT:      -3.5      1.561      1.987
REMARK  Name = NuBBE_1974
REMARK  6 active torsions:
REMARK  status: ('A' for Active; 'I' for Inactive)
REMARK    1  A    between atoms: S_1  and  S_2
REMARK    2  A    between atoms: S_1  and  C_6
REMARK    3  A    between atoms: S_2  and  C_3
REMARK    4  A    between atoms: C_3  and  C_4
REMARK    5  A    between atoms: C_6  and  C_7
REMARK    6  A    between atoms: C_7  and  C_8
REMARK                            x       y       z     vdW  Elec       q    Type
REMARK                         _______ _______ _______ _____ _____    ______ ____
ROOT
ATOM      1  S   LIG A   1      -6.692  -2.264 126.952  0.00  0.00    -0.093 S 
ENDROOT
BRANCH   1   2
ATOM      2  S   LIG A   1      -6.008  -1.709 125.080  0.00  0.00    -0.089 S 
BRANCH   2   3
ATOM      3  C   LIG A   1      -6.060  -3.277 124.146  0.00  0.00    +0.107 C 
BRANCH   3   4
ATOM      4  C   LIG A   1      -4.714  -3.548 123.521  0.00  0.00    -0.023 C 
ATOM      5  C   LIG A   1      -4.086  -4.727 123.500  0.00  0.00    +0.005 C 
ENDBRANCH   3   4
ENDBRANCH   2   3
ENDBRANCH   1   2
BRANCH   1   6
ATOM      6  C   LIG A   1      -8.382  -2.847 126.590  0.00  0.00    +0.080 C 
BRANCH   6   7
ATOM      7  C   LIG A   1      -8.946  -3.711 127.720  0.00  0.00    +0.008 C 
ATOM      8  C   LIG A   1      -8.323  -3.335 129.061  0.00  0.00    +0.004 C 
ENDBRANCH   6   7
ENDBRANCH   1   6
TORSDOF 5
ENDMDL
MODEL 8
REMARK VINA RESULT:      -3.5      2.086      4.226
REMARK  Name = NuBBE_1974
REMARK  6 active torsions:
REMARK  status: ('A' for Active; 'I' for Inactive)
REMARK    1  A    between atoms: S_1  and  S_2
REMARK    2  A    between atoms: S_1  and  C_6
REMARK    3  A    between atoms: S_2  and  C_3
REMARK    4  A    between atoms: C_3  and  C_4
REMARK    5  A    between atoms: C_6  and  C_7
REMARK    6  A    between atoms: C_7  and  C_8
REMARK                            x       y       z     vdW  Elec       q    Type
REMARK                         _______ _______ _______ _____ _____    ______ ____
ROOT
ATOM      1  S   LIG A   1      -6.334  -2.171 125.439  0.00  0.00    -0.093 S 
ENDROOT
BRANCH   1   2
ATOM      2  S   LIG A   1      -7.948  -1.723 126.653  0.00  0.00    -0.089 S 
BRANCH   2   3
ATOM      3  C   LIG A   1      -7.366  -2.228 128.308  0.00  0.00    +0.107 C 
BRANCH   3   4
ATOM      4  C   LIG A   1      -8.225  -3.351 128.835  0.00  0.00    -0.023 C 
ATOM      5  C   LIG A   1      -9.096  -4.069 128.121  0.00  0.00    +0.005 C 
ENDBRANCH   3   4
ENDBRANCH   2   3
ENDBRANCH   1   2
BRANCH   1   6
ATOM      6  C   LIG A   1      -7.049  -3.380 124.274  0.00  0.00    +0.080 C 
BRANCH   6   7
ATOM      7  C   LIG A   1      -8.529  -3.644 124.557  0.00  0.00    +0.008 C 
ATOM      8  C   LIG A   1      -9.401  -3.178 123.395  0.00  0.00    +0.004 C 
ENDBRANCH   6   7
ENDBRANCH   1   6
TORSDOF 5
ENDMDL
MODEL 9
REMARK VINA RESULT:      -3.4     12.242     12.626
REMARK  Name = NuBBE_1974
REMARK  6 active torsions:
REMARK  status: ('A' for Active; 'I' for Inactive)
REMARK    1  A    between atoms: S_1  and  S_2
REMARK    2  A    between atoms: S_1  and  C_6
REMARK    3  A    between atoms: S_2  and  C_3
REMARK    4  A    between atoms: C_3  and  C_4
REMARK    5  A    between atoms: C_6  and  C_7
REMARK    6  A    between atoms: C_7  and  C_8
REMARK                            x       y       z     vdW  Elec       q    Type
REMARK                         _______ _______ _______ _____ _____    ______ ____
ROOT
ATOM      1  S   LIG A   1     -12.059   7.340 130.385  0.00  0.00    -0.093 S 
ENDROOT
BRANCH   1   2
ATOM      2  S   LIG A   1     -12.788   8.432 128.786  0.00  0.00    -0.089 S 
BRANCH   2   3
ATOM      3  C   LIG A   1     -13.263   7.136 127.591  0.00  0.00    +0.107 C 
BRANCH   3   4
ATOM      4  C   LIG A   1     -12.302   7.133 126.428  0.00  0.00    -0.023 C 
ATOM      5  C   LIG A   1     -11.067   7.644 126.433  0.00  0.00    +0.005 C 
ENDBRANCH   3   4
ENDBRANCH   2   3
ENDBRANCH   1   2
BRANCH   1   6
ATOM      6  C   LIG A   1     -10.270   7.280 130.029  0.00  0.00    +0.080 C 
BRANCH   6   7
ATOM      7  C   LIG A   1      -9.485   6.598 131.151  0.00  0.00    +0.008 C 
ATOM      8  C   LIG A   1      -7.989   6.858 131.010  0.00  0.00    +0.004 C 
ENDBRANCH   6   7
ENDBRANCH   1   6
TORSDOF 5
ENDMDL
