MODEL 1
REMARK VINA RESULT:      -7.4      0.000      0.000
REMARK  Name = NuBBE_2285
REMARK  6 active torsions:
REMARK  status: ('A' for Active; 'I' for Inactive)
REMARK    1  A    between atoms: C_1  and  C_2
REMARK    2  A    between atoms: C_1  and  C_4
REMARK    3  A    between atoms: C_9  and  O_12
REMARK    4  A    between atoms: O_12  and  C_13
REMARK    5  A    between atoms: C_15  and  C_20
REMARK    6  A    between atoms: C_17  and  C_19
REMARK                            x       y       z     vdW  Elec       q    Type
REMARK                         _______ _______ _______ _____ _____    ______ ____
ROOT
ATOM      1  C   LIG A   1      -7.634  -1.192 126.225  0.00  0.00    +0.041 C 
ATOM      2  C   LIG A   1      -7.875   0.027 127.078  0.00  0.00    +0.109 C 
ATOM      3  C   LIG A   1      -7.888   0.044 128.411  0.00  0.00    +0.090 C 
ATOM      4  C   LIG A   1      -7.687  -1.207 129.181  0.00  0.00    +0.188 C 
ATOM      5  O   LIG A   1      -7.892  -1.169 130.389  0.00  0.00    -0.290 OA
ATOM      6  C   LIG A   1      -7.273  -2.496 128.424  0.00  0.00    +0.189 C 
ATOM      7  C   LIG A   1      -6.727  -2.156 127.027  0.00  0.00    +0.055 C 
ATOM      8  O   LIG A   1      -7.950   1.204 126.356  0.00  0.00    -0.487 OA
ATOM      9  C   LIG A   1      -7.689   0.872 124.973  0.00  0.00    +0.207 C 
ATOM     10  C   LIG A   1      -6.976  -0.509 124.995  0.00  0.00    +0.045 C 
ATOM     11  C   LIG A   1      -5.444  -0.417 125.095  0.00  0.00    +0.012 C 
ENDROOT
BRANCH   9  12
ATOM     12  C   LIG A   1      -6.993   2.018 124.254  0.00  0.00    -0.003 A 
ATOM     13  C   LIG A   1      -7.060   2.117 122.851  0.00  0.00    +0.056 A 
ATOM     14  C   LIG A   1      -6.349   3.124 122.226  0.00  0.00    +0.167 A 
ATOM     15  C   LIG A   1      -5.639   4.063 122.936  0.00  0.00    +0.166 A 
ATOM     16  C   LIG A   1      -5.604   4.050 124.311  0.00  0.00    +0.050 A 
ATOM     17  C   LIG A   1      -6.281   3.015 124.968  0.00  0.00    +0.011 A 
ATOM     18  O   LIG A   1      -5.003   4.954 122.129  0.00  0.00    -0.453 OA
ATOM     19  C   LIG A   1      -5.338   4.426 120.828  0.00  0.00    +0.466 C 
ATOM     20  O   LIG A   1      -6.242   3.303 120.882  0.00  0.00    -0.453 OA
ENDBRANCH   9  12
BRANCH   6  21
ATOM     21  O   LIG A   1      -6.262  -3.287 129.052  0.00  0.00    -0.372 OA
ATOM     22  C   LIG A   1      -4.962  -2.711 129.001  0.00  0.00    +0.195 C 
ENDBRANCH   6  21
BRANCH   1  23
ATOM     23  C   LIG A   1      -9.011  -1.838 125.858  0.00  0.00    +0.041 C 
BRANCH  23  24
ATOM     24  C   LIG A   1      -8.925  -3.105 125.045  0.00  0.00    -0.034 C 
ATOM     25  C   LIG A   1      -9.298  -3.207 123.762  0.00  0.00    +0.004 C 
ENDBRANCH  23  24
ENDBRANCH   1  23
TORSDOF 4
ENDMDL
MODEL 2
REMARK VINA RESULT:      -7.3      3.408      4.966
REMARK  Name = NuBBE_2285
REMARK  6 active torsions:
REMARK  status: ('A' for Active; 'I' for Inactive)
REMARK    1  A    between atoms: C_1  and  C_2
REMARK    2  A    between atoms: C_1  and  C_4
REMARK    3  A    between atoms: C_9  and  O_12
REMARK    4  A    between atoms: O_12  and  C_13
REMARK    5  A    between atoms: C_15  and  C_20
REMARK    6  A    between atoms: C_17  and  C_19
REMARK                            x       y       z     vdW  Elec       q    Type
REMARK                         _______ _______ _______ _____ _____    ______ ____
ROOT
ATOM      1  C   LIG A   1      -5.730   3.152 126.214  0.00  0.00    +0.041 C 
ATOM      2  C   LIG A   1      -6.944   2.351 125.818  0.00  0.00    +0.109 C 
ATOM      3  C   LIG A   1      -7.914   1.963 126.646  0.00  0.00    +0.090 C 
ATOM      4  C   LIG A   1      -7.842   2.282 128.091  0.00  0.00    +0.188 C 
ATOM      5  O   LIG A   1      -8.658   1.747 128.832  0.00  0.00    -0.290 OA
ATOM      6  C   LIG A   1      -6.726   3.234 128.595  0.00  0.00    +0.189 C 
ATOM      7  C   LIG A   1      -6.121   4.030 127.427  0.00  0.00    +0.055 C 
ATOM      8  O   LIG A   1      -7.058   2.155 124.454  0.00  0.00    -0.487 OA
ATOM      9  C   LIG A   1      -5.971   2.873 123.828  0.00  0.00    +0.207 C 
ATOM     10  C   LIG A   1      -5.484   3.908 124.881  0.00  0.00    +0.045 C 
ATOM     11  C   LIG A   1      -6.210   5.262 124.804  0.00  0.00    +0.012 C 
ENDROOT
BRANCH   9  12
ATOM     12  C   LIG A   1      -6.372   3.393 122.455  0.00  0.00    -0.003 A 
ATOM     13  C   LIG A   1      -7.725   3.390 122.065  0.00  0.00    +0.056 A 
ATOM     14  C   LIG A   1      -8.042   3.793 120.782  0.00  0.00    +0.167 A 
ATOM     15  C   LIG A   1      -7.089   4.255 119.907  0.00  0.00    +0.166 A 
ATOM     16  C   LIG A   1      -5.764   4.345 120.268  0.00  0.00    +0.050 A 
ATOM     17  C   LIG A   1      -5.409   3.902 121.548  0.00  0.00    +0.011 A 
ATOM     18  O   LIG A   1      -7.611   4.587 118.696  0.00  0.00    -0.453 OA
ATOM     19  C   LIG A   1      -8.992   4.214 118.886  0.00  0.00    +0.466 C 
ATOM     20  O   LIG A   1      -9.284   3.769 120.228  0.00  0.00    -0.453 OA
ENDBRANCH   9  12
BRANCH   6  21
ATOM     21  O   LIG A   1      -7.130   4.209 129.559  0.00  0.00    -0.372 OA
ATOM     22  C   LIG A   1      -6.527   4.044 130.837  0.00  0.00    +0.195 C 
ENDBRANCH   6  21
BRANCH   1  23
ATOM     23  C   LIG A   1      -4.557   2.170 126.545  0.00  0.00    +0.041 C 
BRANCH  23  24
ATOM     24  C   LIG A   1      -3.371   2.800 127.231  0.00  0.00    -0.034 C 
ATOM     25  C   LIG A   1      -2.227   3.128 126.615  0.00  0.00    +0.004 C 
ENDBRANCH  23  24
ENDBRANCH   1  23
TORSDOF 4
ENDMDL
MODEL 3
REMARK VINA RESULT:      -7.2      3.044      7.765
REMARK  Name = NuBBE_2285
REMARK  6 active torsions:
REMARK  status: ('A' for Active; 'I' for Inactive)
REMARK    1  A    between atoms: C_1  and  C_2
REMARK    2  A    between atoms: C_1  and  C_4
REMARK    3  A    between atoms: C_9  and  O_12
REMARK    4  A    between atoms: O_12  and  C_13
REMARK    5  A    between atoms: C_15  and  C_20
REMARK    6  A    between atoms: C_17  and  C_19
REMARK                            x       y       z     vdW  Elec       q    Type
REMARK                         _______ _______ _______ _____ _____    ______ ____
ROOT
ATOM      1  C   LIG A   1      -7.297  -1.275 125.957  0.00  0.00    +0.041 C 
ATOM      2  C   LIG A   1      -7.354  -0.133 126.938  0.00  0.00    +0.109 C 
ATOM      3  C   LIG A   1      -7.992   1.021 126.741  0.00  0.00    +0.090 C 
ATOM      4  C   LIG A   1      -8.698   1.281 125.464  0.00  0.00    +0.188 C 
ATOM      5  O   LIG A   1      -9.107   2.419 125.263  0.00  0.00    -0.290 OA
ATOM      6  C   LIG A   1      -8.847   0.126 124.439  0.00  0.00    +0.189 C 
ATOM      7  C   LIG A   1      -8.593  -1.234 125.111  0.00  0.00    +0.055 C 
ATOM      8  O   LIG A   1      -6.788  -0.428 128.165  0.00  0.00    -0.487 OA
ATOM      9  C   LIG A   1      -6.380  -1.813 128.124  0.00  0.00    +0.207 C 
ATOM     10  C   LIG A   1      -7.179  -2.458 126.956  0.00  0.00    +0.045 C 
ATOM     11  C   LIG A   1      -8.538  -3.038 127.379  0.00  0.00    +0.012 C 
ENDROOT
BRANCH   9  12
ATOM     12  C   LIG A   1      -6.485  -2.460 129.497  0.00  0.00    -0.003 A 
ATOM     13  C   LIG A   1      -7.293  -1.878 130.493  0.00  0.00    +0.056 A 
ATOM     14  C   LIG A   1      -7.301  -2.448 131.752  0.00  0.00    +0.167 A 
ATOM     15  C   LIG A   1      -6.599  -3.595 132.037  0.00  0.00    +0.166 A 
ATOM     16  C   LIG A   1      -5.855  -4.240 131.077  0.00  0.00    +0.050 A 
ATOM     17  C   LIG A   1      -5.795  -3.661 129.804  0.00  0.00    +0.011 A 
ATOM     18  O   LIG A   1      -6.733  -3.977 133.336  0.00  0.00    -0.453 OA
ATOM     19  C   LIG A   1      -7.542  -2.900 133.852  0.00  0.00    +0.466 C 
ATOM     20  O   LIG A   1      -7.957  -1.960 132.839  0.00  0.00    -0.453 OA
ENDBRANCH   9  12
BRANCH   6  21
ATOM     21  O   LIG A   1     -10.126   0.014 123.811  0.00  0.00    -0.372 OA
ATOM     22  C   LIG A   1     -10.142   0.436 122.453  0.00  0.00    +0.195 C 
ENDBRANCH   6  21
BRANCH   1  23
ATOM     23  C   LIG A   1      -6.010  -1.132 125.079  0.00  0.00    +0.041 C 
BRANCH  23  24
ATOM     24  C   LIG A   1      -5.885  -2.132 123.958  0.00  0.00    -0.034 C 
ATOM     25  C   LIG A   1      -5.052  -3.182 123.969  0.00  0.00    +0.004 C 
ENDBRANCH  23  24
ENDBRANCH   1  23
TORSDOF 4
ENDMDL
MODEL 4
REMARK VINA RESULT:      -7.1      2.567      7.525
REMARK  Name = NuBBE_2285
REMARK  6 active torsions:
REMARK  status: ('A' for Active; 'I' for Inactive)
REMARK    1  A    between atoms: C_1  and  C_2
REMARK    2  A    between atoms: C_1  and  C_4
REMARK    3  A    between atoms: C_9  and  O_12
REMARK    4  A    between atoms: O_12  and  C_13
REMARK    5  A    between atoms: C_15  and  C_20
REMARK    6  A    between atoms: C_17  and  C_19
REMARK                            x       y       z     vdW  Elec       q    Type
REMARK                         _______ _______ _______ _____ _____    ______ ____
ROOT
ATOM      1  C   LIG A   1      -8.306  -1.400 126.480  0.00  0.00    +0.041 C 
ATOM      2  C   LIG A   1      -6.963  -1.575 125.818  0.00  0.00    +0.109 C 
ATOM      3  C   LIG A   1      -6.540  -0.904 124.746  0.00  0.00    +0.090 C 
ATOM      4  C   LIG A   1      -7.421   0.085 124.082  0.00  0.00    +0.188 C 
ATOM      5  O   LIG A   1      -7.057   0.533 123.001  0.00  0.00    -0.290 OA
ATOM      6  C   LIG A   1      -8.763   0.469 124.758  0.00  0.00    +0.189 C 
ATOM      7  C   LIG A   1      -8.763   0.059 126.240  0.00  0.00    +0.055 C 
ATOM      8  O   LIG A   1      -6.110  -2.416 126.509  0.00  0.00    -0.487 OA
ATOM      9  C   LIG A   1      -6.788  -2.807 127.723  0.00  0.00    +0.207 C 
ATOM     10  C   LIG A   1      -7.913  -1.756 127.940  0.00  0.00    +0.045 C 
ATOM     11  C   LIG A   1      -7.475  -0.537 128.768  0.00  0.00    +0.012 C 
ENDROOT
BRANCH   9  12
ATOM     12  C   LIG A   1      -5.800  -3.032 128.858  0.00  0.00    -0.003 A 
ATOM     13  C   LIG A   1      -6.183  -3.771 129.994  0.00  0.00    +0.056 A 
ATOM     14  C   LIG A   1      -5.287  -3.885 131.040  0.00  0.00    +0.167 A 
ATOM     15  C   LIG A   1      -4.020  -3.358 130.974  0.00  0.00    +0.166 A 
ATOM     16  C   LIG A   1      -3.575  -2.692 129.856  0.00  0.00    +0.050 A 
ATOM     17  C   LIG A   1      -4.477  -2.524 128.798  0.00  0.00    +0.011 A 
ATOM     18  O   LIG A   1      -3.307  -3.572 132.113  0.00  0.00    -0.453 OA
ATOM     19  C   LIG A   1      -4.296  -4.233 132.929  0.00  0.00    +0.466 C 
ATOM     20  O   LIG A   1      -5.534  -4.490 132.233  0.00  0.00    -0.453 OA
ENDBRANCH   9  12
BRANCH   6  21
ATOM     21  O   LIG A   1      -9.091   1.860 124.742  0.00  0.00    -0.372 OA
ATOM     22  C   LIG A   1      -8.226   2.667 125.531  0.00  0.00    +0.195 C 
ENDBRANCH   6  21
BRANCH   1  23
ATOM     23  C   LIG A   1      -9.309  -2.443 125.882  0.00  0.00    +0.041 C 
BRANCH  23  24
ATOM     24  C   LIG A   1      -8.797  -3.213 124.691  0.00  0.00    -0.034 C 
ATOM     25  C   LIG A   1      -9.393  -3.233 123.491  0.00  0.00    +0.004 C 
ENDBRANCH  23  24
ENDBRANCH   1  23
TORSDOF 4
ENDMDL
MODEL 5
REMARK VINA RESULT:      -7.0      2.891      4.210
REMARK  Name = NuBBE_2285
REMARK  6 active torsions:
REMARK  status: ('A' for Active; 'I' for Inactive)
REMARK    1  A    between atoms: C_1  and  C_2
REMARK    2  A    between atoms: C_1  and  C_4
REMARK    3  A    between atoms: C_9  and  O_12
REMARK    4  A    between atoms: O_12  and  C_13
REMARK    5  A    between atoms: C_15  and  C_20
REMARK    6  A    between atoms: C_17  and  C_19
REMARK                            x       y       z     vdW  Elec       q    Type
REMARK                         _______ _______ _______ _____ _____    ______ ____
ROOT
ATOM      1  C   LIG A   1      -6.327  -1.468 126.185  0.00  0.00    +0.041 C 
ATOM      2  C   LIG A   1      -6.960  -0.684 125.064  0.00  0.00    +0.109 C 
ATOM      3  C   LIG A   1      -8.089  -1.014 124.435  0.00  0.00    +0.090 C 
ATOM      4  C   LIG A   1      -8.816  -2.253 124.797  0.00  0.00    +0.188 C 
ATOM      5  O   LIG A   1      -9.738  -2.603 124.069  0.00  0.00    -0.290 OA
ATOM      6  C   LIG A   1      -8.354  -3.061 126.038  0.00  0.00    +0.189 C 
ATOM      7  C   LIG A   1      -7.459  -2.200 126.945  0.00  0.00    +0.055 C 
ATOM      8  O   LIG A   1      -6.336   0.524 124.810  0.00  0.00    -0.487 OA
ATOM      9  C   LIG A   1      -5.287   0.676 125.793  0.00  0.00    +0.207 C 
ATOM     10  C   LIG A   1      -5.642  -0.302 126.948  0.00  0.00    +0.045 C 
ATOM     11  C   LIG A   1      -6.531   0.320 128.038  0.00  0.00    +0.012 C 
ENDROOT
BRANCH   9  12
ATOM     12  C   LIG A   1      -5.069   2.140 126.144  0.00  0.00    -0.003 A 
ATOM     13  C   LIG A   1      -3.848   2.559 126.704  0.00  0.00    +0.056 A 
ATOM     14  C   LIG A   1      -3.715   3.881 127.086  0.00  0.00    +0.167 A 
ATOM     15  C   LIG A   1      -4.712   4.803 126.873  0.00  0.00    +0.166 A 
ATOM     16  C   LIG A   1      -5.894   4.457 126.263  0.00  0.00    +0.050 A 
ATOM     17  C   LIG A   1      -6.072   3.114 125.905  0.00  0.00    +0.011 A 
ATOM     18  O   LIG A   1      -4.383   6.040 127.334  0.00  0.00    -0.453 OA
ATOM     19  C   LIG A   1      -3.093   5.773 127.924  0.00  0.00    +0.466 C 
ATOM     20  O   LIG A   1      -2.637   4.420 127.715  0.00  0.00    -0.453 OA
ENDBRANCH   9  12
BRANCH   6  21
ATOM     21  O   LIG A   1      -9.397  -3.555 126.881  0.00  0.00    -0.372 OA
ATOM     22  C   LIG A   1      -8.954  -3.963 128.170  0.00  0.00    +0.195 C 
ENDBRANCH   6  21
BRANCH   1  23
ATOM     23  C   LIG A   1      -5.276  -2.460 125.585  0.00  0.00    +0.041 C 
BRANCH  23  24
ATOM     24  C   LIG A   1      -5.234  -2.514 124.079  0.00  0.00    -0.034 C 
ATOM     25  C   LIG A   1      -4.678  -3.508 123.372  0.00  0.00    +0.004 C 
ENDBRANCH  23  24
ENDBRANCH   1  23
TORSDOF 4
ENDMDL
MODEL 6
REMARK VINA RESULT:      -6.9      3.084      7.524
REMARK  Name = NuBBE_2285
REMARK  6 active torsions:
REMARK  status: ('A' for Active; 'I' for Inactive)
REMARK    1  A    between atoms: C_1  and  C_2
REMARK    2  A    between atoms: C_1  and  C_4
REMARK    3  A    between atoms: C_9  and  O_12
REMARK    4  A    between atoms: O_12  and  C_13
REMARK    5  A    between atoms: C_15  and  C_20
REMARK    6  A    between atoms: C_17  and  C_19
REMARK                            x       y       z     vdW  Elec       q    Type
REMARK                         _______ _______ _______ _____ _____    ______ ____
ROOT
ATOM      1  C   LIG A   1      -7.939  -1.072 126.075  0.00  0.00    +0.041 C 
ATOM      2  C   LIG A   1      -8.612  -2.375 126.420  0.00  0.00    +0.109 C 
ATOM      3  C   LIG A   1      -9.180  -3.204 125.544  0.00  0.00    +0.090 C 
ATOM      4  C   LIG A   1      -9.215  -2.865 124.102  0.00  0.00    +0.188 C 
ATOM      5  O   LIG A   1      -9.906  -3.565 123.370  0.00  0.00    -0.290 OA
ATOM      6  C   LIG A   1      -8.420  -1.631 123.601  0.00  0.00    +0.189 C 
ATOM      7  C   LIG A   1      -7.372  -1.200 124.641  0.00  0.00    +0.055 C 
ATOM      8  O   LIG A   1      -8.477  -2.734 127.748  0.00  0.00    -0.487 OA
ATOM      9  C   LIG A   1      -7.638  -1.739 128.376  0.00  0.00    +0.207 C 
ATOM     10  C   LIG A   1      -6.888  -1.023 127.217  0.00  0.00    +0.045 C 
ATOM     11  C   LIG A   1      -5.550  -1.682 126.843  0.00  0.00    +0.012 C 
ENDROOT
BRANCH   9  12
ATOM     12  C   LIG A   1      -6.803  -2.346 129.493  0.00  0.00    -0.003 A 
ATOM     13  C   LIG A   1      -6.088  -1.514 130.375  0.00  0.00    +0.056 A 
ATOM     14  C   LIG A   1      -5.277  -2.102 131.326  0.00  0.00    +0.167 A 
ATOM     15  C   LIG A   1      -5.201  -3.466 131.476  0.00  0.00    +0.166 A 
ATOM     16  C   LIG A   1      -5.937  -4.318 130.686  0.00  0.00    +0.050 A 
ATOM     17  C   LIG A   1      -6.735  -3.750 129.685  0.00  0.00    +0.011 A 
ATOM     18  O   LIG A   1      -4.336  -3.835 132.458  0.00  0.00    -0.453 OA
ATOM     19  C   LIG A   1      -3.823  -2.548 132.863  0.00  0.00    +0.466 C 
ATOM     20  O   LIG A   1      -4.461  -1.441 132.192  0.00  0.00    -0.453 OA
ENDBRANCH   9  12
BRANCH   6  21
ATOM     21  O   LIG A   1      -7.700  -1.810 122.379  0.00  0.00    -0.372 OA
ATOM     22  C   LIG A   1      -6.289  -1.887 122.545  0.00  0.00    +0.195 C 
ENDBRANCH   6  21
BRANCH   1  23
ATOM     23  C   LIG A   1      -8.980   0.090 126.201  0.00  0.00    +0.041 C 
BRANCH  23  24
ATOM     24  C   LIG A   1      -8.466   1.454 125.817  0.00  0.00    -0.034 C 
ATOM     25  C   LIG A   1      -8.928   2.174 124.785  0.00  0.00    +0.004 C 
ENDBRANCH  23  24
ENDBRANCH   1  23
TORSDOF 4
ENDMDL
MODEL 7
REMARK VINA RESULT:      -6.9      3.721      5.610
REMARK  Name = NuBBE_2285
REMARK  6 active torsions:
REMARK  status: ('A' for Active; 'I' for Inactive)
REMARK    1  A    between atoms: C_1  and  C_2
REMARK    2  A    between atoms: C_1  and  C_4
REMARK    3  A    between atoms: C_9  and  O_12
REMARK    4  A    between atoms: O_12  and  C_13
REMARK    5  A    between atoms: C_15  and  C_20
REMARK    6  A    between atoms: C_17  and  C_19
REMARK                            x       y       z     vdW  Elec       q    Type
REMARK                         _______ _______ _______ _____ _____    ______ ____
ROOT
ATOM      1  C   LIG A   1      -6.627  -2.250 130.457  0.00  0.00    +0.041 C 
ATOM      2  C   LIG A   1      -5.273  -2.275 129.796  0.00  0.00    +0.109 C 
ATOM      3  C   LIG A   1      -4.189  -2.877 130.285  0.00  0.00    +0.090 C 
ATOM      4  C   LIG A   1      -4.239  -3.569 131.594  0.00  0.00    +0.188 C 
ATOM      5  O   LIG A   1      -3.178  -3.942 132.081  0.00  0.00    -0.290 OA
ATOM      6  C   LIG A   1      -5.611  -3.749 132.297  0.00  0.00    +0.189 C 
ATOM      7  C   LIG A   1      -6.764  -3.540 131.301  0.00  0.00    +0.055 C 
ATOM      8  O   LIG A   1      -5.265  -1.724 128.528  0.00  0.00    -0.487 OA
ATOM      9  C   LIG A   1      -6.627  -1.358 128.213  0.00  0.00    +0.207 C 
ATOM     10  C   LIG A   1      -7.522  -2.171 129.190  0.00  0.00    +0.045 C 
ATOM     11  C   LIG A   1      -7.938  -3.550 128.651  0.00  0.00    +0.012 C 
ENDROOT
BRANCH   9  12
ATOM     12  C   LIG A   1      -6.903  -1.489 126.723  0.00  0.00    -0.003 A 
ATOM     13  C   LIG A   1      -8.077  -0.944 126.169  0.00  0.00    +0.056 A 
ATOM     14  C   LIG A   1      -8.333  -1.153 124.828  0.00  0.00    +0.167 A 
ATOM     15  C   LIG A   1      -7.448  -1.815 124.012  0.00  0.00    +0.166 A 
ATOM     16  C   LIG A   1      -6.254  -2.301 124.491  0.00  0.00    +0.050 A 
ATOM     17  C   LIG A   1      -5.988  -2.141 125.857  0.00  0.00    +0.011 A 
ATOM     18  O   LIG A   1      -7.899  -1.922 122.733  0.00  0.00    -0.453 OA
ATOM     19  C   LIG A   1      -9.201  -1.313 122.854  0.00  0.00    +0.466 C 
ATOM     20  O   LIG A   1      -9.457  -0.767 124.166  0.00  0.00    -0.453 OA
ENDBRANCH   9  12
BRANCH   6  21
ATOM     21  O   LIG A   1      -5.841  -5.029 132.891  0.00  0.00    -0.372 OA
ATOM     22  C   LIG A   1      -6.290  -4.968 134.239  0.00  0.00    +0.195 C 
ENDBRANCH   6  21
BRANCH   1  23
ATOM     23  C   LIG A   1      -6.747  -0.955 131.328  0.00  0.00    +0.041 C 
BRANCH  23  24
ATOM     24  C   LIG A   1      -8.065  -0.783 132.040  0.00  0.00    -0.034 C 
ATOM     25  C   LIG A   1      -8.982   0.141 131.722  0.00  0.00    +0.004 C 
ENDBRANCH  23  24
ENDBRANCH   1  23
TORSDOF 4
ENDMDL
MODEL 8
REMARK VINA RESULT:      -6.9      4.254      7.485
REMARK  Name = NuBBE_2285
REMARK  6 active torsions:
REMARK  status: ('A' for Active; 'I' for Inactive)
REMARK    1  A    between atoms: C_1  and  C_2
REMARK    2  A    between atoms: C_1  and  C_4
REMARK    3  A    between atoms: C_9  and  O_12
REMARK    4  A    between atoms: O_12  and  C_13
REMARK    5  A    between atoms: C_15  and  C_20
REMARK    6  A    between atoms: C_17  and  C_19
REMARK                            x       y       z     vdW  Elec       q    Type
REMARK                         _______ _______ _______ _____ _____    ______ ____
ROOT
ATOM      1  C   LIG A   1      -5.443  -3.350 132.487  0.00  0.00    +0.041 C 
ATOM      2  C   LIG A   1      -4.925  -2.153 131.733  0.00  0.00    +0.109 C 
ATOM      3  C   LIG A   1      -3.733  -1.583 131.917  0.00  0.00    +0.090 C 
ATOM      4  C   LIG A   1      -2.805  -2.099 132.951  0.00  0.00    +0.188 C 
ATOM      5  O   LIG A   1      -1.809  -1.431 133.204  0.00  0.00    -0.290 OA
ATOM      6  C   LIG A   1      -3.155  -3.421 133.683  0.00  0.00    +0.189 C 
ATOM      7  C   LIG A   1      -4.224  -4.207 132.905  0.00  0.00    +0.055 C 
ATOM      8  O   LIG A   1      -5.749  -1.750 130.699  0.00  0.00    -0.487 OA
ATOM      9  C   LIG A   1      -6.842  -2.693 130.633  0.00  0.00    +0.207 C 
ATOM     10  C   LIG A   1      -6.356  -3.961 131.390  0.00  0.00    +0.045 C 
ATOM     11  C   LIG A   1      -5.634  -4.981 130.494  0.00  0.00    +0.012 C 
ENDROOT
BRANCH   9  12
ATOM     12  C   LIG A   1      -7.337  -2.865 129.205  0.00  0.00    -0.003 A 
ATOM     13  C   LIG A   1      -6.608  -2.316 128.133  0.00  0.00    +0.056 A 
ATOM     14  C   LIG A   1      -7.129  -2.423 126.857  0.00  0.00    +0.167 A 
ATOM     15  C   LIG A   1      -8.296  -3.101 126.602  0.00  0.00    +0.166 A 
ATOM     16  C   LIG A   1      -9.005  -3.716 127.607  0.00  0.00    +0.050 A 
ATOM     17  C   LIG A   1      -8.522  -3.588 128.915  0.00  0.00    +0.011 A 
ATOM     18  O   LIG A   1      -8.636  -3.074 125.285  0.00  0.00    -0.453 OA
ATOM     19  C   LIG A   1      -7.586  -2.240 124.753  0.00  0.00    +0.466 C 
ATOM     20  O   LIG A   1      -6.592  -1.875 125.733  0.00  0.00    -0.453 OA
ENDBRANCH   9  12
BRANCH   6  21
ATOM     21  O   LIG A   1      -2.070  -4.331 133.875  0.00  0.00    -0.372 OA
ATOM     22  C   LIG A   1      -2.476  -5.671 134.128  0.00  0.00    +0.195 C 
ENDBRANCH   6  21
BRANCH   1  23
ATOM     23  C   LIG A   1      -6.273  -2.858 133.720  0.00  0.00    +0.041 C 
BRANCH  23  24
ATOM     24  C   LIG A   1      -7.203  -3.885 134.314  0.00  0.00    -0.034 C 
ATOM     25  C   LIG A   1      -8.523  -3.709 134.472  0.00  0.00    +0.004 C 
ENDBRANCH  23  24
ENDBRANCH   1  23
TORSDOF 4
ENDMDL
MODEL 9
REMARK VINA RESULT:      -6.8      4.502      6.892
REMARK  Name = NuBBE_2285
REMARK  6 active torsions:
REMARK  status: ('A' for Active; 'I' for Inactive)
REMARK    1  A    between atoms: C_1  and  C_2
REMARK    2  A    between atoms: C_1  and  C_4
REMARK    3  A    between atoms: C_9  and  O_12
REMARK    4  A    between atoms: O_12  and  C_13
REMARK    5  A    between atoms: C_15  and  C_20
REMARK    6  A    between atoms: C_17  and  C_19
REMARK                            x       y       z     vdW  Elec       q    Type
REMARK                         _______ _______ _______ _____ _____    ______ ____
ROOT
ATOM      1  C   LIG A   1      -5.800   3.411 125.458  0.00  0.00    +0.041 C 
ATOM      2  C   LIG A   1      -6.694   3.673 126.641  0.00  0.00    +0.109 C 
ATOM      3  C   LIG A   1      -7.798   2.987 126.940  0.00  0.00    +0.090 C 
ATOM      4  C   LIG A   1      -8.257   1.884 126.063  0.00  0.00    +0.188 C 
ATOM      5  O   LIG A   1      -9.368   1.412 126.278  0.00  0.00    -0.290 OA
ATOM      6  C   LIG A   1      -7.340   1.414 124.903  0.00  0.00    +0.189 C 
ATOM      7  C   LIG A   1      -5.898   1.905 125.117  0.00  0.00    +0.055 C 
ATOM      8  O   LIG A   1      -6.199   4.628 127.510  0.00  0.00    -0.487 OA
ATOM      9  C   LIG A   1      -4.899   5.021 127.016  0.00  0.00    +0.207 C 
ATOM     10  C   LIG A   1      -4.447   3.883 126.057  0.00  0.00    +0.045 C 
ATOM     11  C   LIG A   1      -3.663   2.758 126.754  0.00  0.00    +0.012 C 
ENDROOT
BRANCH   9  12
ATOM     12  C   LIG A   1      -3.966   5.400 128.156  0.00  0.00    -0.003 A 
ATOM     13  C   LIG A   1      -4.257   4.994 129.473  0.00  0.00    +0.056 A 
ATOM     14  C   LIG A   1      -3.431   5.425 130.493  0.00  0.00    +0.167 A 
ATOM     15  C   LIG A   1      -2.307   6.177 130.252  0.00  0.00    +0.166 A 
ATOM     16  C   LIG A   1      -1.942   6.536 128.976  0.00  0.00    +0.050 A 
ATOM     17  C   LIG A   1      -2.784   6.149 127.926  0.00  0.00    +0.011 A 
ATOM     18  O   LIG A   1      -1.645   6.505 131.394  0.00  0.00    -0.453 OA
ATOM     19  C   LIG A   1      -2.521   5.932 132.387  0.00  0.00    +0.466 C 
ATOM     20  O   LIG A   1      -3.623   5.192 131.820  0.00  0.00    -0.453 OA
ENDBRANCH   9  12
BRANCH   6  21
ATOM     21  O   LIG A   1      -7.245   0.000 124.721  0.00  0.00    -0.372 OA
ATOM     22  C   LIG A   1      -7.934  -0.483 123.574  0.00  0.00    +0.195 C 
ENDBRANCH   6  21
BRANCH   1  23
ATOM     23  C   LIG A   1      -6.250   4.320 124.266  0.00  0.00    +0.041 C 
BRANCH  23  24
ATOM     24  C   LIG A   1      -5.319   4.327 123.080  0.00  0.00    -0.034 C 
ATOM     25  C   LIG A   1      -5.669   3.952 121.841  0.00  0.00    +0.004 C 
ENDBRANCH  23  24
ENDBRANCH   1  23
TORSDOF 4
ENDMDL
