MODEL 1
REMARK VINA RESULT:      -5.6      0.000      0.000
REMARK  Name = NuBBE_2130
REMARK  8 active torsions:
REMARK  status: ('A' for Active; 'I' for Inactive)
REMARK    1  A    between atoms: C_1  and  C_2
REMARK    2  A    between atoms: C_2  and  C_3
REMARK    3  A    between atoms: C_3  and  C_4
REMARK    4  A    between atoms: C_4  and  C_5
REMARK    5  A    between atoms: C_5  and  C_6
REMARK    6  A    between atoms: C_6  and  C_7
REMARK    7  A    between atoms: C_7  and  C_8
REMARK    8  A    between atoms: C_8  and  C_9
REMARK                            x       y       z     vdW  Elec       q    Type
REMARK                         _______ _______ _______ _____ _____    ______ ____
ROOT
ATOM      1  C   LIG A   1      -9.122  -3.339 124.228  0.00  0.00    +0.000 C 
ENDROOT
BRANCH   1   2
ATOM      2  C   LIG A   1      -8.778  -2.119 123.373  0.00  0.00    +0.000 C 
BRANCH   2   3
ATOM      3  C   LIG A   1      -7.376  -2.236 122.770  0.00  0.00    -0.000 C 
BRANCH   3   4
ATOM      4  C   LIG A   1      -6.376  -1.365 123.530  0.00  0.00    -0.000 C 
BRANCH   4   5
ATOM      5  C   LIG A   1      -5.485  -2.199 124.452  0.00  0.00    -0.000 C 
BRANCH   5   7
ATOM      6  C   LIG A   1      -4.165  -4.152 123.547  0.00  0.00    +0.004 C 
ATOM      7  C   LIG A   1      -5.516  -3.675 124.057  0.00  0.00    -0.003 C 
ENDBRANCH   5   7
ENDBRANCH   4   5
ENDBRANCH   3   4
ENDBRANCH   2   3
ENDBRANCH   1   2
BRANCH   1   8
ATOM      8  C   LIG A   1      -9.542  -2.927 125.642  0.00  0.00    +0.003 C 
BRANCH   8   9
ATOM      9  C   LIG A   1      -8.433  -3.152 126.672  0.00  0.00    -0.011 C 
ATOM     10  C   LIG A   1      -7.919  -1.848 127.278  0.00  0.00    +0.003 C 
ATOM     11  C   LIG A   1      -7.168  -2.322 128.511  0.00  0.00    +0.000 C 
ATOM     12  C   LIG A   1      -8.024  -3.457 129.065  0.00  0.00    +0.000 C 
ATOM     13  C   LIG A   1      -8.866  -3.966 127.895  0.00  0.00    +0.003 C 
ENDBRANCH   8   9
ENDBRANCH   1   8
TORSDOF 7
ENDMDL
MODEL 2
REMARK VINA RESULT:      -5.5     10.166     12.002
REMARK  Name = NuBBE_2130
REMARK  8 active torsions:
REMARK  status: ('A' for Active; 'I' for Inactive)
REMARK    1  A    between atoms: C_1  and  C_2
REMARK    2  A    between atoms: C_2  and  C_3
REMARK    3  A    between atoms: C_3  and  C_4
REMARK    4  A    between atoms: C_4  and  C_5
REMARK    5  A    between atoms: C_5  and  C_6
REMARK    6  A    between atoms: C_6  and  C_7
REMARK    7  A    between atoms: C_7  and  C_8
REMARK    8  A    between atoms: C_8  and  C_9
REMARK                            x       y       z     vdW  Elec       q    Type
REMARK                         _______ _______ _______ _____ _____    ______ ____
ROOT
ATOM      1  C   LIG A   1     -12.948   7.393 130.564  0.00  0.00    +0.000 C 
ENDROOT
BRANCH   1   2
ATOM      2  C   LIG A   1     -11.778   6.639 131.195  0.00  0.00    +0.000 C 
BRANCH   2   3
ATOM      3  C   LIG A   1     -11.317   5.479 130.310  0.00  0.00    -0.000 C 
BRANCH   3   4
ATOM      4  C   LIG A   1      -9.799   5.309 130.371  0.00  0.00    -0.000 C 
BRANCH   4   5
ATOM      5  C   LIG A   1      -9.091   6.637 130.643  0.00  0.00    -0.000 C 
BRANCH   5   7
ATOM      6  C   LIG A   1      -6.633   6.962 131.118  0.00  0.00    +0.004 C 
ATOM      7  C   LIG A   1      -7.963   6.460 131.659  0.00  0.00    -0.003 C 
ENDBRANCH   5   7
ENDBRANCH   4   5
ENDBRANCH   3   4
ENDBRANCH   2   3
ENDBRANCH   1   2
BRANCH   1   8
ATOM      8  C   LIG A   1     -12.484   8.701 129.918  0.00  0.00    +0.003 C 
BRANCH   8   9
ATOM      9  C   LIG A   1     -12.367   8.593 128.396  0.00  0.00    -0.011 C 
ATOM     10  C   LIG A   1     -10.943   8.281 127.936  0.00  0.00    +0.003 C 
ATOM     11  C   LIG A   1     -11.146   7.824 126.501  0.00  0.00    +0.000 C 
ATOM     12  C   LIG A   1     -12.426   6.998 126.541  0.00  0.00    +0.000 C 
ATOM     13  C   LIG A   1     -13.195   7.462 127.779  0.00  0.00    +0.003 C 
ENDBRANCH   8   9
ENDBRANCH   1   8
TORSDOF 7
ENDMDL
MODEL 3
REMARK VINA RESULT:      -5.2      1.136      4.963
REMARK  Name = NuBBE_2130
REMARK  8 active torsions:
REMARK  status: ('A' for Active; 'I' for Inactive)
REMARK    1  A    between atoms: C_1  and  C_2
REMARK    2  A    between atoms: C_2  and  C_3
REMARK    3  A    between atoms: C_3  and  C_4
REMARK    4  A    between atoms: C_4  and  C_5
REMARK    5  A    between atoms: C_5  and  C_6
REMARK    6  A    between atoms: C_6  and  C_7
REMARK    7  A    between atoms: C_7  and  C_8
REMARK    8  A    between atoms: C_8  and  C_9
REMARK                            x       y       z     vdW  Elec       q    Type
REMARK                         _______ _______ _______ _____ _____    ______ ____
ROOT
ATOM      1  C   LIG A   1      -5.534  -1.525 127.349  0.00  0.00    +0.000 C 
ENDROOT
BRANCH   1   2
ATOM      2  C   LIG A   1      -6.480  -2.451 128.114  0.00  0.00    +0.000 C 
BRANCH   2   3
ATOM      3  C   LIG A   1      -7.945  -2.134 127.806  0.00  0.00    -0.000 C 
BRANCH   3   4
ATOM      4  C   LIG A   1      -8.671  -3.363 127.260  0.00  0.00    -0.000 C 
BRANCH   4   5
ATOM      5  C   LIG A   1      -9.472  -3.033 126.000  0.00  0.00    -0.000 C 
BRANCH   5   7
ATOM      6  C   LIG A   1      -9.520  -3.199 123.480  0.00  0.00    +0.004 C 
ATOM      7  C   LIG A   1      -8.807  -3.622 124.756  0.00  0.00    -0.003 C 
ENDBRANCH   5   7
ENDBRANCH   4   5
ENDBRANCH   3   4
ENDBRANCH   2   3
ENDBRANCH   1   2
BRANCH   1   8
ATOM      8  C   LIG A   1      -6.235  -0.882 126.149  0.00  0.00    +0.003 C 
BRANCH   8   9
ATOM      9  C   LIG A   1      -5.614  -1.300 124.815  0.00  0.00    -0.011 C 
ATOM     10  C   LIG A   1      -5.417  -2.811 124.705  0.00  0.00    +0.003 C 
ATOM     11  C   LIG A   1      -5.197  -3.014 123.215  0.00  0.00    +0.000 C 
ATOM     12  C   LIG A   1      -6.168  -2.044 122.551  0.00  0.00    +0.000 C 
ATOM     13  C   LIG A   1      -6.468  -0.962 123.590  0.00  0.00    +0.003 C 
ENDBRANCH   8   9
ENDBRANCH   1   8
TORSDOF 7
ENDMDL
MODEL 4
REMARK VINA RESULT:      -5.0      1.211      2.393
REMARK  Name = NuBBE_2130
REMARK  8 active torsions:
REMARK  status: ('A' for Active; 'I' for Inactive)
REMARK    1  A    between atoms: C_1  and  C_2
REMARK    2  A    between atoms: C_2  and  C_3
REMARK    3  A    between atoms: C_3  and  C_4
REMARK    4  A    between atoms: C_4  and  C_5
REMARK    5  A    between atoms: C_5  and  C_6
REMARK    6  A    between atoms: C_6  and  C_7
REMARK    7  A    between atoms: C_7  and  C_8
REMARK    8  A    between atoms: C_8  and  C_9
REMARK                            x       y       z     vdW  Elec       q    Type
REMARK                         _______ _______ _______ _____ _____    ______ ____
ROOT
ATOM      1  C   LIG A   1      -8.195  -3.147 126.736  0.00  0.00    +0.000 C 
ENDROOT
BRANCH   1   2
ATOM      2  C   LIG A   1      -9.254  -3.094 125.635  0.00  0.00    +0.000 C 
BRANCH   2   3
ATOM      3  C   LIG A   1      -8.647  -3.378 124.260  0.00  0.00    -0.000 C 
BRANCH   3   4
ATOM      4  C   LIG A   1      -7.149  -3.667 124.369  0.00  0.00    -0.000 C 
BRANCH   4   5
ATOM      5  C   LIG A   1      -6.318  -2.652 123.583  0.00  0.00    -0.000 C 
BRANCH   5   7
ATOM      6  C   LIG A   1      -4.664  -4.550 123.783  0.00  0.00    +0.004 C 
ATOM      7  C   LIG A   1      -4.844  -3.058 123.550  0.00  0.00    -0.003 C 
ENDBRANCH   5   7
ENDBRANCH   4   5
ENDBRANCH   3   4
ENDBRANCH   2   3
ENDBRANCH   1   2
BRANCH   1   8
ATOM      8  C   LIG A   1      -8.751  -3.781 128.014  0.00  0.00    +0.003 C 
BRANCH   8   9
ATOM      9  C   LIG A   1      -8.199  -3.126 129.282  0.00  0.00    -0.011 C 
ATOM     10  C   LIG A   1      -6.939  -3.819 129.800  0.00  0.00    +0.003 C 
ATOM     11  C   LIG A   1      -6.363  -2.794 130.763  0.00  0.00    +0.000 C 
ATOM     12  C   LIG A   1      -6.601  -1.453 130.077  0.00  0.00    +0.000 C 
ATOM     13  C   LIG A   1      -7.754  -1.673 129.097  0.00  0.00    +0.003 C 
ENDBRANCH   8   9
ENDBRANCH   1   8
TORSDOF 7
ENDMDL
MODEL 5
REMARK VINA RESULT:      -4.9      1.195      4.860
REMARK  Name = NuBBE_2130
REMARK  8 active torsions:
REMARK  status: ('A' for Active; 'I' for Inactive)
REMARK    1  A    between atoms: C_1  and  C_2
REMARK    2  A    between atoms: C_2  and  C_3
REMARK    3  A    between atoms: C_3  and  C_4
REMARK    4  A    between atoms: C_4  and  C_5
REMARK    5  A    between atoms: C_5  and  C_6
REMARK    6  A    between atoms: C_6  and  C_7
REMARK    7  A    between atoms: C_7  and  C_8
REMARK    8  A    between atoms: C_8  and  C_9
REMARK                            x       y       z     vdW  Elec       q    Type
REMARK                         _______ _______ _______ _____ _____    ______ ____
ROOT
ATOM      1  C   LIG A   1      -5.807  -2.429 125.715  0.00  0.00    +0.000 C 
ENDROOT
BRANCH   1   2
ATOM      2  C   LIG A   1      -5.559  -1.033 126.289  0.00  0.00    +0.000 C 
BRANCH   2   3
ATOM      3  C   LIG A   1      -6.860  -0.384 126.765  0.00  0.00    -0.000 C 
BRANCH   3   4
ATOM      4  C   LIG A   1      -7.884  -1.442 127.178  0.00  0.00    -0.000 C 
BRANCH   4   5
ATOM      5  C   LIG A   1      -7.747  -1.816 128.654  0.00  0.00    -0.000 C 
BRANCH   5   7
ATOM      6  C   LIG A   1      -8.881  -3.918 127.834  0.00  0.00    +0.004 C 
ATOM      7  C   LIG A   1      -7.930  -3.320 128.859  0.00  0.00    -0.003 C 
ENDBRANCH   5   7
ENDBRANCH   4   5
ENDBRANCH   3   4
ENDBRANCH   2   3
ENDBRANCH   1   2
BRANCH   1   8
ATOM      8  C   LIG A   1      -5.589  -2.454 124.200  0.00  0.00    +0.003 C 
BRANCH   8   9
ATOM      9  C   LIG A   1      -6.896  -2.612 123.422  0.00  0.00    -0.011 C 
ATOM     10  C   LIG A   1      -7.938  -3.432 124.182  0.00  0.00    +0.003 C 
ATOM     11  C   LIG A   1      -9.225  -3.111 123.441  0.00  0.00    +0.000 C 
ATOM     12  C   LIG A   1      -9.114  -1.627 123.110  0.00  0.00    +0.000 C 
ATOM     13  C   LIG A   1      -7.621  -1.295 123.135  0.00  0.00    +0.003 C 
ENDBRANCH   8   9
ENDBRANCH   1   8
TORSDOF 7
ENDMDL
MODEL 6
REMARK VINA RESULT:      -4.9      1.608      5.146
REMARK  Name = NuBBE_2130
REMARK  8 active torsions:
REMARK  status: ('A' for Active; 'I' for Inactive)
REMARK    1  A    between atoms: C_1  and  C_2
REMARK    2  A    between atoms: C_2  and  C_3
REMARK    3  A    between atoms: C_3  and  C_4
REMARK    4  A    between atoms: C_4  and  C_5
REMARK    5  A    between atoms: C_5  and  C_6
REMARK    6  A    between atoms: C_6  and  C_7
REMARK    7  A    between atoms: C_7  and  C_8
REMARK    8  A    between atoms: C_8  and  C_9
REMARK                            x       y       z     vdW  Elec       q    Type
REMARK                         _______ _______ _______ _____ _____    ______ ____
ROOT
ATOM      1  C   LIG A   1      -8.564  -2.793 126.323  0.00  0.00    +0.000 C 
ENDROOT
BRANCH   1   2
ATOM      2  C   LIG A   1      -9.005  -3.848 127.337  0.00  0.00    +0.000 C 
BRANCH   2   3
ATOM      3  C   LIG A   1      -8.624  -3.446 128.764  0.00  0.00    -0.000 C 
BRANCH   3   4
ATOM      4  C   LIG A   1      -7.157  -3.024 128.844  0.00  0.00    -0.000 C 
BRANCH   4   5
ATOM      5  C   LIG A   1      -6.618  -3.121 130.272  0.00  0.00    -0.000 C 
BRANCH   5   7
ATOM      6  C   LIG A   1      -5.495  -5.272 130.971  0.00  0.00    +0.004 C 
ATOM      7  C   LIG A   1      -5.311  -3.913 130.314  0.00  0.00    -0.003 C 
ENDBRANCH   5   7
ENDBRANCH   4   5
ENDBRANCH   3   4
ENDBRANCH   2   3
ENDBRANCH   1   2
BRANCH   1   8
ATOM      8  C   LIG A   1      -9.045  -3.142 124.912  0.00  0.00    +0.003 C 
BRANCH   8   9
ATOM      9  C   LIG A   1      -7.908  -3.142 123.888  0.00  0.00    -0.011 C 
ATOM     10  C   LIG A   1      -7.771  -1.805 123.162  0.00  0.00    +0.003 C 
ATOM     11  C   LIG A   1      -6.387  -1.900 122.540  0.00  0.00    +0.000 C 
ATOM     12  C   LIG A   1      -5.540  -2.595 123.600  0.00  0.00    +0.000 C 
ATOM     13  C   LIG A   1      -6.518  -3.363 124.491  0.00  0.00    +0.003 C 
ENDBRANCH   8   9
ENDBRANCH   1   8
TORSDOF 7
ENDMDL
MODEL 7
REMARK VINA RESULT:      -4.8      2.082      3.780
REMARK  Name = NuBBE_2130
REMARK  8 active torsions:
REMARK  status: ('A' for Active; 'I' for Inactive)
REMARK    1  A    between atoms: C_1  and  C_2
REMARK    2  A    between atoms: C_2  and  C_3
REMARK    3  A    between atoms: C_3  and  C_4
REMARK    4  A    between atoms: C_4  and  C_5
REMARK    5  A    between atoms: C_5  and  C_6
REMARK    6  A    between atoms: C_6  and  C_7
REMARK    7  A    between atoms: C_7  and  C_8
REMARK    8  A    between atoms: C_8  and  C_9
REMARK                            x       y       z     vdW  Elec       q    Type
REMARK                         _______ _______ _______ _____ _____    ______ ____
ROOT
ATOM      1  C   LIG A   1      -8.456  -3.276 128.952  0.00  0.00    +0.000 C 
ENDROOT
BRANCH   1   2
ATOM      2  C   LIG A   1      -8.924  -3.976 127.676  0.00  0.00    +0.000 C 
BRANCH   2   3
ATOM      3  C   LIG A   1      -8.776  -3.067 126.453  0.00  0.00    -0.000 C 
BRANCH   3   4
ATOM      4  C   LIG A   1      -8.338  -3.865 125.225  0.00  0.00    -0.000 C 
BRANCH   4   5
ATOM      5  C   LIG A   1      -7.483  -3.021 124.278  0.00  0.00    -0.000 C 
BRANCH   5   7
ATOM      6  C   LIG A   1      -5.071  -3.684 123.935  0.00  0.00    +0.004 C 
ATOM      7  C   LIG A   1      -6.050  -2.899 124.794  0.00  0.00    -0.003 C 
ENDBRANCH   5   7
ENDBRANCH   4   5
ENDBRANCH   3   4
ENDBRANCH   2   3
ENDBRANCH   1   2
BRANCH   1   8
ATOM      8  C   LIG A   1      -6.975  -2.897 128.869  0.00  0.00    +0.003 C 
BRANCH   8   9
ATOM      9  C   LIG A   1      -6.246  -3.086 130.200  0.00  0.00    -0.011 C 
ATOM     10  C   LIG A   1      -7.194  -3.074 131.398  0.00  0.00    +0.003 C 
ATOM     11  C   LIG A   1      -6.345  -3.672 132.507  0.00  0.00    +0.000 C 
ATOM     12  C   LIG A   1      -5.553  -4.781 131.823  0.00  0.00    +0.000 C 
ATOM     13  C   LIG A   1      -5.521  -4.428 130.336  0.00  0.00    +0.003 C 
ENDBRANCH   8   9
ENDBRANCH   1   8
TORSDOF 7
ENDMDL
MODEL 8
REMARK VINA RESULT:      -4.7      1.731      4.960
REMARK  Name = NuBBE_2130
REMARK  8 active torsions:
REMARK  status: ('A' for Active; 'I' for Inactive)
REMARK    1  A    between atoms: C_1  and  C_2
REMARK    2  A    between atoms: C_2  and  C_3
REMARK    3  A    between atoms: C_3  and  C_4
REMARK    4  A    between atoms: C_4  and  C_5
REMARK    5  A    between atoms: C_5  and  C_6
REMARK    6  A    between atoms: C_6  and  C_7
REMARK    7  A    between atoms: C_7  and  C_8
REMARK    8  A    between atoms: C_8  and  C_9
REMARK                            x       y       z     vdW  Elec       q    Type
REMARK                         _______ _______ _______ _____ _____    ______ ____
ROOT
ATOM      1  C   LIG A   1      -5.440  -1.475 124.838  0.00  0.00    +0.000 C 
ENDROOT
BRANCH   1   2
ATOM      2  C   LIG A   1      -5.557  -0.921 126.258  0.00  0.00    +0.000 C 
BRANCH   2   3
ATOM      3  C   LIG A   1      -6.372  -1.854 127.157  0.00  0.00    -0.000 C 
BRANCH   3   4
ATOM      4  C   LIG A   1      -7.577  -1.128 127.756  0.00  0.00    -0.000 C 
BRANCH   4   5
ATOM      5  C   LIG A   1      -7.993   0.074 126.907  0.00  0.00    -0.000 C 
BRANCH   5   7
ATOM      6  C   LIG A   1      -9.622   0.918 125.172  0.00  0.00    +0.004 C 
ATOM      7  C   LIG A   1      -9.192  -0.267 126.022  0.00  0.00    -0.003 C 
ENDBRANCH   5   7
ENDBRANCH   4   5
ENDBRANCH   3   4
ENDBRANCH   2   3
ENDBRANCH   1   2
BRANCH   1   8
ATOM      8  C   LIG A   1      -5.921  -2.927 124.766  0.00  0.00    +0.003 C 
BRANCH   8   9
ATOM      9  C   LIG A   1      -7.096  -3.108 123.803  0.00  0.00    -0.011 C 
ATOM     10  C   LIG A   1      -8.378  -3.538 124.514  0.00  0.00    +0.003 C 
ATOM     11  C   LIG A   1      -9.450  -3.256 123.475  0.00  0.00    +0.000 C 
ATOM     12  C   LIG A   1      -9.015  -1.948 122.825  0.00  0.00    +0.000 C 
ATOM     13  C   LIG A   1      -7.509  -1.830 123.067  0.00  0.00    +0.003 C 
ENDBRANCH   8   9
ENDBRANCH   1   8
TORSDOF 7
ENDMDL
MODEL 9
REMARK VINA RESULT:      -4.6      2.132      4.865
REMARK  Name = NuBBE_2130
REMARK  8 active torsions:
REMARK  status: ('A' for Active; 'I' for Inactive)
REMARK    1  A    between atoms: C_1  and  C_2
REMARK    2  A    between atoms: C_2  and  C_3
REMARK    3  A    between atoms: C_3  and  C_4
REMARK    4  A    between atoms: C_4  and  C_5
REMARK    5  A    between atoms: C_5  and  C_6
REMARK    6  A    between atoms: C_6  and  C_7
REMARK    7  A    between atoms: C_7  and  C_8
REMARK    8  A    between atoms: C_8  and  C_9
REMARK                            x       y       z     vdW  Elec       q    Type
REMARK                         _______ _______ _______ _____ _____    ______ ____
ROOT
ATOM      1  C   LIG A   1      -5.680  -2.296 126.045  0.00  0.00    +0.000 C 
ENDROOT
BRANCH   1   2
ATOM      2  C   LIG A   1      -5.609  -0.883 126.624  0.00  0.00    +0.000 C 
BRANCH   2   3
ATOM      3  C   LIG A   1      -5.924   0.173 125.562  0.00  0.00    -0.000 C 
BRANCH   3   4
ATOM      4  C   LIG A   1      -7.161   0.986 125.945  0.00  0.00    -0.000 C 
BRANCH   4   5
ATOM      5  C   LIG A   1      -8.287   0.092 126.465  0.00  0.00    -0.000 C 
BRANCH   5   7
ATOM      6  C   LIG A   1      -9.403   1.382 124.604  0.00  0.00    +0.004 C 
ATOM      7  C   LIG A   1      -9.580   0.326 125.683  0.00  0.00    -0.003 C 
ENDBRANCH   5   7
ENDBRANCH   4   5
ENDBRANCH   3   4
ENDBRANCH   2   3
ENDBRANCH   1   2
BRANCH   1   8
ATOM      8  C   LIG A   1      -5.600  -2.276 124.516  0.00  0.00    +0.003 C 
BRANCH   8   9
ATOM      9  C   LIG A   1      -6.860  -2.839 123.856  0.00  0.00    -0.011 C 
ATOM     10  C   LIG A   1      -7.917  -3.266 124.873  0.00  0.00    +0.003 C 
ATOM     11  C   LIG A   1      -9.172  -3.386 124.024  0.00  0.00    +0.000 C 
ATOM     12  C   LIG A   1      -9.085  -2.218 123.049  0.00  0.00    +0.000 C 
ATOM     13  C   LIG A   1      -7.606  -1.838 122.968  0.00  0.00    +0.003 C 
ENDBRANCH   8   9
ENDBRANCH   1   8
TORSDOF 7
ENDMDL
