MODEL 1
REMARK VINA RESULT:      -6.8      0.000      0.000
REMARK  Name = NuBBE_148
REMARK  12 active torsions:
REMARK  status: ('A' for Active; 'I' for Inactive)
REMARK    1  A    between atoms: O_1  and  C_2
REMARK    2  A    between atoms: C_2  and  C_3
REMARK    3  A    between atoms: C_5  and  C_6
REMARK    4  A    between atoms: C_6  and  C_7
REMARK    5  A    between atoms: C_8  and  C_9
REMARK    6  A    between atoms: C_8  and  C_10
REMARK    7  A    between atoms: C_13  and  C_14
REMARK    8  A    between atoms: C_13  and  C_20
REMARK    9  A    between atoms: C_14  and  C_15
REMARK   10  A    between atoms: C_15  and  C_16
REMARK   11  A    between atoms: C_17  and  C_18
REMARK   12  A    between atoms: C_17  and  C_19
REMARK                            x       y       z     vdW  Elec       q    Type
REMARK                         _______ _______ _______ _____ _____    ______ ____
ROOT
ATOM      1  C   LIG A   1      -8.589  -2.388 124.850  0.00  0.00    +0.060 A 
ATOM      2  C   LIG A   1      -7.357  -1.736 124.846  0.00  0.00    +0.022 A 
ATOM      3  C   LIG A   1      -6.550  -1.640 125.992  0.00  0.00    -0.001 A 
ATOM      4  C   LIG A   1      -7.005  -2.266 127.166  0.00  0.00    +0.132 A 
ATOM      5  O   LIG A   1      -6.260  -2.067 128.298  0.00  0.00    -0.481 OA
ATOM      6  C   LIG A   1      -6.798  -2.455 129.579  0.00  0.00    +0.127 C 
ATOM      7  C   LIG A   1      -5.659  -3.277 130.209  0.00  0.00    +0.060 C 
ATOM      8  C   LIG A   1      -8.007  -3.362 129.524  0.00  0.00    +0.021 C 
ATOM      9  C   LIG A   1      -8.640  -3.665 128.389  0.00  0.00    +0.011 C 
ATOM     10  C   LIG A   1      -8.195  -3.009 127.169  0.00  0.00    +0.018 A 
ATOM     11  C   LIG A   1      -8.980  -3.075 126.007  0.00  0.00    +0.026 A 
ENDROOT
BRANCH   1  12
ATOM     12  C   LIG A   1      -9.522  -2.345 123.682  0.00  0.00    +0.337 C 
ATOM     13  O   LIG A   1      -9.664  -1.355 123.004  0.00  0.00    -0.245 OA
BRANCH  12  14
ATOM     14  O   LIG A   1     -10.171  -3.501 123.387  0.00  0.00    -0.477 OA
ATOM     15  H   LIG A   1     -10.974  -3.724 123.859  0.00  0.00    +0.295 HD
ENDBRANCH  12  14
ENDBRANCH   1  12
BRANCH   3  16
ATOM     16  C   LIG A   1      -5.201  -0.931 125.935  0.00  0.00    +0.066 C 
BRANCH  16  17
ATOM     17  C   LIG A   1      -5.252   0.585 125.851  0.00  0.00    -0.023 C 
ATOM     18  C   LIG A   1      -5.095   1.467 126.858  0.00  0.00    -0.079 C 
ATOM     19  C   LIG A   1      -4.831   1.097 128.288  0.00  0.00    +0.038 C 
ATOM     20  C   LIG A   1      -5.203   2.947 126.597  0.00  0.00    +0.038 C 
ENDBRANCH  16  17
ENDBRANCH   3  16
BRANCH   6  21
ATOM     21  C   LIG A   1      -7.063  -1.194 130.450  0.00  0.00    +0.056 C 
BRANCH  21  22
ATOM     22  C   LIG A   1      -8.372  -0.417 130.195  0.00  0.00    +0.031 C 
BRANCH  22  23
ATOM     23  C   LIG A   1      -8.227   1.062 129.944  0.00  0.00    -0.028 C 
ATOM     24  C   LIG A   1      -8.355   1.717 128.775  0.00  0.00    -0.080 C 
ATOM     25  C   LIG A   1      -8.658   1.066 127.460  0.00  0.00    +0.038 C 
ATOM     26  C   LIG A   1      -8.239   3.212 128.673  0.00  0.00    +0.038 C 
ENDBRANCH  22  23
ENDBRANCH  21  22
ENDBRANCH   6  21
TORSDOF 7
ENDMDL
MODEL 2
REMARK VINA RESULT:      -6.8      2.468      5.287
REMARK  Name = NuBBE_148
REMARK  12 active torsions:
REMARK  status: ('A' for Active; 'I' for Inactive)
REMARK    1  A    between atoms: O_1  and  C_2
REMARK    2  A    between atoms: C_2  and  C_3
REMARK    3  A    between atoms: C_5  and  C_6
REMARK    4  A    between atoms: C_6  and  C_7
REMARK    5  A    between atoms: C_8  and  C_9
REMARK    6  A    between atoms: C_8  and  C_10
REMARK    7  A    between atoms: C_13  and  C_14
REMARK    8  A    between atoms: C_13  and  C_20
REMARK    9  A    between atoms: C_14  and  C_15
REMARK   10  A    between atoms: C_15  and  C_16
REMARK   11  A    between atoms: C_17  and  C_18
REMARK   12  A    between atoms: C_17  and  C_19
REMARK                            x       y       z     vdW  Elec       q    Type
REMARK                         _______ _______ _______ _____ _____    ______ ____
ROOT
ATOM      1  C   LIG A   1      -6.069  -2.963 123.824  0.00  0.00    +0.060 A 
ATOM      2  C   LIG A   1      -7.130  -3.369 124.634  0.00  0.00    +0.022 A 
ATOM      3  C   LIG A   1      -8.208  -2.525 124.945  0.00  0.00    -0.001 A 
ATOM      4  C   LIG A   1      -8.216  -1.238 124.377  0.00  0.00    +0.132 A 
ATOM      5  O   LIG A   1      -9.216  -0.393 124.781  0.00  0.00    -0.481 OA
ATOM      6  C   LIG A   1      -9.139   1.007 124.446  0.00  0.00    +0.127 C 
ATOM      7  C   LIG A   1     -10.525   1.307 123.848  0.00  0.00    +0.060 C 
ATOM      8  C   LIG A   1      -8.123   1.363 123.383  0.00  0.00    +0.021 C 
ATOM      9  C   LIG A   1      -7.245   0.487 122.892  0.00  0.00    +0.011 C 
ATOM     10  C   LIG A   1      -7.210  -0.842 123.484  0.00  0.00    +0.018 A 
ATOM     11  C   LIG A   1      -6.143  -1.710 123.203  0.00  0.00    +0.026 A 
ENDROOT
BRANCH   1  12
ATOM     12  C   LIG A   1      -4.844  -3.798 123.631  0.00  0.00    +0.337 C 
ATOM     13  O   LIG A   1      -3.781  -3.322 123.307  0.00  0.00    -0.245 OA
BRANCH  12  14
ATOM     14  O   LIG A   1      -4.974  -5.125 123.890  0.00  0.00    -0.477 OA
ATOM     15  H   LIG A   1      -4.290  -5.578 124.385  0.00  0.00    +0.295 HD
ENDBRANCH  12  14
ENDBRANCH   1  12
BRANCH   3  16
ATOM     16  C   LIG A   1      -9.355  -3.020 125.821  0.00  0.00    +0.066 C 
BRANCH  16  17
ATOM     17  C   LIG A   1      -8.955  -3.624 127.157  0.00  0.00    -0.023 C 
ATOM     18  C   LIG A   1      -8.256  -3.035 128.146  0.00  0.00    -0.079 C 
ATOM     19  C   LIG A   1      -7.731  -1.629 128.106  0.00  0.00    +0.038 C 
ATOM     20  C   LIG A   1      -7.925  -3.798 129.403  0.00  0.00    +0.038 C 
ENDBRANCH  16  17
ENDBRANCH   3  16
BRANCH   6  21
ATOM     21  C   LIG A   1      -8.943   1.853 125.737  0.00  0.00    +0.056 C 
BRANCH  21  22
ATOM     22  C   LIG A   1      -7.879   1.371 126.746  0.00  0.00    +0.031 C 
BRANCH  22  23
ATOM     23  C   LIG A   1      -6.546   2.073 126.687  0.00  0.00    -0.028 C 
ATOM     24  C   LIG A   1      -5.340   1.533 126.428  0.00  0.00    -0.080 C 
ATOM     25  C   LIG A   1      -5.094   0.080 126.160  0.00  0.00    +0.038 C 
ATOM     26  C   LIG A   1      -4.089   2.362 126.343  0.00  0.00    +0.038 C 
ENDBRANCH  22  23
ENDBRANCH  21  22
ENDBRANCH   6  21
TORSDOF 7
ENDMDL
MODEL 3
REMARK VINA RESULT:      -6.7      3.348      6.376
REMARK  Name = NuBBE_148
REMARK  12 active torsions:
REMARK  status: ('A' for Active; 'I' for Inactive)
REMARK    1  A    between atoms: O_1  and  C_2
REMARK    2  A    between atoms: C_2  and  C_3
REMARK    3  A    between atoms: C_5  and  C_6
REMARK    4  A    between atoms: C_6  and  C_7
REMARK    5  A    between atoms: C_8  and  C_9
REMARK    6  A    between atoms: C_8  and  C_10
REMARK    7  A    between atoms: C_13  and  C_14
REMARK    8  A    between atoms: C_13  and  C_20
REMARK    9  A    between atoms: C_14  and  C_15
REMARK   10  A    between atoms: C_15  and  C_16
REMARK   11  A    between atoms: C_17  and  C_18
REMARK   12  A    between atoms: C_17  and  C_19
REMARK                            x       y       z     vdW  Elec       q    Type
REMARK                         _______ _______ _______ _____ _____    ______ ____
ROOT
ATOM      1  C   LIG A   1      -7.474   3.190 122.230  0.00  0.00    +0.060 A 
ATOM      2  C   LIG A   1      -8.447   2.258 122.591  0.00  0.00    +0.022 A 
ATOM      3  C   LIG A   1      -8.378   1.519 123.782  0.00  0.00    -0.001 A 
ATOM      4  C   LIG A   1      -7.299   1.771 124.648  0.00  0.00    +0.132 A 
ATOM      5  O   LIG A   1      -7.191   0.962 125.748  0.00  0.00    -0.481 OA
ATOM      6  C   LIG A   1      -5.980   0.990 126.531  0.00  0.00    +0.127 C 
ATOM      7  C   LIG A   1      -6.493   1.155 127.974  0.00  0.00    +0.060 C 
ATOM      8  C   LIG A   1      -5.062   2.161 126.262  0.00  0.00    +0.021 C 
ATOM      9  C   LIG A   1      -5.262   3.030 125.269  0.00  0.00    +0.011 C 
ATOM     10  C   LIG A   1      -6.361   2.770 124.352  0.00  0.00    +0.018 A 
ATOM     11  C   LIG A   1      -6.456   3.484 123.147  0.00  0.00    +0.026 A 
ENDROOT
BRANCH   1  12
ATOM     12  C   LIG A   1      -7.456   3.852 120.889  0.00  0.00    +0.337 C 
ATOM     13  O   LIG A   1      -6.430   4.058 120.283  0.00  0.00    -0.245 OA
BRANCH  12  14
ATOM     14  O   LIG A   1      -8.665   4.167 120.358  0.00  0.00    -0.477 OA
ATOM     15  H   LIG A   1      -9.110   3.536 119.791  0.00  0.00    +0.295 HD
ENDBRANCH  12  14
ENDBRANCH   1  12
BRANCH   3  16
ATOM     16  C   LIG A   1      -9.477   0.522 124.142  0.00  0.00    +0.066 C 
BRANCH  16  17
ATOM     17  C   LIG A   1      -9.324  -0.872 123.558  0.00  0.00    -0.023 C 
ATOM     18  C   LIG A   1      -9.298  -2.041 124.226  0.00  0.00    -0.079 C 
ATOM     19  C   LIG A   1      -9.423  -2.181 125.716  0.00  0.00    +0.038 C 
ATOM     20  C   LIG A   1      -9.111  -3.339 123.483  0.00  0.00    +0.038 C 
ENDBRANCH  16  17
ENDBRANCH   3  16
BRANCH   6  21
ATOM     21  C   LIG A   1      -5.234  -0.369 126.405  0.00  0.00    +0.056 C 
BRANCH  21  22
ATOM     22  C   LIG A   1      -6.071  -1.604 126.008  0.00  0.00    +0.031 C 
BRANCH  22  23
ATOM     23  C   LIG A   1      -5.322  -2.719 125.323  0.00  0.00    -0.028 C 
ATOM     24  C   LIG A   1      -5.194  -2.935 124.001  0.00  0.00    -0.080 C 
ATOM     25  C   LIG A   1      -5.813  -2.087 122.932  0.00  0.00    +0.038 C 
ATOM     26  C   LIG A   1      -4.367  -4.061 123.446  0.00  0.00    +0.038 C 
ENDBRANCH  22  23
ENDBRANCH  21  22
ENDBRANCH   6  21
TORSDOF 7
ENDMDL
MODEL 4
REMARK VINA RESULT:      -6.6      5.330      8.007
REMARK  Name = NuBBE_148
REMARK  12 active torsions:
REMARK  status: ('A' for Active; 'I' for Inactive)
REMARK    1  A    between atoms: O_1  and  C_2
REMARK    2  A    between atoms: C_2  and  C_3
REMARK    3  A    between atoms: C_5  and  C_6
REMARK    4  A    between atoms: C_6  and  C_7
REMARK    5  A    between atoms: C_8  and  C_9
REMARK    6  A    between atoms: C_8  and  C_10
REMARK    7  A    between atoms: C_13  and  C_14
REMARK    8  A    between atoms: C_13  and  C_20
REMARK    9  A    between atoms: C_14  and  C_15
REMARK   10  A    between atoms: C_15  and  C_16
REMARK   11  A    between atoms: C_17  and  C_18
REMARK   12  A    between atoms: C_17  and  C_19
REMARK                            x       y       z     vdW  Elec       q    Type
REMARK                         _______ _______ _______ _____ _____    ______ ____
ROOT
ATOM      1  C   LIG A   1     -10.174   6.024 130.767  0.00  0.00    +0.060 A 
ATOM      2  C   LIG A   1      -8.938   6.621 131.016  0.00  0.00    +0.022 A 
ATOM      3  C   LIG A   1      -7.728   5.913 130.933  0.00  0.00    -0.001 A 
ATOM      4  C   LIG A   1      -7.785   4.562 130.546  0.00  0.00    +0.132 A 
ATOM      5  O   LIG A   1      -6.609   3.862 130.580  0.00  0.00    -0.481 OA
ATOM      6  C   LIG A   1      -6.634   2.426 130.450  0.00  0.00    +0.127 C 
ATOM      7  C   LIG A   1      -5.581   2.148 129.362  0.00  0.00    +0.060 C 
ATOM      8  C   LIG A   1      -7.937   1.845 129.948  0.00  0.00    +0.021 C 
ATOM      9  C   LIG A   1      -9.043   2.573 129.782  0.00  0.00    +0.011 C 
ATOM     10  C   LIG A   1      -9.006   3.967 130.198  0.00  0.00    +0.018 A 
ATOM     11  C   LIG A   1     -10.198   4.703 130.301  0.00  0.00    +0.026 A 
ENDROOT
BRANCH   1  12
ATOM     12  C   LIG A   1     -11.468   6.728 131.019  0.00  0.00    +0.337 C 
ATOM     13  O   LIG A   1     -11.849   7.648 130.333  0.00  0.00    -0.245 OA
BRANCH  12  14
ATOM     14  O   LIG A   1     -12.228   6.244 132.035  0.00  0.00    -0.477 OA
ATOM     15  H   LIG A   1     -12.117   6.601 132.918  0.00  0.00    +0.295 HD
ENDBRANCH  12  14
ENDBRANCH   1  12
BRANCH   3  16
ATOM     16  C   LIG A   1      -6.399   6.614 131.198  0.00  0.00    +0.066 C 
BRANCH  16  17
ATOM     17  C   LIG A   1      -5.745   6.312 132.536  0.00  0.00    -0.023 C 
ATOM     18  C   LIG A   1      -4.581   5.670 132.752  0.00  0.00    -0.079 C 
ATOM     19  C   LIG A   1      -3.690   5.123 131.676  0.00  0.00    +0.038 C 
ATOM     20  C   LIG A   1      -4.092   5.434 134.158  0.00  0.00    +0.038 C 
ENDBRANCH  16  17
ENDBRANCH   3  16
BRANCH   6  21
ATOM     21  C   LIG A   1      -6.183   1.763 131.783  0.00  0.00    +0.056 C 
BRANCH  21  22
ATOM     22  C   LIG A   1      -7.165   1.821 132.972  0.00  0.00    +0.031 C 
BRANCH  22  23
ATOM     23  C   LIG A   1      -7.022   3.006 133.892  0.00  0.00    -0.028 C 
ATOM     24  C   LIG A   1      -7.977   3.876 134.271  0.00  0.00    -0.080 C 
ATOM     25  C   LIG A   1      -9.403   3.833 133.814  0.00  0.00    +0.038 C 
ATOM     26  C   LIG A   1      -7.710   4.991 135.245  0.00  0.00    +0.038 C 
ENDBRANCH  22  23
ENDBRANCH  21  22
ENDBRANCH   6  21
TORSDOF 7
ENDMDL
MODEL 5
REMARK VINA RESULT:      -6.6      5.347      8.573
REMARK  Name = NuBBE_148
REMARK  12 active torsions:
REMARK  status: ('A' for Active; 'I' for Inactive)
REMARK    1  A    between atoms: O_1  and  C_2
REMARK    2  A    between atoms: C_2  and  C_3
REMARK    3  A    between atoms: C_5  and  C_6
REMARK    4  A    between atoms: C_6  and  C_7
REMARK    5  A    between atoms: C_8  and  C_9
REMARK    6  A    between atoms: C_8  and  C_10
REMARK    7  A    between atoms: C_13  and  C_14
REMARK    8  A    between atoms: C_13  and  C_20
REMARK    9  A    between atoms: C_14  and  C_15
REMARK   10  A    between atoms: C_15  and  C_16
REMARK   11  A    between atoms: C_17  and  C_18
REMARK   12  A    between atoms: C_17  and  C_19
REMARK                            x       y       z     vdW  Elec       q    Type
REMARK                         _______ _______ _______ _____ _____    ______ ____
ROOT
ATOM      1  C   LIG A   1     -10.166   6.425 130.728  0.00  0.00    +0.060 A 
ATOM      2  C   LIG A   1     -10.255   5.357 131.621  0.00  0.00    +0.022 A 
ATOM      3  C   LIG A   1      -9.132   4.822 132.272  0.00  0.00    -0.001 A 
ATOM      4  C   LIG A   1      -7.885   5.427 132.028  0.00  0.00    +0.132 A 
ATOM      5  O   LIG A   1      -6.789   4.822 132.584  0.00  0.00    -0.481 OA
ATOM      6  C   LIG A   1      -5.469   5.228 132.169  0.00  0.00    +0.127 C 
ATOM      7  C   LIG A   1      -4.735   5.470 133.501  0.00  0.00    +0.060 C 
ATOM      8  C   LIG A   1      -5.404   6.527 131.397  0.00  0.00    +0.021 C 
ATOM      9  C   LIG A   1      -6.490   7.184 130.985  0.00  0.00    +0.011 C 
ATOM     10  C   LIG A   1      -7.785   6.561 131.210  0.00  0.00    +0.018 A 
ATOM     11  C   LIG A   1      -8.929   7.063 130.568  0.00  0.00    +0.026 A 
ENDROOT
BRANCH   1  12
ATOM     12  C   LIG A   1     -11.330   6.883 129.909  0.00  0.00    +0.337 C 
ATOM     13  O   LIG A   1     -11.621   8.051 129.794  0.00  0.00    -0.245 OA
BRANCH  12  14
ATOM     14  O   LIG A   1     -12.021   5.916 129.252  0.00  0.00    -0.477 OA
ATOM     15  H   LIG A   1     -12.733   6.163 128.661  0.00  0.00    +0.295 HD
ENDBRANCH  12  14
ENDBRANCH   1  12
BRANCH   3  16
ATOM     16  C   LIG A   1      -9.281   3.664 133.254  0.00  0.00    +0.066 C 
BRANCH  16  17
ATOM     17  C   LIG A   1      -9.425   2.285 132.635  0.00  0.00    -0.023 C 
ATOM     18  C   LIG A   1      -8.486   1.322 132.553  0.00  0.00    -0.079 C 
ATOM     19  C   LIG A   1      -7.084   1.443 133.077  0.00  0.00    +0.038 C 
ATOM     20  C   LIG A   1      -8.796   0.012 131.876  0.00  0.00    +0.038 C 
ENDBRANCH  16  17
ENDBRANCH   3  16
BRANCH   6  21
ATOM     21  C   LIG A   1      -4.772   4.067 131.404  0.00  0.00    +0.056 C 
BRANCH  21  22
ATOM     22  C   LIG A   1      -5.231   3.796 129.955  0.00  0.00    +0.031 C 
BRANCH  22  23
ATOM     23  C   LIG A   1      -6.442   2.913 129.798  0.00  0.00    -0.028 C 
ATOM     24  C   LIG A   1      -7.556   3.159 129.083  0.00  0.00    -0.080 C 
ATOM     25  C   LIG A   1      -7.809   4.412 128.300  0.00  0.00    +0.038 C 
ATOM     26  C   LIG A   1      -8.675   2.162 128.965  0.00  0.00    +0.038 C 
ENDBRANCH  22  23
ENDBRANCH  21  22
ENDBRANCH   6  21
TORSDOF 7
ENDMDL
MODEL 6
REMARK VINA RESULT:      -6.6      3.238      5.789
REMARK  Name = NuBBE_148
REMARK  12 active torsions:
REMARK  status: ('A' for Active; 'I' for Inactive)
REMARK    1  A    between atoms: O_1  and  C_2
REMARK    2  A    between atoms: C_2  and  C_3
REMARK    3  A    between atoms: C_5  and  C_6
REMARK    4  A    between atoms: C_6  and  C_7
REMARK    5  A    between atoms: C_8  and  C_9
REMARK    6  A    between atoms: C_8  and  C_10
REMARK    7  A    between atoms: C_13  and  C_14
REMARK    8  A    between atoms: C_13  and  C_20
REMARK    9  A    between atoms: C_14  and  C_15
REMARK   10  A    between atoms: C_15  and  C_16
REMARK   11  A    between atoms: C_17  and  C_18
REMARK   12  A    between atoms: C_17  and  C_19
REMARK                            x       y       z     vdW  Elec       q    Type
REMARK                         _______ _______ _______ _____ _____    ______ ____
ROOT
ATOM      1  C   LIG A   1      -8.155   2.511 126.557  0.00  0.00    +0.060 A 
ATOM      2  C   LIG A   1      -7.753   2.807 125.255  0.00  0.00    +0.022 A 
ATOM      3  C   LIG A   1      -7.745   1.847 124.230  0.00  0.00    -0.001 A 
ATOM      4  C   LIG A   1      -8.200   0.554 124.543  0.00  0.00    +0.132 A 
ATOM      5  O   LIG A   1      -8.080  -0.395 123.562  0.00  0.00    -0.481 OA
ATOM      6  C   LIG A   1      -8.280  -1.784 123.891  0.00  0.00    +0.127 C 
ATOM      7  C   LIG A   1      -9.267  -2.267 122.811  0.00  0.00    +0.060 C 
ATOM      8  C   LIG A   1      -8.940  -2.044 125.226  0.00  0.00    +0.021 C 
ATOM      9  C   LIG A   1      -9.183  -1.082 126.118  0.00  0.00    +0.011 C 
ATOM     10  C   LIG A   1      -8.699   0.257 125.819  0.00  0.00    +0.018 A 
ATOM     11  C   LIG A   1      -8.683   1.240 126.822  0.00  0.00    +0.026 A 
ENDROOT
BRANCH   1  12
ATOM     12  C   LIG A   1      -8.003   3.482 127.683  0.00  0.00    +0.337 C 
ATOM     13  O   LIG A   1      -8.650   3.400 128.701  0.00  0.00    -0.245 OA
BRANCH  12  14
ATOM     14  O   LIG A   1      -7.056   4.443 127.525  0.00  0.00    -0.477 OA
ATOM     15  H   LIG A   1      -6.148   4.255 127.765  0.00  0.00    +0.295 HD
ENDBRANCH  12  14
ENDBRANCH   1  12
BRANCH   3  16
ATOM     16  C   LIG A   1      -7.313   2.224 122.816  0.00  0.00    +0.066 C 
BRANCH  16  17
ATOM     17  C   LIG A   1      -6.159   3.207 122.715  0.00  0.00    -0.023 C 
ATOM     18  C   LIG A   1      -5.784   3.922 121.637  0.00  0.00    -0.079 C 
ATOM     19  C   LIG A   1      -6.463   3.877 120.299  0.00  0.00    +0.038 C 
ATOM     20  C   LIG A   1      -4.590   4.838 121.709  0.00  0.00    +0.038 C 
ENDBRANCH  16  17
ENDBRANCH   3  16
BRANCH   6  21
ATOM     21  C   LIG A   1      -6.941  -2.563 123.747  0.00  0.00    +0.056 C 
BRANCH  21  22
ATOM     22  C   LIG A   1      -5.684  -1.938 124.388  0.00  0.00    +0.031 C 
BRANCH  22  23
ATOM     23  C   LIG A   1      -5.639  -1.941 125.895  0.00  0.00    -0.028 C 
ATOM     24  C   LIG A   1      -5.368  -0.908 126.714  0.00  0.00    -0.080 C 
ATOM     25  C   LIG A   1      -5.030   0.479 126.258  0.00  0.00    +0.038 C 
ATOM     26  C   LIG A   1      -5.411  -1.035 128.212  0.00  0.00    +0.038 C 
ENDBRANCH  22  23
ENDBRANCH  21  22
ENDBRANCH   6  21
TORSDOF 7
ENDMDL
MODEL 7
REMARK VINA RESULT:      -6.5      3.182      5.680
REMARK  Name = NuBBE_148
REMARK  12 active torsions:
REMARK  status: ('A' for Active; 'I' for Inactive)
REMARK    1  A    between atoms: O_1  and  C_2
REMARK    2  A    between atoms: C_2  and  C_3
REMARK    3  A    between atoms: C_5  and  C_6
REMARK    4  A    between atoms: C_6  and  C_7
REMARK    5  A    between atoms: C_8  and  C_9
REMARK    6  A    between atoms: C_8  and  C_10
REMARK    7  A    between atoms: C_13  and  C_14
REMARK    8  A    between atoms: C_13  and  C_20
REMARK    9  A    between atoms: C_14  and  C_15
REMARK   10  A    between atoms: C_15  and  C_16
REMARK   11  A    between atoms: C_17  and  C_18
REMARK   12  A    between atoms: C_17  and  C_19
REMARK                            x       y       z     vdW  Elec       q    Type
REMARK                         _______ _______ _______ _____ _____    ______ ____
ROOT
ATOM      1  C   LIG A   1      -5.443  -3.268 124.276  0.00  0.00    +0.060 A 
ATOM      2  C   LIG A   1      -5.316  -2.787 125.579  0.00  0.00    +0.022 A 
ATOM      3  C   LIG A   1      -6.135  -1.767 126.089  0.00  0.00    -0.001 A 
ATOM      4  C   LIG A   1      -7.140  -1.253 125.249  0.00  0.00    +0.132 A 
ATOM      5  O   LIG A   1      -7.853  -0.185 125.726  0.00  0.00    -0.481 OA
ATOM      6  C   LIG A   1      -8.710   0.552 124.830  0.00  0.00    +0.127 C 
ATOM      7  C   LIG A   1     -10.044   0.629 125.595  0.00  0.00    +0.060 C 
ATOM      8  C   LIG A   1      -9.006  -0.129 123.512  0.00  0.00    +0.021 C 
ATOM      9  C   LIG A   1      -8.405  -1.254 123.122  0.00  0.00    +0.011 C 
ATOM     10  C   LIG A   1      -7.348  -1.787 123.970  0.00  0.00    +0.018 A 
ATOM     11  C   LIG A   1      -6.503  -2.800 123.489  0.00  0.00    +0.026 A 
ENDROOT
BRANCH   1  12
ATOM     12  C   LIG A   1      -4.466  -4.229 123.678  0.00  0.00    +0.337 C 
ATOM     13  O   LIG A   1      -3.377  -3.884 123.283  0.00  0.00    -0.245 OA
BRANCH  12  14
ATOM     14  O   LIG A   1      -4.846  -5.533 123.648  0.00  0.00    -0.477 OA
ATOM     15  H   LIG A   1      -5.425  -5.839 122.949  0.00  0.00    +0.295 HD
ENDBRANCH  12  14
ENDBRANCH   1  12
BRANCH   3  16
ATOM     16  C   LIG A   1      -5.971  -1.285 127.527  0.00  0.00    +0.066 C 
BRANCH  16  17
ATOM     17  C   LIG A   1      -5.689  -2.364 128.559  0.00  0.00    -0.023 C 
ATOM     18  C   LIG A   1      -6.588  -3.104 129.236  0.00  0.00    -0.079 C 
ATOM     19  C   LIG A   1      -8.077  -2.995 129.085  0.00  0.00    +0.038 C 
ATOM     20  C   LIG A   1      -6.128  -4.120 130.250  0.00  0.00    +0.038 C 
ENDBRANCH  16  17
ENDBRANCH   3  16
BRANCH   6  21
ATOM     21  C   LIG A   1      -8.153   1.990 124.624  0.00  0.00    +0.056 C 
BRANCH  21  22
ATOM     22  C   LIG A   1      -6.771   2.126 123.950  0.00  0.00    +0.031 C 
BRANCH  22  23
ATOM     23  C   LIG A   1      -6.778   2.565 122.508  0.00  0.00    -0.028 C 
ATOM     24  C   LIG A   1      -6.072   3.565 121.947  0.00  0.00    -0.080 C 
ATOM     25  C   LIG A   1      -5.133   4.468 122.687  0.00  0.00    +0.038 C 
ATOM     26  C   LIG A   1      -6.131   3.864 120.475  0.00  0.00    +0.038 C 
ENDBRANCH  22  23
ENDBRANCH  21  22
ENDBRANCH   6  21
TORSDOF 7
ENDMDL
MODEL 8
REMARK VINA RESULT:      -6.5      2.482      5.425
REMARK  Name = NuBBE_148
REMARK  12 active torsions:
REMARK  status: ('A' for Active; 'I' for Inactive)
REMARK    1  A    between atoms: O_1  and  C_2
REMARK    2  A    between atoms: C_2  and  C_3
REMARK    3  A    between atoms: C_5  and  C_6
REMARK    4  A    between atoms: C_6  and  C_7
REMARK    5  A    between atoms: C_8  and  C_9
REMARK    6  A    between atoms: C_8  and  C_10
REMARK    7  A    between atoms: C_13  and  C_14
REMARK    8  A    between atoms: C_13  and  C_20
REMARK    9  A    between atoms: C_14  and  C_15
REMARK   10  A    between atoms: C_15  and  C_16
REMARK   11  A    between atoms: C_17  and  C_18
REMARK   12  A    between atoms: C_17  and  C_19
REMARK                            x       y       z     vdW  Elec       q    Type
REMARK                         _______ _______ _______ _____ _____    ______ ____
ROOT
ATOM      1  C   LIG A   1      -7.449   1.555 125.619  0.00  0.00    +0.060 A 
ATOM      2  C   LIG A   1      -6.686   0.957 126.622  0.00  0.00    +0.022 A 
ATOM      3  C   LIG A   1      -5.968  -0.231 126.417  0.00  0.00    -0.001 A 
ATOM      4  C   LIG A   1      -6.002  -0.803 125.132  0.00  0.00    +0.132 A 
ATOM      5  O   LIG A   1      -5.388  -2.018 124.982  0.00  0.00    -0.481 OA
ATOM      6  C   LIG A   1      -5.604  -2.778 123.776  0.00  0.00    +0.127 C 
ATOM      7  C   LIG A   1      -4.178  -3.153 123.331  0.00  0.00    +0.060 C 
ATOM      8  C   LIG A   1      -6.226  -2.010 122.631  0.00  0.00    +0.021 C 
ATOM      9  C   LIG A   1      -6.692  -0.766 122.756  0.00  0.00    +0.011 C 
ATOM     10  C   LIG A   1      -6.683  -0.169 124.083  0.00  0.00    +0.018 A 
ATOM     11  C   LIG A   1      -7.398   1.014 124.327  0.00  0.00    +0.026 A 
ENDROOT
BRANCH   1  12
ATOM     12  C   LIG A   1      -8.346   2.721 125.882  0.00  0.00    +0.337 C 
ATOM     13  O   LIG A   1      -8.364   3.297 126.945  0.00  0.00    -0.245 OA
BRANCH  12  14
ATOM     14  O   LIG A   1      -9.112   3.138 124.841  0.00  0.00    -0.477 OA
ATOM     15  H   LIG A   1      -9.787   3.802 124.988  0.00  0.00    +0.295 HD
ENDBRANCH  12  14
ENDBRANCH   1  12
BRANCH   3  16
ATOM     16  C   LIG A   1      -5.133  -0.839 127.541  0.00  0.00    +0.066 C 
BRANCH  16  17
ATOM     17  C   LIG A   1      -5.854  -1.827 128.442  0.00  0.00    -0.023 C 
ATOM     18  C   LIG A   1      -5.318  -2.864 129.113  0.00  0.00    -0.079 C 
ATOM     19  C   LIG A   1      -3.865  -3.242 129.093  0.00  0.00    +0.038 C 
ATOM     20  C   LIG A   1      -6.193  -3.764 129.947  0.00  0.00    +0.038 C 
ENDBRANCH  16  17
ENDBRANCH   3  16
BRANCH   6  21
ATOM     21  C   LIG A   1      -6.398  -4.076 124.099  0.00  0.00    +0.056 C 
BRANCH  21  22
ATOM     22  C   LIG A   1      -7.898  -3.925 124.431  0.00  0.00    +0.031 C 
BRANCH  22  23
ATOM     23  C   LIG A   1      -8.288  -4.180 125.865  0.00  0.00    -0.028 C 
ATOM     24  C   LIG A   1      -8.825  -3.310 126.740  0.00  0.00    -0.080 C 
ATOM     25  C   LIG A   1      -9.125  -1.872 126.442  0.00  0.00    +0.038 C 
ATOM     26  C   LIG A   1      -9.221  -3.711 128.134  0.00  0.00    +0.038 C 
ENDBRANCH  22  23
ENDBRANCH  21  22
ENDBRANCH   6  21
TORSDOF 7
ENDMDL
MODEL 9
REMARK VINA RESULT:      -6.4      2.413      4.701
REMARK  Name = NuBBE_148
REMARK  12 active torsions:
REMARK  status: ('A' for Active; 'I' for Inactive)
REMARK    1  A    between atoms: O_1  and  C_2
REMARK    2  A    between atoms: C_2  and  C_3
REMARK    3  A    between atoms: C_5  and  C_6
REMARK    4  A    between atoms: C_6  and  C_7
REMARK    5  A    between atoms: C_8  and  C_9
REMARK    6  A    between atoms: C_8  and  C_10
REMARK    7  A    between atoms: C_13  and  C_14
REMARK    8  A    between atoms: C_13  and  C_20
REMARK    9  A    between atoms: C_14  and  C_15
REMARK   10  A    between atoms: C_15  and  C_16
REMARK   11  A    between atoms: C_17  and  C_18
REMARK   12  A    between atoms: C_17  and  C_19
REMARK                            x       y       z     vdW  Elec       q    Type
REMARK                         _______ _______ _______ _____ _____    ______ ____
ROOT
ATOM      1  C   LIG A   1      -7.041   2.005 123.854  0.00  0.00    +0.060 A 
ATOM      2  C   LIG A   1      -6.207   1.585 124.890  0.00  0.00    +0.022 A 
ATOM      3  C   LIG A   1      -6.243   0.279 125.405  0.00  0.00    -0.001 A 
ATOM      4  C   LIG A   1      -7.135  -0.634 124.812  0.00  0.00    +0.132 A 
ATOM      5  O   LIG A   1      -7.234  -1.867 125.400  0.00  0.00    -0.481 OA
ATOM      6  C   LIG A   1      -8.304  -2.753 125.012  0.00  0.00    +0.127 C 
ATOM      7  C   LIG A   1      -7.580  -4.081 124.726  0.00  0.00    +0.060 C 
ATOM      8  C   LIG A   1      -9.030  -2.373 123.741  0.00  0.00    +0.021 C 
ATOM      9  C   LIG A   1      -8.817  -1.224 123.096  0.00  0.00    +0.011 C 
ATOM     10  C   LIG A   1      -7.914  -0.261 123.707  0.00  0.00    +0.018 A 
ATOM     11  C   LIG A   1      -7.858   1.057 123.225  0.00  0.00    +0.026 A 
ENDROOT
BRANCH   1  12
ATOM     12  C   LIG A   1      -7.123   3.434 123.422  0.00  0.00    +0.337 C 
ATOM     13  O   LIG A   1      -6.215   4.214 123.587  0.00  0.00    -0.245 OA
BRANCH  12  14
ATOM     14  O   LIG A   1      -8.263   3.804 122.781  0.00  0.00    -0.477 OA
ATOM     15  H   LIG A   1      -8.670   4.645 122.991  0.00  0.00    +0.295 HD
ENDBRANCH  12  14
ENDBRANCH   1  12
BRANCH   3  16
ATOM     16  C   LIG A   1      -5.298  -0.139 126.528  0.00  0.00    +0.066 C 
BRANCH  16  17
ATOM     17  C   LIG A   1      -5.421   0.644 127.823  0.00  0.00    -0.023 C 
ATOM     18  C   LIG A   1      -6.544   0.898 128.523  0.00  0.00    -0.079 C 
ATOM     19  C   LIG A   1      -7.919   0.437 128.137  0.00  0.00    +0.038 C 
ATOM     20  C   LIG A   1      -6.484   1.720 129.785  0.00  0.00    +0.038 C 
ENDBRANCH  16  17
ENDBRANCH   3  16
BRANCH   6  21
ATOM     21  C   LIG A   1      -9.287  -2.951 126.201  0.00  0.00    +0.056 C 
BRANCH  21  22
ATOM     22  C   LIG A   1      -8.878  -3.954 127.301  0.00  0.00    +0.031 C 
BRANCH  22  23
ATOM     23  C   LIG A   1      -8.725  -3.388 128.689  0.00  0.00    -0.028 C 
ATOM     24  C   LIG A   1      -7.600  -2.939 129.277  0.00  0.00    -0.080 C 
ATOM     25  C   LIG A   1      -6.244  -2.938 128.639  0.00  0.00    +0.038 C 
ATOM     26  C   LIG A   1      -7.596  -2.343 130.657  0.00  0.00    +0.038 C 
ENDBRANCH  22  23
ENDBRANCH  21  22
ENDBRANCH   6  21
TORSDOF 7
ENDMDL
