MODEL 1
REMARK VINA RESULT:      -7.7      0.000      0.000
REMARK  Name = NuBBE_827
REMARK  12 active torsions:
REMARK  status: ('A' for Active; 'I' for Inactive)
REMARK    1  A    between atoms: C_1  and  C_2
REMARK    2  A    between atoms: C_6  and  C_36
REMARK    3  A    between atoms: C_7  and  O_32
REMARK    4  A    between atoms: C_9  and  O_23
REMARK    5  A    between atoms: O_23  and  C_24
REMARK    6  A    between atoms: C_24  and  C_25
REMARK    7  A    between atoms: C_25  and  C_26
REMARK    8  A    between atoms: C_27  and  C_30
REMARK    9  A    between atoms: O_32  and  C_33
REMARK   10  A    between atoms: C_33  and  C_34
REMARK   11  A    between atoms: C_36  and  O_37
REMARK   12  A    between atoms: O_37  and  C_38
REMARK                            x       y       z     vdW  Elec       q    Type
REMARK                         _______ _______ _______ _____ _____    ______ ____
ROOT
ATOM      1  C   LIG A   1      -3.784   2.646 131.907  0.00  0.00    +0.044 C 
ATOM      2  C   LIG A   1      -5.127   2.226 131.369  0.00  0.00    +0.097 C 
ATOM      3  C   LIG A   1      -5.075   1.200 130.262  0.00  0.00    +0.041 C 
ATOM      4  C   LIG A   1      -4.770   1.851 128.904  0.00  0.00    +0.030 C 
ATOM      5  C   LIG A   1      -6.006   2.559 128.456  0.00  0.00    -0.013 C 
ATOM      6  C   LIG A   1      -6.327   3.865 128.537  0.00  0.00    +0.076 C 
ATOM      7  C   LIG A   1      -7.776   4.239 128.320  0.00  0.00    +0.254 C 
ATOM      8  C   LIG A   1      -8.389   4.988 129.540  0.00  0.00    +0.233 C 
ATOM      9  C   LIG A   1      -8.694   4.061 130.752  0.00  0.00    +0.113 C 
ATOM     10  C   LIG A   1      -7.844   2.867 131.218  0.00  0.00    +0.219 C 
ATOM     11  C   LIG A   1      -6.407   3.067 131.686  0.00  0.00    +0.192 C 
ATOM     12  O   LIG A   1      -5.997   1.896 132.439  0.00  0.00    -0.361 OA
ATOM     13  O   LIG A   1      -8.599   2.448 132.395  0.00  0.00    -0.455 OA
ATOM     14  C   LIG A   1      -9.072   3.550 133.036  0.00  0.00    +0.336 C 
ATOM     15  O   LIG A   1      -9.551   3.589 134.165  0.00  0.00    -0.245 OA
ATOM     16  C   LIG A   1      -8.937   4.688 132.092  0.00  0.00    +0.040 C 
ATOM     17  C   LIG A   1      -8.961   5.962 132.508  0.00  0.00    +0.020 C 
ENDROOT
BRANCH   6  18
ATOM     18  C   LIG A   1      -5.373   4.942 128.953  0.00  0.00    +0.338 C 
ATOM     19  O   LIG A   1      -5.205   5.330 130.095  0.00  0.00    -0.245 OA
BRANCH  18  20
ATOM     20  O   LIG A   1      -4.771   5.461 127.856  0.00  0.00    -0.465 OA
ATOM     21  C   LIG A   1      -3.401   5.114 127.643  0.00  0.00    +0.280 C 
ENDBRANCH  18  20
ENDBRANCH   6  18
BRANCH   8  22
ATOM     22  O   LIG A   1      -9.706   5.504 129.125  0.00  0.00    -0.454 OA
BRANCH  22  23
ATOM     23  C   LIG A   1      -9.948   6.844 129.189  0.00  0.00    +0.342 C 
ATOM     24  O   LIG A   1      -9.186   7.689 129.637  0.00  0.00    -0.247 OA
BRANCH  23  25
ATOM     25  C   LIG A   1     -11.295   7.217 128.664  0.00  0.00    +0.189 C 
ATOM     26  C   LIG A   1     -11.411   8.112 127.462  0.00  0.00    +0.056 C 
ATOM     27  C   LIG A   1     -12.488   7.197 129.611  0.00  0.00    +0.159 C 
ATOM     28  O   LIG A   1     -12.265   6.142 128.677  0.00  0.00    -0.353 OA
ATOM     29  C   LIG A   1     -12.364   6.817 131.041  0.00  0.00    +0.041 C 
ENDBRANCH  23  25
ENDBRANCH  22  23
ENDBRANCH   8  22
BRANCH   7  30
ATOM     30  O   LIG A   1      -7.860   5.013 127.113  0.00  0.00    -0.453 OA
BRANCH  30  31
ATOM     31  C   LIG A   1      -7.889   4.316 125.948  0.00  0.00    +0.305 C 
ATOM     32  C   LIG A   1      -6.782   4.778 125.055  0.00  0.00    +0.136 C 
ATOM     33  O   LIG A   1      -8.710   3.461 125.652  0.00  0.00    -0.251 OA
ENDBRANCH  30  31
ENDBRANCH   7  30
TORSDOF 7
ENDMDL
MODEL 2
REMARK VINA RESULT:      -7.1      4.250      6.446
REMARK  Name = NuBBE_827
REMARK  12 active torsions:
REMARK  status: ('A' for Active; 'I' for Inactive)
REMARK    1  A    between atoms: C_1  and  C_2
REMARK    2  A    between atoms: C_6  and  C_36
REMARK    3  A    between atoms: C_7  and  O_32
REMARK    4  A    between atoms: C_9  and  O_23
REMARK    5  A    between atoms: O_23  and  C_24
REMARK    6  A    between atoms: C_24  and  C_25
REMARK    7  A    between atoms: C_25  and  C_26
REMARK    8  A    between atoms: C_27  and  C_30
REMARK    9  A    between atoms: O_32  and  C_33
REMARK   10  A    between atoms: C_33  and  C_34
REMARK   11  A    between atoms: C_36  and  O_37
REMARK   12  A    between atoms: O_37  and  C_38
REMARK                            x       y       z     vdW  Elec       q    Type
REMARK                         _______ _______ _______ _____ _____    ______ ____
ROOT
ATOM      1  C   LIG A   1      -6.280  -3.995 129.928  0.00  0.00    +0.044 C 
ATOM      2  C   LIG A   1      -7.351  -2.973 129.649  0.00  0.00    +0.097 C 
ATOM      3  C   LIG A   1      -8.651  -3.541 129.129  0.00  0.00    +0.041 C 
ATOM      4  C   LIG A   1      -8.576  -3.830 127.622  0.00  0.00    +0.030 C 
ATOM      5  C   LIG A   1      -8.638  -2.519 126.908  0.00  0.00    -0.013 C 
ATOM      6  C   LIG A   1      -7.642  -1.774 126.389  0.00  0.00    +0.076 C 
ATOM      7  C   LIG A   1      -7.959  -0.339 126.035  0.00  0.00    +0.254 C 
ATOM      8  C   LIG A   1      -7.048   0.677 126.785  0.00  0.00    +0.233 C 
ATOM      9  C   LIG A   1      -7.412   0.850 128.288  0.00  0.00    +0.113 C 
ATOM     10  C   LIG A   1      -7.888  -0.260 129.241  0.00  0.00    +0.219 C 
ATOM     11  C   LIG A   1      -6.993  -1.454 129.557  0.00  0.00    +0.192 C 
ATOM     12  O   LIG A   1      -7.490  -2.100 130.757  0.00  0.00    -0.361 OA
ATOM     13  O   LIG A   1      -8.014   0.494 130.484  0.00  0.00    -0.455 OA
ATOM     14  C   LIG A   1      -7.005   1.403 130.558  0.00  0.00    +0.336 C 
ATOM     15  O   LIG A   1      -6.669   2.044 131.548  0.00  0.00    -0.245 OA
ATOM     16  C   LIG A   1      -6.415   1.501 129.198  0.00  0.00    +0.040 C 
ATOM     17  C   LIG A   1      -5.194   2.014 128.990  0.00  0.00    +0.020 C 
ENDROOT
BRANCH   6  18
ATOM     18  C   LIG A   1      -6.222  -2.237 126.264  0.00  0.00    +0.338 C 
ATOM     19  O   LIG A   1      -5.316  -1.939 127.021  0.00  0.00    -0.245 OA
BRANCH  18  20
ATOM     20  O   LIG A   1      -6.089  -2.986 125.144  0.00  0.00    -0.465 OA
ATOM     21  C   LIG A   1      -5.262  -2.457 124.103  0.00  0.00    +0.280 C 
ENDBRANCH  18  20
ENDBRANCH   6  18
BRANCH   8  22
ATOM     22  O   LIG A   1      -7.284   2.005 126.190  0.00  0.00    -0.454 OA
BRANCH  22  23
ATOM     23  C   LIG A   1      -6.254   2.651 125.572  0.00  0.00    +0.342 C 
ATOM     24  O   LIG A   1      -5.073   2.343 125.637  0.00  0.00    -0.247 OA
BRANCH  23  25
ATOM     25  C   LIG A   1      -6.702   3.840 124.787  0.00  0.00    +0.189 C 
ATOM     26  C   LIG A   1      -7.429   4.962 125.473  0.00  0.00    +0.056 C 
ATOM     27  C   LIG A   1      -6.952   3.686 123.292  0.00  0.00    +0.159 C 
ATOM     28  O   LIG A   1      -5.758   4.291 123.787  0.00  0.00    -0.353 OA
ATOM     29  C   LIG A   1      -6.762   2.396 122.581  0.00  0.00    +0.041 C 
ENDBRANCH  23  25
ENDBRANCH  22  23
ENDBRANCH   8  22
BRANCH   7  30
ATOM     30  O   LIG A   1      -7.863  -0.201 124.608  0.00  0.00    -0.453 OA
BRANCH  30  31
ATOM     31  C   LIG A   1      -9.009  -0.385 123.904  0.00  0.00    +0.305 C 
ATOM     32  C   LIG A   1      -8.809  -1.466 122.890  0.00  0.00    +0.136 C 
ATOM     33  O   LIG A   1     -10.042   0.251 124.048  0.00  0.00    -0.251 OA
ENDBRANCH  30  31
ENDBRANCH   7  30
TORSDOF 7
ENDMDL
MODEL 3
REMARK VINA RESULT:      -6.9      4.375      7.496
REMARK  Name = NuBBE_827
REMARK  12 active torsions:
REMARK  status: ('A' for Active; 'I' for Inactive)
REMARK    1  A    between atoms: C_1  and  C_2
REMARK    2  A    between atoms: C_6  and  C_36
REMARK    3  A    between atoms: C_7  and  O_32
REMARK    4  A    between atoms: C_9  and  O_23
REMARK    5  A    between atoms: O_23  and  C_24
REMARK    6  A    between atoms: C_24  and  C_25
REMARK    7  A    between atoms: C_25  and  C_26
REMARK    8  A    between atoms: C_27  and  C_30
REMARK    9  A    between atoms: O_32  and  C_33
REMARK   10  A    between atoms: C_33  and  C_34
REMARK   11  A    between atoms: C_36  and  O_37
REMARK   12  A    between atoms: O_37  and  C_38
REMARK                            x       y       z     vdW  Elec       q    Type
REMARK                         _______ _______ _______ _____ _____    ______ ____
ROOT
ATOM      1  C   LIG A   1      -5.372   2.184 130.996  0.00  0.00    +0.044 C 
ATOM      2  C   LIG A   1      -6.710   2.034 130.319  0.00  0.00    +0.097 C 
ATOM      3  C   LIG A   1      -7.724   1.223 131.090  0.00  0.00    +0.041 C 
ATOM      4  C   LIG A   1      -7.497  -0.286 130.907  0.00  0.00    +0.030 C 
ATOM      5  C   LIG A   1      -7.960  -0.647 129.534  0.00  0.00    -0.013 C 
ATOM      6  C   LIG A   1      -7.249  -0.828 128.404  0.00  0.00    +0.076 C 
ATOM      7  C   LIG A   1      -8.010  -0.848 127.098  0.00  0.00    +0.254 C 
ATOM      8  C   LIG A   1      -7.519   0.246 126.104  0.00  0.00    +0.233 C 
ATOM      9  C   LIG A   1      -7.982   1.684 126.481  0.00  0.00    +0.113 C 
ATOM     10  C   LIG A   1      -8.100   2.256 127.904  0.00  0.00    +0.219 C 
ATOM     11  C   LIG A   1      -6.874   2.375 128.802  0.00  0.00    +0.192 C 
ATOM     12  O   LIG A   1      -7.177   3.299 129.880  0.00  0.00    -0.361 OA
ATOM     13  O   LIG A   1      -8.521   3.622 127.606  0.00  0.00    -0.455 OA
ATOM     14  C   LIG A   1      -7.875   4.052 126.489  0.00  0.00    +0.336 C 
ATOM     15  O   LIG A   1      -7.812   5.207 126.081  0.00  0.00    -0.245 OA
ATOM     16  C   LIG A   1      -7.296   2.851 125.837  0.00  0.00    +0.040 C 
ATOM     17  C   LIG A   1      -6.307   2.939 124.936  0.00  0.00    +0.020 C 
ENDROOT
BRANCH   6  18
ATOM     18  C   LIG A   1      -5.751  -0.879 128.352  0.00  0.00    +0.338 C 
ATOM     19  O   LIG A   1      -5.047  -0.156 127.671  0.00  0.00    -0.245 OA
BRANCH  18  20
ATOM     20  O   LIG A   1      -5.307  -1.895 129.130  0.00  0.00    -0.465 OA
ATOM     21  C   LIG A   1      -4.565  -2.931 128.482  0.00  0.00    +0.280 C 
ENDBRANCH  18  20
ENDBRANCH   6  18
BRANCH   8  22
ATOM     22  O   LIG A   1      -8.159  -0.021 124.803  0.00  0.00    -0.454 OA
BRANCH  22  23
ATOM     23  C   LIG A   1      -7.376  -0.211 123.703  0.00  0.00    +0.342 C 
ATOM     24  O   LIG A   1      -6.735   0.652 123.120  0.00  0.00    -0.247 OA
BRANCH  23  25
ATOM     25  C   LIG A   1      -7.381  -1.626 123.225  0.00  0.00    +0.189 C 
ATOM     26  C   LIG A   1      -8.674  -2.281 122.828  0.00  0.00    +0.056 C 
ATOM     27  C   LIG A   1      -6.258  -2.557 123.663  0.00  0.00    +0.159 C 
ATOM     28  O   LIG A   1      -6.272  -1.973 122.361  0.00  0.00    -0.353 OA
ATOM     29  C   LIG A   1      -5.151  -2.110 124.548  0.00  0.00    +0.041 C 
ENDBRANCH  23  25
ENDBRANCH  22  23
ENDBRANCH   8  22
BRANCH   7  30
ATOM     30  O   LIG A   1      -7.906  -2.168 126.542  0.00  0.00    -0.453 OA
BRANCH  30  31
ATOM     31  C   LIG A   1      -9.022  -2.939 126.604  0.00  0.00    +0.305 C 
ATOM     32  C   LIG A   1      -8.884  -3.940 127.706  0.00  0.00    +0.136 C 
ATOM     33  O   LIG A   1      -9.985  -2.857 125.856  0.00  0.00    -0.251 OA
ENDBRANCH  30  31
ENDBRANCH   7  30
TORSDOF 7
ENDMDL
MODEL 4
REMARK VINA RESULT:      -6.9      4.259      6.982
REMARK  Name = NuBBE_827
REMARK  12 active torsions:
REMARK  status: ('A' for Active; 'I' for Inactive)
REMARK    1  A    between atoms: C_1  and  C_2
REMARK    2  A    between atoms: C_6  and  C_36
REMARK    3  A    between atoms: C_7  and  O_32
REMARK    4  A    between atoms: C_9  and  O_23
REMARK    5  A    between atoms: O_23  and  C_24
REMARK    6  A    between atoms: C_24  and  C_25
REMARK    7  A    between atoms: C_25  and  C_26
REMARK    8  A    between atoms: C_27  and  C_30
REMARK    9  A    between atoms: O_32  and  C_33
REMARK   10  A    between atoms: C_33  and  C_34
REMARK   11  A    between atoms: C_36  and  O_37
REMARK   12  A    between atoms: O_37  and  C_38
REMARK                            x       y       z     vdW  Elec       q    Type
REMARK                         _______ _______ _______ _____ _____    ______ ____
ROOT
ATOM      1  C   LIG A   1      -6.583   1.177 132.684  0.00  0.00    +0.044 C 
ATOM      2  C   LIG A   1      -5.765   0.703 131.512  0.00  0.00    +0.097 C 
ATOM      3  C   LIG A   1      -4.699   1.668 131.048  0.00  0.00    +0.041 C 
ATOM      4  C   LIG A   1      -5.287   2.770 130.153  0.00  0.00    +0.030 C 
ATOM      5  C   LIG A   1      -5.587   2.157 128.824  0.00  0.00    -0.013 C 
ATOM      6  C   LIG A   1      -6.756   1.711 128.326  0.00  0.00    +0.076 C 
ATOM      7  C   LIG A   1      -6.699   0.831 127.098  0.00  0.00    +0.254 C 
ATOM      8  C   LIG A   1      -7.355  -0.562 127.330  0.00  0.00    +0.233 C 
ATOM      9  C   LIG A   1      -6.490  -1.523 128.196  0.00  0.00    +0.113 C 
ATOM     10  C   LIG A   1      -5.620  -1.124 129.401  0.00  0.00    +0.219 C 
ATOM     11  C   LIG A   1      -6.247  -0.507 130.645  0.00  0.00    +0.192 C 
ATOM     12  O   LIG A   1      -5.304  -0.618 131.743  0.00  0.00    -0.361 OA
ATOM     13  O   LIG A   1      -5.114  -2.432 129.806  0.00  0.00    -0.455 OA
ATOM     14  C   LIG A   1      -6.096  -3.359 129.644  0.00  0.00    +0.336 C 
ATOM     15  O   LIG A   1      -6.102  -4.503 130.086  0.00  0.00    -0.245 OA
ATOM     16  C   LIG A   1      -7.140  -2.734 128.793  0.00  0.00    +0.040 C 
ATOM     17  C   LIG A   1      -8.390  -3.216 128.735  0.00  0.00    +0.020 C 
ENDROOT
BRANCH   6  18
ATOM     18  C   LIG A   1      -8.087   1.923 128.983  0.00  0.00    +0.338 C 
ATOM     19  O   LIG A   1      -8.639   1.130 129.723  0.00  0.00    -0.245 OA
BRANCH  18  20
ATOM     20  O   LIG A   1      -8.608   3.104 128.576  0.00  0.00    -0.465 OA
ATOM     21  C   LIG A   1      -8.860   4.085 129.586  0.00  0.00    +0.280 C 
ENDBRANCH  18  20
ENDBRANCH   6  18
BRANCH   8  22
ATOM     22  O   LIG A   1      -7.451  -1.229 126.018  0.00  0.00    -0.454 OA
BRANCH  22  23
ATOM     23  C   LIG A   1      -8.677  -1.590 125.542  0.00  0.00    +0.342 C 
ATOM     24  O   LIG A   1      -9.748  -1.102 125.876  0.00  0.00    -0.247 OA
BRANCH  23  25
ATOM     25  C   LIG A   1      -8.609  -2.701 124.548  0.00  0.00    +0.189 C 
ATOM     26  C   LIG A   1      -7.735  -3.895 124.813  0.00  0.00    +0.056 C 
ATOM     27  C   LIG A   1      -8.925  -2.406 123.087  0.00  0.00    +0.159 C 
ATOM     28  O   LIG A   1      -9.877  -3.042 123.938  0.00  0.00    -0.353 OA
ATOM     29  C   LIG A   1      -9.302  -1.050 122.612  0.00  0.00    +0.041 C 
ENDBRANCH  23  25
ENDBRANCH  22  23
ENDBRANCH   8  22
BRANCH   7  30
ATOM     30  O   LIG A   1      -7.312   1.543 126.011  0.00  0.00    -0.453 OA
BRANCH  30  31
ATOM     31  C   LIG A   1      -6.478   1.998 125.041  0.00  0.00    +0.305 C 
ATOM     32  C   LIG A   1      -6.892   1.440 123.717  0.00  0.00    +0.136 C 
ATOM     33  O   LIG A   1      -5.513   2.728 125.217  0.00  0.00    -0.251 OA
ENDBRANCH  30  31
ENDBRANCH   7  30
TORSDOF 7
ENDMDL
MODEL 5
REMARK VINA RESULT:      -6.9      4.378      6.629
REMARK  Name = NuBBE_827
REMARK  12 active torsions:
REMARK  status: ('A' for Active; 'I' for Inactive)
REMARK    1  A    between atoms: C_1  and  C_2
REMARK    2  A    between atoms: C_6  and  C_36
REMARK    3  A    between atoms: C_7  and  O_32
REMARK    4  A    between atoms: C_9  and  O_23
REMARK    5  A    between atoms: O_23  and  C_24
REMARK    6  A    between atoms: C_24  and  C_25
REMARK    7  A    between atoms: C_25  and  C_26
REMARK    8  A    between atoms: C_27  and  C_30
REMARK    9  A    between atoms: O_32  and  C_33
REMARK   10  A    between atoms: C_33  and  C_34
REMARK   11  A    between atoms: C_36  and  O_37
REMARK   12  A    between atoms: O_37  and  C_38
REMARK                            x       y       z     vdW  Elec       q    Type
REMARK                         _______ _______ _______ _____ _____    ______ ____
ROOT
ATOM      1  C   LIG A   1      -5.085  -1.283 132.813  0.00  0.00    +0.044 C 
ATOM      2  C   LIG A   1      -6.449  -1.268 132.173  0.00  0.00    +0.097 C 
ATOM      3  C   LIG A   1      -7.213  -2.567 132.277  0.00  0.00    +0.041 C 
ATOM      4  C   LIG A   1      -6.758  -3.575 131.210  0.00  0.00    +0.030 C 
ATOM      5  C   LIG A   1      -7.314  -3.126 129.899  0.00  0.00    -0.013 C 
ATOM      6  C   LIG A   1      -6.721  -2.440 128.902  0.00  0.00    +0.076 C 
ATOM      7  C   LIG A   1      -7.618  -1.828 127.850  0.00  0.00    +0.254 C 
ATOM      8  C   LIG A   1      -7.441  -0.285 127.738  0.00  0.00    +0.233 C 
ATOM      9  C   LIG A   1      -8.091   0.505 128.912  0.00  0.00    +0.113 C 
ATOM     10  C   LIG A   1      -8.134   0.067 130.386  0.00  0.00    +0.219 C 
ATOM     11  C   LIG A   1      -6.848  -0.127 131.180  0.00  0.00    +0.192 C 
ATOM     12  O   LIG A   1      -7.171  -0.123 132.595  0.00  0.00    -0.361 OA
ATOM     13  O   LIG A   1      -8.811   1.215 130.983  0.00  0.00    -0.455 OA
ATOM     14  C   LIG A   1      -8.385   2.351 130.370  0.00  0.00    +0.336 C 
ATOM     15  O   LIG A   1      -8.567   3.501 130.754  0.00  0.00    -0.245 OA
ATOM     16  C   LIG A   1      -7.693   1.934 129.124  0.00  0.00    +0.040 C 
ATOM     17  C   LIG A   1      -6.848   2.747 128.475  0.00  0.00    +0.020 C 
ENDROOT
BRANCH   6  18
ATOM     18  C   LIG A   1      -5.254  -2.140 128.843  0.00  0.00    +0.338 C 
ATOM     19  O   LIG A   1      -4.748  -1.058 129.080  0.00  0.00    -0.245 OA
BRANCH  18  20
ATOM     20  O   LIG A   1      -4.585  -3.240 128.425  0.00  0.00    -0.465 OA
ATOM     21  C   LIG A   1      -3.479  -3.669 129.224  0.00  0.00    +0.280 C 
ENDBRANCH  18  20
ENDBRANCH   6  18
BRANCH   8  22
ATOM     22  O   LIG A   1      -8.176   0.159 126.540  0.00  0.00    -0.454 OA
BRANCH  22  23
ATOM     23  C   LIG A   1      -7.478   0.591 125.451  0.00  0.00    +0.342 C 
ATOM     24  O   LIG A   1      -6.555   1.394 125.464  0.00  0.00    -0.247 OA
BRANCH  23  25
ATOM     25  C   LIG A   1      -7.967  -0.007 124.173  0.00  0.00    +0.189 C 
ATOM     26  C   LIG A   1      -7.023  -0.778 123.294  0.00  0.00    +0.056 C 
ATOM     27  C   LIG A   1      -9.179   0.609 123.487  0.00  0.00    +0.159 C 
ATOM     28  O   LIG A   1      -9.289  -0.592 124.249  0.00  0.00    -0.353 OA
ATOM     29  C   LIG A   1      -9.899   1.784 124.043  0.00  0.00    +0.041 C 
ENDBRANCH  23  25
ENDBRANCH  22  23
ENDBRANCH   8  22
BRANCH   7  30
ATOM     30  O   LIG A   1      -7.360  -2.493 126.603  0.00  0.00    -0.453 OA
BRANCH  30  31
ATOM     31  C   LIG A   1      -8.344  -3.303 126.136  0.00  0.00    +0.305 C 
ATOM     32  C   LIG A   1      -7.922  -3.911 124.836  0.00  0.00    +0.136 C 
ATOM     33  O   LIG A   1      -9.426  -3.490 126.671  0.00  0.00    -0.251 OA
ENDBRANCH  30  31
ENDBRANCH   7  30
TORSDOF 7
ENDMDL
MODEL 6
REMARK VINA RESULT:      -6.6      2.969      6.001
REMARK  Name = NuBBE_827
REMARK  12 active torsions:
REMARK  status: ('A' for Active; 'I' for Inactive)
REMARK    1  A    between atoms: C_1  and  C_2
REMARK    2  A    between atoms: C_6  and  C_36
REMARK    3  A    between atoms: C_7  and  O_32
REMARK    4  A    between atoms: C_9  and  O_23
REMARK    5  A    between atoms: O_23  and  C_24
REMARK    6  A    between atoms: C_24  and  C_25
REMARK    7  A    between atoms: C_25  and  C_26
REMARK    8  A    between atoms: C_27  and  C_30
REMARK    9  A    between atoms: O_32  and  C_33
REMARK   10  A    between atoms: C_33  and  C_34
REMARK   11  A    between atoms: C_36  and  O_37
REMARK   12  A    between atoms: O_37  and  C_38
REMARK                            x       y       z     vdW  Elec       q    Type
REMARK                         _______ _______ _______ _____ _____    ______ ____
ROOT
ATOM      1  C   LIG A   1      -9.032   0.414 131.995  0.00  0.00    +0.044 C 
ATOM      2  C   LIG A   1      -7.854   0.288 131.064  0.00  0.00    +0.097 C 
ATOM      3  C   LIG A   1      -6.533   0.729 131.648  0.00  0.00    +0.041 C 
ATOM      4  C   LIG A   1      -6.374   2.257 131.592  0.00  0.00    +0.030 C 
ATOM      5  C   LIG A   1      -6.095   2.629 130.173  0.00  0.00    -0.013 C 
ATOM      6  C   LIG A   1      -6.929   3.102 129.227  0.00  0.00    +0.076 C 
ATOM      7  C   LIG A   1      -6.448   3.064 127.794  0.00  0.00    +0.254 C 
ATOM      8  C   LIG A   1      -7.393   2.240 126.869  0.00  0.00    +0.233 C 
ATOM      9  C   LIG A   1      -7.274   0.701 127.068  0.00  0.00    +0.113 C 
ATOM     10  C   LIG A   1      -7.052  -0.027 128.404  0.00  0.00    +0.219 C 
ATOM     11  C   LIG A   1      -8.075   0.077 129.530  0.00  0.00    +0.192 C 
ATOM     12  O   LIG A   1      -7.837  -1.001 130.473  0.00  0.00    -0.361 OA
ATOM     13  O   LIG A   1      -7.080  -1.416 127.956  0.00  0.00    -0.455 OA
ATOM     14  C   LIG A   1      -8.015  -1.550 126.978  0.00  0.00    +0.336 C 
ATOM     15  O   LIG A   1      -8.462  -2.601 126.533  0.00  0.00    -0.245 OA
ATOM     16  C   LIG A   1      -8.358  -0.179 126.522  0.00  0.00    +0.040 C 
ATOM     17  C   LIG A   1      -9.484   0.082 125.843  0.00  0.00    +0.020 C 
ENDROOT
BRANCH   6  18
ATOM     18  C   LIG A   1      -8.339   3.538 129.489  0.00  0.00    +0.338 C 
ATOM     19  O   LIG A   1      -9.335   2.893 129.219  0.00  0.00    -0.245 OA
BRANCH  18  20
ATOM     20  O   LIG A   1      -8.335   4.786 130.015  0.00  0.00    -0.465 OA
ATOM     21  C   LIG A   1      -9.589   5.304 130.466  0.00  0.00    +0.280 C 
ENDBRANCH  18  20
ENDBRANCH   6  18
BRANCH   8  22
ATOM     22  O   LIG A   1      -6.960   2.470 125.479  0.00  0.00    -0.454 OA
BRANCH  22  23
ATOM     23  C   LIG A   1      -7.833   3.029 124.593  0.00  0.00    +0.342 C 
ATOM     24  O   LIG A   1      -8.670   3.882 124.852  0.00  0.00    -0.247 OA
BRANCH  23  25
ATOM     25  C   LIG A   1      -7.695   2.473 123.214  0.00  0.00    +0.189 C 
ATOM     26  C   LIG A   1      -8.161   1.075 122.917  0.00  0.00    +0.056 C 
ATOM     27  C   LIG A   1      -6.620   3.037 122.293  0.00  0.00    +0.159 C 
ATOM     28  O   LIG A   1      -7.989   3.414 122.153  0.00  0.00    -0.353 OA
ATOM     29  C   LIG A   1      -5.701   4.126 122.715  0.00  0.00    +0.041 C 
ENDBRANCH  23  25
ENDBRANCH  22  23
ENDBRANCH   8  22
BRANCH   7  30
ATOM     30  O   LIG A   1      -6.293   4.417 127.340  0.00  0.00    -0.453 OA
BRANCH  30  31
ATOM     31  C   LIG A   1      -5.045   4.945 127.429  0.00  0.00    +0.305 C 
ATOM     32  C   LIG A   1      -4.138   4.261 126.456  0.00  0.00    +0.136 C 
ATOM     33  O   LIG A   1      -4.697   5.822 128.205  0.00  0.00    -0.251 OA
ENDBRANCH  30  31
ENDBRANCH   7  30
TORSDOF 7
ENDMDL
MODEL 7
REMARK VINA RESULT:      -6.6      1.949      5.823
REMARK  Name = NuBBE_827
REMARK  12 active torsions:
REMARK  status: ('A' for Active; 'I' for Inactive)
REMARK    1  A    between atoms: C_1  and  C_2
REMARK    2  A    between atoms: C_6  and  C_36
REMARK    3  A    between atoms: C_7  and  O_32
REMARK    4  A    between atoms: C_9  and  O_23
REMARK    5  A    between atoms: O_23  and  C_24
REMARK    6  A    between atoms: C_24  and  C_25
REMARK    7  A    between atoms: C_25  and  C_26
REMARK    8  A    between atoms: C_27  and  C_30
REMARK    9  A    between atoms: O_32  and  C_33
REMARK   10  A    between atoms: C_33  and  C_34
REMARK   11  A    between atoms: C_36  and  O_37
REMARK   12  A    between atoms: O_37  and  C_38
REMARK                            x       y       z     vdW  Elec       q    Type
REMARK                         _______ _______ _______ _____ _____    ______ ____
ROOT
ATOM      1  C   LIG A   1      -3.155   4.446 132.398  0.00  0.00    +0.044 C 
ATOM      2  C   LIG A   1      -3.687   5.155 131.180  0.00  0.00    +0.097 C 
ATOM      3  C   LIG A   1      -4.346   6.486 131.457  0.00  0.00    +0.041 C 
ATOM      4  C   LIG A   1      -5.791   6.308 131.947  0.00  0.00    +0.030 C 
ATOM      5  C   LIG A   1      -6.622   5.921 130.768  0.00  0.00    -0.013 C 
ATOM      6  C   LIG A   1      -7.049   4.704 130.377  0.00  0.00    +0.076 C 
ATOM      7  C   LIG A   1      -7.577   4.572 128.967  0.00  0.00    +0.254 C 
ATOM      8  C   LIG A   1      -6.793   3.518 128.132  0.00  0.00    +0.233 C 
ATOM      9  C   LIG A   1      -5.385   4.003 127.678  0.00  0.00    +0.113 C 
ATOM     10  C   LIG A   1      -4.419   4.877 128.497  0.00  0.00    +0.219 C 
ATOM     11  C   LIG A   1      -3.862   4.388 129.829  0.00  0.00    +0.192 C 
ATOM     12  O   LIG A   1      -2.698   5.186 130.165  0.00  0.00    -0.361 OA
ATOM     13  O   LIG A   1      -3.284   4.945 127.581  0.00  0.00    -0.455 OA
ATOM     14  C   LIG A   1      -3.140   3.743 126.961  0.00  0.00    +0.336 C 
ATOM     15  O   LIG A   1      -2.173   3.370 126.305  0.00  0.00    -0.245 OA
ATOM     16  C   LIG A   1      -4.396   2.986 127.193  0.00  0.00    +0.040 C 
ATOM     17  C   LIG A   1      -4.461   1.656 127.043  0.00  0.00    +0.020 C 
ENDROOT
BRANCH   6  18
ATOM     18  C   LIG A   1      -6.913   3.460 131.202  0.00  0.00    +0.338 C 
ATOM     19  O   LIG A   1      -6.087   2.584 131.021  0.00  0.00    -0.245 OA
BRANCH  18  20
ATOM     20  O   LIG A   1      -7.889   3.430 132.139  0.00  0.00    -0.465 OA
ATOM     21  C   LIG A   1      -8.799   2.328 132.094  0.00  0.00    +0.280 C 
ENDBRANCH  18  20
ENDBRANCH   6  18
BRANCH   8  22
ATOM     22  O   LIG A   1      -7.536   3.308 126.876  0.00  0.00    -0.454 OA
BRANCH  22  23
ATOM     23  C   LIG A   1      -7.475   4.258 125.899  0.00  0.00    +0.342 C 
ATOM     24  O   LIG A   1      -7.886   5.406 125.989  0.00  0.00    -0.247 OA
BRANCH  23  25
ATOM     25  C   LIG A   1      -6.857   3.753 124.637  0.00  0.00    +0.189 C 
ATOM     26  C   LIG A   1      -5.704   4.492 124.017  0.00  0.00    +0.056 C 
ATOM     27  C   LIG A   1      -7.693   2.894 123.697  0.00  0.00    +0.159 C 
ATOM     28  O   LIG A   1      -6.722   2.314 124.566  0.00  0.00    -0.353 OA
ATOM     29  C   LIG A   1      -9.104   2.534 123.990  0.00  0.00    +0.041 C 
ENDBRANCH  23  25
ENDBRANCH  22  23
ENDBRANCH   8  22
BRANCH   7  30
ATOM     30  O   LIG A   1      -8.979   4.267 129.043  0.00  0.00    -0.453 OA
BRANCH  30  31
ATOM     31  C   LIG A   1      -9.819   5.321 129.203  0.00  0.00    +0.305 C 
ATOM     32  C   LIG A   1     -10.704   5.086 130.386  0.00  0.00    +0.136 C 
ATOM     33  O   LIG A   1      -9.875   6.302 128.477  0.00  0.00    -0.251 OA
ENDBRANCH  30  31
ENDBRANCH   7  30
TORSDOF 7
ENDMDL
MODEL 8
REMARK VINA RESULT:      -6.6      3.849      7.888
REMARK  Name = NuBBE_827
REMARK  12 active torsions:
REMARK  status: ('A' for Active; 'I' for Inactive)
REMARK    1  A    between atoms: C_1  and  C_2
REMARK    2  A    between atoms: C_6  and  C_36
REMARK    3  A    between atoms: C_7  and  O_32
REMARK    4  A    between atoms: C_9  and  O_23
REMARK    5  A    between atoms: O_23  and  C_24
REMARK    6  A    between atoms: C_24  and  C_25
REMARK    7  A    between atoms: C_25  and  C_26
REMARK    8  A    between atoms: C_27  and  C_30
REMARK    9  A    between atoms: O_32  and  C_33
REMARK   10  A    between atoms: C_33  and  C_34
REMARK   11  A    between atoms: C_36  and  O_37
REMARK   12  A    between atoms: O_37  and  C_38
REMARK                            x       y       z     vdW  Elec       q    Type
REMARK                         _______ _______ _______ _____ _____    ______ ____
ROOT
ATOM      1  C   LIG A   1      -6.511   2.807 122.784  0.00  0.00    +0.044 C 
ATOM      2  C   LIG A   1      -7.605   2.503 123.774  0.00  0.00    +0.097 C 
ATOM      3  C   LIG A   1      -8.303   3.716 124.342  0.00  0.00    +0.041 C 
ATOM      4  C   LIG A   1      -7.491   4.352 125.481  0.00  0.00    +0.030 C 
ATOM      5  C   LIG A   1      -7.628   3.470 126.679  0.00  0.00    -0.013 C 
ATOM      6  C   LIG A   1      -6.785   2.536 127.162  0.00  0.00    +0.076 C 
ATOM      7  C   LIG A   1      -7.335   1.563 128.180  0.00  0.00    +0.254 C 
ATOM      8  C   LIG A   1      -7.202   0.081 127.723  0.00  0.00    +0.233 C 
ATOM      9  C   LIG A   1      -8.223  -0.325 126.619  0.00  0.00    +0.113 C 
ATOM     10  C   LIG A   1      -8.705   0.562 125.459  0.00  0.00    +0.219 C 
ATOM     11  C   LIG A   1      -7.725   1.081 124.413  0.00  0.00    +0.192 C 
ATOM     12  O   LIG A   1      -8.475   1.514 123.249  0.00  0.00    -0.361 OA
ATOM     13  O   LIG A   1      -9.587  -0.371 124.762  0.00  0.00    -0.455 OA
ATOM     14  C   LIG A   1      -9.042  -1.616 124.807  0.00  0.00    +0.336 C 
ATOM     15  O   LIG A   1      -9.388  -2.589 124.146  0.00  0.00    -0.245 OA
ATOM     16  C   LIG A   1      -7.977  -1.582 125.841  0.00  0.00    +0.040 C 
ATOM     17  C   LIG A   1      -7.009  -2.508 125.893  0.00  0.00    +0.020 C 
ENDROOT
BRANCH   6  18
ATOM     18  C   LIG A   1      -5.389   2.323 126.661  0.00  0.00    +0.338 C 
ATOM     19  O   LIG A   1      -5.027   1.393 125.964  0.00  0.00    -0.245 OA
BRANCH  18  20
ATOM     20  O   LIG A   1      -4.580   3.290 127.154  0.00  0.00    -0.465 OA
ATOM     21  C   LIG A   1      -3.534   3.760 126.299  0.00  0.00    +0.280 C 
ENDBRANCH  18  20
ENDBRANCH   6  18
BRANCH   8  22
ATOM     22  O   LIG A   1      -7.545  -0.770 128.877  0.00  0.00    -0.454 OA
BRANCH  22  23
ATOM     23  C   LIG A   1      -6.670  -1.738 129.273  0.00  0.00    +0.342 C 
ATOM     24  O   LIG A   1      -5.452  -1.689 129.174  0.00  0.00    -0.247 OA
BRANCH  23  25
ATOM     25  C   LIG A   1      -7.352  -2.937 129.846  0.00  0.00    +0.189 C 
ATOM     26  C   LIG A   1      -8.464  -3.604 129.086  0.00  0.00    +0.056 C 
ATOM     27  C   LIG A   1      -7.351  -3.135 131.357  0.00  0.00    +0.159 C 
ATOM     28  O   LIG A   1      -6.469  -3.871 130.511  0.00  0.00    -0.353 OA
ATOM     29  C   LIG A   1      -6.693  -2.180 132.285  0.00  0.00    +0.041 C 
ENDBRANCH  23  25
ENDBRANCH  22  23
ENDBRANCH   8  22
BRANCH   7  30
ATOM     30  O   LIG A   1      -6.669   1.804 129.430  0.00  0.00    -0.453 OA
BRANCH  30  31
ATOM     31  C   LIG A   1      -7.312   2.613 130.311  0.00  0.00    +0.305 C 
ATOM     32  C   LIG A   1      -8.750   2.214 130.405  0.00  0.00    +0.136 C 
ATOM     33  O   LIG A   1      -6.809   3.549 130.915  0.00  0.00    -0.251 OA
ENDBRANCH  30  31
ENDBRANCH   7  30
TORSDOF 7
ENDMDL
MODEL 9
REMARK VINA RESULT:      -6.5      3.950      7.776
REMARK  Name = NuBBE_827
REMARK  12 active torsions:
REMARK  status: ('A' for Active; 'I' for Inactive)
REMARK    1  A    between atoms: C_1  and  C_2
REMARK    2  A    between atoms: C_6  and  C_36
REMARK    3  A    between atoms: C_7  and  O_32
REMARK    4  A    between atoms: C_9  and  O_23
REMARK    5  A    between atoms: O_23  and  C_24
REMARK    6  A    between atoms: C_24  and  C_25
REMARK    7  A    between atoms: C_25  and  C_26
REMARK    8  A    between atoms: C_27  and  C_30
REMARK    9  A    between atoms: O_32  and  C_33
REMARK   10  A    between atoms: C_33  and  C_34
REMARK   11  A    between atoms: C_36  and  O_37
REMARK   12  A    between atoms: O_37  and  C_38
REMARK                            x       y       z     vdW  Elec       q    Type
REMARK                         _______ _______ _______ _____ _____    ______ ____
ROOT
ATOM      1  C   LIG A   1      -7.704   4.651 125.633  0.00  0.00    +0.044 C 
ATOM      2  C   LIG A   1      -6.645   3.595 125.812  0.00  0.00    +0.097 C 
ATOM      3  C   LIG A   1      -6.037   3.080 124.529  0.00  0.00    +0.041 C 
ATOM      4  C   LIG A   1      -6.934   2.024 123.865  0.00  0.00    +0.030 C 
ATOM      5  C   LIG A   1      -6.810   0.765 124.659  0.00  0.00    -0.013 C 
ATOM      6  C   LIG A   1      -7.627   0.258 125.602  0.00  0.00    +0.076 C 
ATOM      7  C   LIG A   1      -7.079  -0.848 126.476  0.00  0.00    +0.254 C 
ATOM      8  C   LIG A   1      -7.115  -0.486 127.990  0.00  0.00    +0.233 C 
ATOM      9  C   LIG A   1      -6.023   0.541 128.412  0.00  0.00    +0.113 C 
ATOM     10  C   LIG A   1      -5.531   1.736 127.578  0.00  0.00    +0.219 C 
ATOM     11  C   LIG A   1      -6.485   2.857 127.182  0.00  0.00    +0.192 C 
ATOM     12  O   LIG A   1      -5.702   4.013 126.785  0.00  0.00    -0.361 OA
ATOM     13  O   LIG A   1      -4.571   2.328 128.505  0.00  0.00    -0.455 OA
ATOM     14  C   LIG A   1      -5.054   2.223 129.772  0.00  0.00    +0.336 C 
ATOM     15  O   LIG A   1      -4.628   2.801 130.767  0.00  0.00    -0.245 OA
ATOM     16  C   LIG A   1      -6.168   1.242 129.729  0.00  0.00    +0.040 C 
ATOM     17  C   LIG A   1      -7.089   1.171 130.700  0.00  0.00    +0.020 C 
ENDROOT
BRANCH   6  18
ATOM     18  C   LIG A   1      -8.985   0.805 125.922  0.00  0.00    +0.338 C 
ATOM     19  O   LIG A   1      -9.254   1.499 126.885  0.00  0.00    -0.245 OA
BRANCH  18  20
ATOM     20  O   LIG A   1      -9.879   0.356 125.009  0.00  0.00    -0.465 OA
ATOM     21  C   LIG A   1     -10.415   1.320 124.098  0.00  0.00    +0.280 C 
ENDBRANCH  18  20
ENDBRANCH   6  18
BRANCH   8  22
ATOM     22  O   LIG A   1      -6.785  -1.709 128.744  0.00  0.00    -0.454 OA
BRANCH  22  23
ATOM     23  C   LIG A   1      -5.500  -2.165 128.746  0.00  0.00    +0.342 C 
ATOM     24  O   LIG A   1      -4.866  -2.529 127.766  0.00  0.00    -0.247 OA
BRANCH  23  25
ATOM     25  C   LIG A   1      -4.903  -2.209 130.114  0.00  0.00    +0.189 C 
ATOM     26  C   LIG A   1      -3.699  -1.369 130.437  0.00  0.00    +0.056 C 
ATOM     27  C   LIG A   1      -5.108  -3.454 130.969  0.00  0.00    +0.159 C 
ATOM     28  O   LIG A   1      -5.869  -2.267 131.191  0.00  0.00    -0.353 OA
ATOM     29  C   LIG A   1      -5.884  -4.628 130.494  0.00  0.00    +0.041 C 
ENDBRANCH  23  25
ENDBRANCH  22  23
ENDBRANCH   8  22
BRANCH   7  30
ATOM     30  O   LIG A   1      -7.815  -2.048 126.190  0.00  0.00    -0.453 OA
BRANCH  30  31
ATOM     31  C   LIG A   1      -7.402  -2.768 125.116  0.00  0.00    +0.305 C 
ATOM     32  C   LIG A   1      -8.589  -3.331 124.400  0.00  0.00    +0.136 C 
ATOM     33  O   LIG A   1      -6.240  -2.962 124.793  0.00  0.00    -0.251 OA
ENDBRANCH  30  31
ENDBRANCH   7  30
TORSDOF 7
ENDMDL
