MODEL 1
REMARK VINA RESULT:     -10.3      0.000      0.000
REMARK  Name = NuBBE_359
REMARK  13 active torsions:
REMARK  status: ('A' for Active; 'I' for Inactive)
REMARK    1  A    between atoms: O_1  and  C_2
REMARK    2  A    between atoms: C_4  and  O_5
REMARK    3  A    between atoms: C_7  and  C_9
REMARK    4  A    between atoms: C_10  and  O_11
REMARK    5  A    between atoms: C_13  and  O_14
REMARK    6  A    between atoms: C_18  and  C_20
REMARK    7  A    between atoms: C_22  and  O_23
REMARK    8  A    between atoms: C_24  and  O_25
REMARK    9  A    between atoms: C_28  and  O_30
REMARK   10  A    between atoms: C_32  and  O_34
REMARK   11  A    between atoms: C_35  and  C_37
REMARK   12  A    between atoms: C_39  and  O_40
REMARK   13  A    between atoms: C_41  and  O_42
REMARK                            x       y       z     vdW  Elec       q    Type
REMARK                         _______ _______ _______ _____ _____    ______ ____
ROOT
ATOM      1  C   LIG A   1      -2.695   3.972 127.062  0.00  0.00    +0.124 A 
ATOM      2  C   LIG A   1      -2.956   4.785 128.160  0.00  0.00    +0.091 A 
ATOM      3  C   LIG A   1      -4.269   4.893 128.620  0.00  0.00    +0.128 A 
ATOM      4  C   LIG A   1      -5.321   4.193 128.008  0.00  0.00    +0.046 A 
ATOM      5  C   LIG A   1      -6.740   4.288 128.538  0.00  0.00    +0.096 C 
ATOM      6  C   LIG A   1      -7.750   3.837 127.458  0.00  0.00    +0.172 C 
ATOM      7  C   LIG A   1      -7.256   2.548 126.777  0.00  0.00    +0.233 C 
ATOM      8  O   LIG A   1      -5.962   2.708 126.176  0.00  0.00    -0.481 OA
ATOM      9  C   LIG A   1      -5.029   3.398 126.894  0.00  0.00    +0.132 A 
ATOM     10  C   LIG A   1      -3.721   3.292 126.420  0.00  0.00    +0.091 A 
ENDROOT
BRANCH   5  11
ATOM     11  C   LIG A   1      -7.018   3.608 129.887  0.00  0.00    +0.046 A 
ATOM     12  C   LIG A   1      -6.214   2.533 130.319  0.00  0.00    +0.128 A 
ATOM     13  C   LIG A   1      -6.397   1.927 131.562  0.00  0.00    +0.091 A 
ATOM     14  C   LIG A   1      -7.399   2.379 132.409  0.00  0.00    +0.127 A 
ATOM     15  C   LIG A   1      -8.219   3.445 132.042  0.00  0.00    +0.039 A 
ATOM     16  C   LIG A   1      -8.029   4.044 130.779  0.00  0.00    +0.136 A 
ATOM     17  O   LIG A   1      -8.774   5.139 130.409  0.00  0.00    -0.481 OA
ATOM     18  C   LIG A   1     -10.062   5.232 131.040  0.00  0.00    +0.232 C 
ATOM     19  C   LIG A   1      -9.867   5.278 132.564  0.00  0.00    +0.164 C 
ATOM     20  C   LIG A   1      -9.292   3.929 132.994  0.00  0.00    +0.078 C 
BRANCH  18  21
ATOM     21  C   LIG A   1     -10.801   6.437 130.479  0.00  0.00    -0.001 A 
ATOM     22  C   LIG A   1     -10.335   7.126 129.345  0.00  0.00    +0.056 A 
ATOM     23  C   LIG A   1     -11.033   8.230 128.866  0.00  0.00    +0.159 A 
ATOM     24  C   LIG A   1     -12.199   8.654 129.494  0.00  0.00    +0.158 A 
ATOM     25  C   LIG A   1     -12.687   7.987 130.605  0.00  0.00    +0.049 A 
ATOM     26  C   LIG A   1     -11.987   6.880 131.098  0.00  0.00    +0.011 A 
BRANCH  23  27
ATOM     27  O   LIG A   1     -10.606   8.933 127.773  0.00  0.00    -0.503 OA
ATOM     28  H   LIG A   1     -11.262   9.629 127.591  0.00  0.00    +0.292 HD
ENDBRANCH  23  27
BRANCH  24  29
ATOM     29  O   LIG A   1     -12.874   9.740 129.015  0.00  0.00    -0.503 OA
ATOM     30  H   LIG A   1     -12.211  10.217 128.477  0.00  0.00    +0.292 HD
ENDBRANCH  24  29
ENDBRANCH  18  21
BRANCH  12  31
ATOM     31  O   LIG A   1      -5.179   2.014 129.590  0.00  0.00    -0.506 OA
ATOM     32  H   LIG A   1      -4.631   1.430 130.137  0.00  0.00    +0.292 HD
ENDBRANCH  12  31
BRANCH  14  33
ATOM     33  O   LIG A   1      -7.585   1.793 133.629  0.00  0.00    -0.506 OA
ATOM     34  H   LIG A   1      -6.921   2.137 134.249  0.00  0.00    +0.292 HD
ENDBRANCH  14  33
BRANCH  19  35
ATOM     35  O   LIG A   1      -8.947   6.311 132.964  0.00  0.00    -0.388 OA
ATOM     36  H   LIG A   1      -8.970   6.332 133.938  0.00  0.00    +0.210 HD
ENDBRANCH  19  35
ENDBRANCH   5  11
BRANCH   7  37
ATOM     37  C   LIG A   1      -8.212   2.052 125.693  0.00  0.00    -0.001 A 
ATOM     38  C   LIG A   1      -8.169   2.600 124.401  0.00  0.00    +0.056 A 
ATOM     39  C   LIG A   1      -9.067   2.155 123.433  0.00  0.00    +0.159 A 
ATOM     40  C   LIG A   1     -10.001   1.166 123.735  0.00  0.00    +0.158 A 
ATOM     41  C   LIG A   1     -10.050   0.600 124.996  0.00  0.00    +0.049 A 
ATOM     42  C   LIG A   1      -9.155   1.040 125.970  0.00  0.00    +0.011 A 
BRANCH  39  43
ATOM     43  O   LIG A   1      -9.079   2.664 122.164  0.00  0.00    -0.503 OA
ATOM     44  H   LIG A   1      -8.174   2.619 121.810  0.00  0.00    +0.292 HD
ENDBRANCH  39  43
BRANCH  40  45
ATOM     45  O   LIG A   1     -10.884   0.744 122.782  0.00  0.00    -0.503 OA
ATOM     46  H   LIG A   1     -10.362   0.137 122.220  0.00  0.00    +0.292 HD
ENDBRANCH  40  45
ENDBRANCH   7  37
BRANCH   1  47
ATOM     47  O   LIG A   1      -1.433   3.821 126.570  0.00  0.00    -0.506 OA
ATOM     48  H   LIG A   1      -1.051   2.997 126.912  0.00  0.00    +0.292 HD
ENDBRANCH   1  47
BRANCH   3  49
ATOM     49  O   LIG A   1      -4.555   5.709 129.682  0.00  0.00    -0.506 OA
ATOM     50  H   LIG A   1      -5.438   5.490 130.022  0.00  0.00    +0.292 HD
ENDBRANCH   3  49
BRANCH   6  51
ATOM     51  O   LIG A   1      -7.914   4.917 126.511  0.00  0.00    -0.387 OA
ATOM     52  H   LIG A   1      -8.786   5.318 126.687  0.00  0.00    +0.210 HD
ENDBRANCH   6  51
TORSDOF 13
ENDMDL
MODEL 2
REMARK VINA RESULT:     -10.1      1.123      1.518
REMARK  Name = NuBBE_359
REMARK  13 active torsions:
REMARK  status: ('A' for Active; 'I' for Inactive)
REMARK    1  A    between atoms: O_1  and  C_2
REMARK    2  A    between atoms: C_4  and  O_5
REMARK    3  A    between atoms: C_7  and  C_9
REMARK    4  A    between atoms: C_10  and  O_11
REMARK    5  A    between atoms: C_13  and  O_14
REMARK    6  A    between atoms: C_18  and  C_20
REMARK    7  A    between atoms: C_22  and  O_23
REMARK    8  A    between atoms: C_24  and  O_25
REMARK    9  A    between atoms: C_28  and  O_30
REMARK   10  A    between atoms: C_32  and  O_34
REMARK   11  A    between atoms: C_35  and  C_37
REMARK   12  A    between atoms: C_39  and  O_40
REMARK   13  A    between atoms: C_41  and  O_42
REMARK                            x       y       z     vdW  Elec       q    Type
REMARK                         _______ _______ _______ _____ _____    ______ ____
ROOT
ATOM      1  C   LIG A   1      -2.972   4.148 127.128  0.00  0.00    +0.124 A 
ATOM      2  C   LIG A   1      -3.493   5.026 128.072  0.00  0.00    +0.091 A 
ATOM      3  C   LIG A   1      -4.823   4.879 128.465  0.00  0.00    +0.128 A 
ATOM      4  C   LIG A   1      -5.636   3.861 127.940  0.00  0.00    +0.046 A 
ATOM      5  C   LIG A   1      -7.071   3.685 128.401  0.00  0.00    +0.096 C 
ATOM      6  C   LIG A   1      -7.868   2.847 127.376  0.00  0.00    +0.172 C 
ATOM      7  C   LIG A   1      -7.038   1.630 126.927  0.00  0.00    +0.233 C 
ATOM      8  O   LIG A   1      -5.779   2.010 126.350  0.00  0.00    -0.481 OA
ATOM      9  C   LIG A   1      -5.087   3.005 126.978  0.00  0.00    +0.132 A 
ATOM     10  C   LIG A   1      -3.761   3.152 126.570  0.00  0.00    +0.091 A 
ENDROOT
BRANCH   5  11
ATOM     11  C   LIG A   1      -7.275   3.165 129.833  0.00  0.00    +0.046 A 
ATOM     12  C   LIG A   1      -6.515   2.077 130.307  0.00  0.00    +0.128 A 
ATOM     13  C   LIG A   1      -6.629   1.612 131.618  0.00  0.00    +0.091 A 
ATOM     14  C   LIG A   1      -7.516   2.224 132.492  0.00  0.00    +0.127 A 
ATOM     15  C   LIG A   1      -8.287   3.311 132.084  0.00  0.00    +0.039 A 
ATOM     16  C   LIG A   1      -8.168   3.766 130.753  0.00  0.00    +0.136 A 
ATOM     17  O   LIG A   1      -8.864   4.876 130.333  0.00  0.00    -0.481 OA
ATOM     18  C   LIG A   1     -10.080   5.133 131.054  0.00  0.00    +0.232 C 
ATOM     19  C   LIG A   1      -9.747   5.313 132.544  0.00  0.00    +0.164 C 
ATOM     20  C   LIG A   1      -9.233   3.970 133.063  0.00  0.00    +0.078 C 
BRANCH  18  21
ATOM     21  C   LIG A   1     -10.778   6.333 130.432  0.00  0.00    -0.001 A 
ATOM     22  C   LIG A   1     -10.232   7.013 129.329  0.00  0.00    +0.056 A 
ATOM     23  C   LIG A   1     -10.895   8.113 128.792  0.00  0.00    +0.159 A 
ATOM     24  C   LIG A   1     -12.103   8.541 129.332  0.00  0.00    +0.158 A 
ATOM     25  C   LIG A   1     -12.669   7.881 130.410  0.00  0.00    +0.049 A 
ATOM     26  C   LIG A   1     -12.006   6.779 130.961  0.00  0.00    +0.011 A 
BRANCH  23  27
ATOM     27  O   LIG A   1     -10.392   8.808 127.727  0.00  0.00    -0.503 OA
ATOM     28  H   LIG A   1     -11.143   9.117 127.191  0.00  0.00    +0.292 HD
ENDBRANCH  23  27
BRANCH  24  29
ATOM     29  O   LIG A   1     -12.744   9.621 128.797  0.00  0.00    -0.503 OA
ATOM     30  H   LIG A   1     -13.420   9.854 129.465  0.00  0.00    +0.292 HD
ENDBRANCH  24  29
ENDBRANCH  18  21
BRANCH  12  31
ATOM     31  O   LIG A   1      -5.589   1.407 129.554  0.00  0.00    -0.506 OA
ATOM     32  H   LIG A   1      -5.965   0.589 129.193  0.00  0.00    +0.292 HD
ENDBRANCH  12  31
BRANCH  14  33
ATOM     33  O   LIG A   1      -7.634   1.778 133.778  0.00  0.00    -0.506 OA
ATOM     34  H   LIG A   1      -7.741   0.812 133.767  0.00  0.00    +0.292 HD
ENDBRANCH  14  33
BRANCH  19  35
ATOM     35  O   LIG A   1      -8.723   6.303 132.757  0.00  0.00    -0.388 OA
ATOM     36  H   LIG A   1      -8.002   6.084 132.138  0.00  0.00    +0.210 HD
ENDBRANCH  19  35
ENDBRANCH   5  11
BRANCH   7  37
ATOM     37  C   LIG A   1      -7.772   0.763 125.906  0.00  0.00    -0.001 A 
ATOM     38  C   LIG A   1      -8.515  -0.354 126.323  0.00  0.00    +0.056 A 
ATOM     39  C   LIG A   1      -9.154  -1.150 125.374  0.00  0.00    +0.159 A 
ATOM     40  C   LIG A   1      -9.069  -0.842 124.018  0.00  0.00    +0.158 A 
ATOM     41  C   LIG A   1      -8.358   0.263 123.586  0.00  0.00    +0.049 A 
ATOM     42  C   LIG A   1      -7.715   1.064 124.529  0.00  0.00    +0.011 A 
BRANCH  39  43
ATOM     43  O   LIG A   1      -9.878  -2.256 125.723  0.00  0.00    -0.503 OA
ATOM     44  H   LIG A   1      -9.275  -3.018 125.755  0.00  0.00    +0.292 HD
ENDBRANCH  39  43
BRANCH  40  45
ATOM     45  O   LIG A   1      -9.692  -1.633 123.095  0.00  0.00    -0.503 OA
ATOM     46  H   LIG A   1     -10.286  -1.024 122.614  0.00  0.00    +0.292 HD
ENDBRANCH  40  45
ENDBRANCH   7  37
BRANCH   1  47
ATOM     47  O   LIG A   1      -1.678   4.237 126.708  0.00  0.00    -0.506 OA
ATOM     48  H   LIG A   1      -1.503   3.542 126.054  0.00  0.00    +0.292 HD
ENDBRANCH   1  47
BRANCH   3  49
ATOM     49  O   LIG A   1      -5.367   5.748 129.373  0.00  0.00    -0.506 OA
ATOM     50  H   LIG A   1      -5.117   6.656 129.134  0.00  0.00    +0.292 HD
ENDBRANCH   3  49
BRANCH   6  51
ATOM     51  O   LIG A   1      -8.214   3.702 126.263  0.00  0.00    -0.387 OA
ATOM     52  H   LIG A   1      -8.236   4.616 126.603  0.00  0.00    +0.210 HD
ENDBRANCH   6  51
TORSDOF 13
ENDMDL
MODEL 3
REMARK VINA RESULT:      -9.2      3.092      8.266
REMARK  Name = NuBBE_359
REMARK  13 active torsions:
REMARK  status: ('A' for Active; 'I' for Inactive)
REMARK    1  A    between atoms: O_1  and  C_2
REMARK    2  A    between atoms: C_4  and  O_5
REMARK    3  A    between atoms: C_7  and  C_9
REMARK    4  A    between atoms: C_10  and  O_11
REMARK    5  A    between atoms: C_13  and  O_14
REMARK    6  A    between atoms: C_18  and  C_20
REMARK    7  A    between atoms: C_22  and  O_23
REMARK    8  A    between atoms: C_24  and  O_25
REMARK    9  A    between atoms: C_28  and  O_30
REMARK   10  A    between atoms: C_32  and  O_34
REMARK   11  A    between atoms: C_35  and  C_37
REMARK   12  A    between atoms: C_39  and  O_40
REMARK   13  A    between atoms: C_41  and  O_42
REMARK                            x       y       z     vdW  Elec       q    Type
REMARK                         _______ _______ _______ _____ _____    ______ ____
ROOT
ATOM      1  C   LIG A   1      -2.519   5.812 128.112  0.00  0.00    +0.124 A 
ATOM      2  C   LIG A   1      -2.243   4.568 127.557  0.00  0.00    +0.091 A 
ATOM      3  C   LIG A   1      -3.241   3.593 127.559  0.00  0.00    +0.128 A 
ATOM      4  C   LIG A   1      -4.514   3.846 128.095  0.00  0.00    +0.046 A 
ATOM      5  C   LIG A   1      -5.605   2.793 128.060  0.00  0.00    +0.096 C 
ATOM      6  C   LIG A   1      -6.706   3.122 129.094  0.00  0.00    +0.172 C 
ATOM      7  C   LIG A   1      -7.063   4.618 129.028  0.00  0.00    +0.233 C 
ATOM      8  O   LIG A   1      -5.926   5.463 129.264  0.00  0.00    -0.481 OA
ATOM      9  C   LIG A   1      -4.755   5.103 128.663  0.00  0.00    +0.132 A 
ATOM     10  C   LIG A   1      -3.759   6.080 128.676  0.00  0.00    +0.091 A 
ENDROOT
BRANCH   5  11
ATOM     11  C   LIG A   1      -6.206   2.469 126.683  0.00  0.00    +0.046 A 
ATOM     12  C   LIG A   1      -6.452   3.502 125.756  0.00  0.00    +0.128 A 
ATOM     13  C   LIG A   1      -6.941   3.244 124.476  0.00  0.00    +0.091 A 
ATOM     14  C   LIG A   1      -7.204   1.938 124.088  0.00  0.00    +0.127 A 
ATOM     15  C   LIG A   1      -6.971   0.873 124.957  0.00  0.00    +0.039 A 
ATOM     16  C   LIG A   1      -6.483   1.148 126.253  0.00  0.00    +0.136 A 
ATOM     17  O   LIG A   1      -6.179   0.121 127.114  0.00  0.00    -0.481 OA
ATOM     18  C   LIG A   1      -6.914  -1.093 126.887  0.00  0.00    +0.232 C 
ATOM     19  C   LIG A   1      -6.646  -1.576 125.452  0.00  0.00    +0.164 C 
ATOM     20  C   LIG A   1      -7.249  -0.543 124.501  0.00  0.00    +0.078 C 
BRANCH  18  21
ATOM     21  C   LIG A   1      -6.535  -2.107 127.957  0.00  0.00    -0.001 A 
ATOM     22  C   LIG A   1      -5.194  -2.334 128.315  0.00  0.00    +0.056 A 
ATOM     23  C   LIG A   1      -4.886  -3.276 129.292  0.00  0.00    +0.159 A 
ATOM     24  C   LIG A   1      -5.896  -3.990 129.928  0.00  0.00    +0.158 A 
ATOM     25  C   LIG A   1      -7.225  -3.775 129.603  0.00  0.00    +0.049 A 
ATOM     26  C   LIG A   1      -7.544  -2.836 128.617  0.00  0.00    +0.011 A 
BRANCH  23  27
ATOM     27  O   LIG A   1      -3.594  -3.535 129.660  0.00  0.00    -0.503 OA
ATOM     28  H   LIG A   1      -3.235  -4.197 129.043  0.00  0.00    +0.292 HD
ENDBRANCH  23  27
BRANCH  24  29
ATOM     29  O   LIG A   1      -5.580  -4.912 130.884  0.00  0.00    -0.503 OA
ATOM     30  H   LIG A   1      -5.938  -4.532 131.711  0.00  0.00    +0.292 HD
ENDBRANCH  24  29
ENDBRANCH  18  21
BRANCH  12  31
ATOM     31  O   LIG A   1      -6.210   4.825 126.007  0.00  0.00    -0.506 OA
ATOM     32  H   LIG A   1      -5.581   4.929 126.738  0.00  0.00    +0.292 HD
ENDBRANCH  12  31
BRANCH  14  33
ATOM     33  O   LIG A   1      -7.683   1.673 122.836  0.00  0.00    -0.506 OA
ATOM     34  H   LIG A   1      -7.017   1.164 122.345  0.00  0.00    +0.292 HD
ENDBRANCH  14  33
BRANCH  19  35
ATOM     35  O   LIG A   1      -5.239  -1.686 125.169  0.00  0.00    -0.388 OA
ATOM     36  H   LIG A   1      -4.787  -1.109 125.811  0.00  0.00    +0.210 HD
ENDBRANCH  19  35
ENDBRANCH   5  11
BRANCH   7  37
ATOM     37  C   LIG A   1      -8.146   5.008 130.033  0.00  0.00    -0.001 A 
ATOM     38  C   LIG A   1      -9.434   4.456 129.944  0.00  0.00    +0.056 A 
ATOM     39  C   LIG A   1     -10.416   4.845 130.853  0.00  0.00    +0.159 A 
ATOM     40  C   LIG A   1     -10.128   5.770 131.853  0.00  0.00    +0.158 A 
ATOM     41  C   LIG A   1      -8.862   6.314 131.971  0.00  0.00    +0.049 A 
ATOM     42  C   LIG A   1      -7.874   5.931 131.066  0.00  0.00    +0.011 A 
BRANCH  39  43
ATOM     43  O   LIG A   1     -11.689   4.349 130.803  0.00  0.00    -0.503 OA
ATOM     44  H   LIG A   1     -11.655   3.399 131.011  0.00  0.00    +0.292 HD
ENDBRANCH  39  43
BRANCH  40  45
ATOM     45  O   LIG A   1     -11.100   6.153 132.733  0.00  0.00    -0.503 OA
ATOM     46  H   LIG A   1     -11.860   5.574 132.523  0.00  0.00    +0.292 HD
ENDBRANCH  40  45
ENDBRANCH   7  37
BRANCH   1  47
ATOM     47  O   LIG A   1      -1.588   6.806 128.134  0.00  0.00    -0.506 OA
ATOM     48  H   LIG A   1      -1.576   7.255 127.274  0.00  0.00    +0.292 HD
ENDBRANCH   1  47
BRANCH   3  49
ATOM     49  O   LIG A   1      -2.984   2.351 127.043  0.00  0.00    -0.506 OA
ATOM     50  H   LIG A   1      -3.311   1.675 127.660  0.00  0.00    +0.292 HD
ENDBRANCH   3  49
BRANCH   6  51
ATOM     51  O   LIG A   1      -6.227   2.740 130.403  0.00  0.00    -0.387 OA
ATOM     52  H   LIG A   1      -6.611   1.865 130.602  0.00  0.00    +0.210 HD
ENDBRANCH   6  51
TORSDOF 13
ENDMDL
MODEL 4
REMARK VINA RESULT:      -9.1      1.860      7.527
REMARK  Name = NuBBE_359
REMARK  13 active torsions:
REMARK  status: ('A' for Active; 'I' for Inactive)
REMARK    1  A    between atoms: O_1  and  C_2
REMARK    2  A    between atoms: C_4  and  O_5
REMARK    3  A    between atoms: C_7  and  C_9
REMARK    4  A    between atoms: C_10  and  O_11
REMARK    5  A    between atoms: C_13  and  O_14
REMARK    6  A    between atoms: C_18  and  C_20
REMARK    7  A    between atoms: C_22  and  O_23
REMARK    8  A    between atoms: C_24  and  O_25
REMARK    9  A    between atoms: C_28  and  O_30
REMARK   10  A    between atoms: C_32  and  O_34
REMARK   11  A    between atoms: C_35  and  C_37
REMARK   12  A    between atoms: C_39  and  O_40
REMARK   13  A    between atoms: C_41  and  O_42
REMARK                            x       y       z     vdW  Elec       q    Type
REMARK                         _______ _______ _______ _____ _____    ______ ____
ROOT
ATOM      1  C   LIG A   1      -7.322   4.977 134.868  0.00  0.00    +0.124 A 
ATOM      2  C   LIG A   1      -6.475   4.037 134.293  0.00  0.00    +0.091 A 
ATOM      3  C   LIG A   1      -6.469   3.896 132.905  0.00  0.00    +0.128 A 
ATOM      4  C   LIG A   1      -7.287   4.689 132.083  0.00  0.00    +0.046 A 
ATOM      5  C   LIG A   1      -7.247   4.555 130.572  0.00  0.00    +0.096 C 
ATOM      6  C   LIG A   1      -8.524   5.159 129.944  0.00  0.00    +0.172 C 
ATOM      7  C   LIG A   1      -8.845   6.515 130.599  0.00  0.00    +0.233 C 
ATOM      8  O   LIG A   1      -9.023   6.407 132.020  0.00  0.00    -0.481 OA
ATOM      9  C   LIG A   1      -8.142   5.614 132.694  0.00  0.00    +0.132 A 
ATOM     10  C   LIG A   1      -8.163   5.753 134.082  0.00  0.00    +0.091 A 
ENDROOT
BRANCH   5  11
ATOM     11  C   LIG A   1      -5.979   5.064 129.869  0.00  0.00    +0.046 A 
ATOM     12  C   LIG A   1      -5.215   6.098 130.446  0.00  0.00    +0.128 A 
ATOM     13  C   LIG A   1      -4.027   6.548 129.869  0.00  0.00    +0.091 A 
ATOM     14  C   LIG A   1      -3.572   5.975 128.690  0.00  0.00    +0.127 A 
ATOM     15  C   LIG A   1      -4.279   4.941 128.078  0.00  0.00    +0.039 A 
ATOM     16  C   LIG A   1      -5.484   4.501 128.667  0.00  0.00    +0.136 A 
ATOM     17  O   LIG A   1      -6.174   3.440 128.129  0.00  0.00    -0.481 OA
ATOM     18  C   LIG A   1      -5.972   3.242 126.721  0.00  0.00    +0.232 C 
ATOM     19  C   LIG A   1      -4.473   3.020 126.459  0.00  0.00    +0.164 C 
ATOM     20  C   LIG A   1      -3.751   4.322 126.802  0.00  0.00    +0.078 C 
BRANCH  18  21
ATOM     21  C   LIG A   1      -6.853   2.095 126.252  0.00  0.00    -0.001 A 
ATOM     22  C   LIG A   1      -6.568   1.380 125.074  0.00  0.00    +0.056 A 
ATOM     23  C   LIG A   1      -7.402   0.342 124.672  0.00  0.00    +0.159 A 
ATOM     24  C   LIG A   1      -8.514  -0.006 125.432  0.00  0.00    +0.158 A 
ATOM     25  C   LIG A   1      -8.809   0.672 126.603  0.00  0.00    +0.049 A 
ATOM     26  C   LIG A   1      -7.981   1.723 127.011  0.00  0.00    +0.011 A 
BRANCH  23  27
ATOM     27  O   LIG A   1      -7.167  -0.369 123.527  0.00  0.00    -0.503 OA
ATOM     28  H   LIG A   1      -6.356  -0.019 123.120  0.00  0.00    +0.292 HD
ENDBRANCH  23  27
BRANCH  24  29
ATOM     29  O   LIG A   1      -9.325  -1.026 125.026  0.00  0.00    -0.503 OA
ATOM     30  H   LIG A   1      -9.464  -1.558 125.835  0.00  0.00    +0.292 HD
ENDBRANCH  24  29
ENDBRANCH  18  21
BRANCH  12  31
ATOM     31  O   LIG A   1      -5.541   6.725 131.618  0.00  0.00    -0.506 OA
ATOM     32  H   LIG A   1      -6.311   7.302 131.497  0.00  0.00    +0.292 HD
ENDBRANCH  12  31
BRANCH  14  33
ATOM     33  O   LIG A   1      -2.409   6.407 128.117  0.00  0.00    -0.506 OA
ATOM     34  H   LIG A   1      -2.008   5.671 127.626  0.00  0.00    +0.292 HD
ENDBRANCH  14  33
BRANCH  19  35
ATOM     35  O   LIG A   1      -3.928   1.969 127.279  0.00  0.00    -0.388 OA
ATOM     36  H   LIG A   1      -3.921   1.169 126.724  0.00  0.00    +0.210 HD
ENDBRANCH  19  35
ENDBRANCH   5  11
BRANCH   7  37
ATOM     37  C   LIG A   1     -10.103   7.163 130.022  0.00  0.00    -0.001 A 
ATOM     38  C   LIG A   1     -10.116   7.643 128.702  0.00  0.00    +0.056 A 
ATOM     39  C   LIG A   1     -11.264   8.255 128.203  0.00  0.00    +0.159 A 
ATOM     40  C   LIG A   1     -12.399   8.389 128.999  0.00  0.00    +0.158 A 
ATOM     41  C   LIG A   1     -12.415   7.907 130.296  0.00  0.00    +0.049 A 
ATOM     42  C   LIG A   1     -11.271   7.294 130.803  0.00  0.00    +0.011 A 
BRANCH  39  43
ATOM     43  O   LIG A   1     -11.327   8.752 126.931  0.00  0.00    -0.503 OA
ATOM     44  H   LIG A   1     -10.858   8.138 126.340  0.00  0.00    +0.292 HD
ENDBRANCH  39  43
BRANCH  40  45
ATOM     45  O   LIG A   1     -13.516   8.999 128.504  0.00  0.00    -0.503 OA
ATOM     46  H   LIG A   1     -13.271   9.251 127.591  0.00  0.00    +0.292 HD
ENDBRANCH  40  45
ENDBRANCH   7  37
BRANCH   1  47
ATOM     47  O   LIG A   1      -7.369   5.165 136.217  0.00  0.00    -0.506 OA
ATOM     48  H   LIG A   1      -6.465   5.196 136.569  0.00  0.00    +0.292 HD
ENDBRANCH   1  47
BRANCH   3  49
ATOM     49  O   LIG A   1      -5.664   2.958 132.317  0.00  0.00    -0.506 OA
ATOM     50  H   LIG A   1      -5.615   2.175 132.891  0.00  0.00    +0.292 HD
ENDBRANCH   3  49
BRANCH   6  51
ATOM     51  O   LIG A   1      -9.603   4.213 130.109  0.00  0.00    -0.387 OA
ATOM     52  H   LIG A   1      -9.202   3.323 130.114  0.00  0.00    +0.210 HD
ENDBRANCH   6  51
TORSDOF 13
ENDMDL
MODEL 5
REMARK VINA RESULT:      -9.0      3.183      7.354
REMARK  Name = NuBBE_359
REMARK  13 active torsions:
REMARK  status: ('A' for Active; 'I' for Inactive)
REMARK    1  A    between atoms: O_1  and  C_2
REMARK    2  A    between atoms: C_4  and  O_5
REMARK    3  A    between atoms: C_7  and  C_9
REMARK    4  A    between atoms: C_10  and  O_11
REMARK    5  A    between atoms: C_13  and  O_14
REMARK    6  A    between atoms: C_18  and  C_20
REMARK    7  A    between atoms: C_22  and  O_23
REMARK    8  A    between atoms: C_24  and  O_25
REMARK    9  A    between atoms: C_28  and  O_30
REMARK   10  A    between atoms: C_32  and  O_34
REMARK   11  A    between atoms: C_35  and  C_37
REMARK   12  A    between atoms: C_39  and  O_40
REMARK   13  A    between atoms: C_41  and  O_42
REMARK                            x       y       z     vdW  Elec       q    Type
REMARK                         _______ _______ _______ _____ _____    ______ ____
ROOT
ATOM      1  C   LIG A   1      -3.520   4.316 134.201  0.00  0.00    +0.124 A 
ATOM      2  C   LIG A   1      -3.159   3.031 133.815  0.00  0.00    +0.091 A 
ATOM      3  C   LIG A   1      -4.012   2.316 132.973  0.00  0.00    +0.128 A 
ATOM      4  C   LIG A   1      -5.213   2.870 132.502  0.00  0.00    +0.046 A 
ATOM      5  C   LIG A   1      -6.117   2.100 131.558  0.00  0.00    +0.096 C 
ATOM      6  C   LIG A   1      -7.542   2.698 131.567  0.00  0.00    +0.172 C 
ATOM      7  C   LIG A   1      -7.471   4.234 131.499  0.00  0.00    +0.233 C 
ATOM      8  O   LIG A   1      -6.716   4.795 132.584  0.00  0.00    -0.481 OA
ATOM      9  C   LIG A   1      -5.558   4.160 132.924  0.00  0.00    +0.132 A 
ATOM     10  C   LIG A   1      -4.716   4.878 133.774  0.00  0.00    +0.091 A 
ENDROOT
BRANCH   5  11
ATOM     11  C   LIG A   1      -5.601   1.896 130.125  0.00  0.00    +0.046 A 
ATOM     12  C   LIG A   1      -6.039   0.794 129.363  0.00  0.00    +0.128 A 
ATOM     13  C   LIG A   1      -5.640   0.606 128.040  0.00  0.00    +0.091 A 
ATOM     14  C   LIG A   1      -4.783   1.518 127.441  0.00  0.00    +0.127 A 
ATOM     15  C   LIG A   1      -4.324   2.634 128.140  0.00  0.00    +0.039 A 
ATOM     16  C   LIG A   1      -4.729   2.808 129.481  0.00  0.00    +0.136 A 
ATOM     17  O   LIG A   1      -4.350   3.930 130.181  0.00  0.00    -0.481 OA
ATOM     18  C   LIG A   1      -3.123   4.531 129.738  0.00  0.00    +0.232 C 
ATOM     19  C   LIG A   1      -3.265   4.917 128.256  0.00  0.00    +0.164 C 
ATOM     20  C   LIG A   1      -3.404   3.622 127.457  0.00  0.00    +0.078 C 
BRANCH  18  21
ATOM     21  C   LIG A   1      -2.791   5.704 130.648  0.00  0.00    -0.001 A 
ATOM     22  C   LIG A   1      -1.519   5.845 131.233  0.00  0.00    +0.056 A 
ATOM     23  C   LIG A   1      -1.254   6.927 132.067  0.00  0.00    +0.159 A 
ATOM     24  C   LIG A   1      -2.235   7.879 132.321  0.00  0.00    +0.158 A 
ATOM     25  C   LIG A   1      -3.491   7.771 131.747  0.00  0.00    +0.049 A 
ATOM     26  C   LIG A   1      -3.769   6.683 130.913  0.00  0.00    +0.011 A 
BRANCH  23  27
ATOM     27  O   LIG A   1      -0.035   7.094 132.665  0.00  0.00    -0.503 OA
ATOM     28  H   LIG A   1      -0.067   7.916 133.184  0.00  0.00    +0.292 HD
ENDBRANCH  23  27
BRANCH  24  29
ATOM     29  O   LIG A   1      -1.963   8.936 133.142  0.00  0.00    -0.503 OA
ATOM     30  H   LIG A   1      -0.986   8.972 133.172  0.00  0.00    +0.292 HD
ENDBRANCH  24  29
ENDBRANCH  18  21
BRANCH  12  31
ATOM     31  O   LIG A   1      -6.904  -0.159 129.828  0.00  0.00    -0.506 OA
ATOM     32  H   LIG A   1      -7.794   0.210 129.943  0.00  0.00    +0.292 HD
ENDBRANCH  12  31
BRANCH  14  33
ATOM     33  O   LIG A   1      -4.386   1.344 126.145  0.00  0.00    -0.506 OA
ATOM     34  H   LIG A   1      -5.174   1.237 125.586  0.00  0.00    +0.292 HD
ENDBRANCH  14  33
BRANCH  19  35
ATOM     35  O   LIG A   1      -4.431   5.727 128.014  0.00  0.00    -0.388 OA
ATOM     36  H   LIG A   1      -4.106   6.561 127.630  0.00  0.00    +0.210 HD
ENDBRANCH  19  35
ENDBRANCH   5  11
BRANCH   7  37
ATOM     37  C   LIG A   1      -8.853   4.887 131.510  0.00  0.00    -0.001 A 
ATOM     38  C   LIG A   1      -9.735   4.705 130.433  0.00  0.00    +0.056 A 
ATOM     39  C   LIG A   1     -10.980   5.331 130.449  0.00  0.00    +0.159 A 
ATOM     40  C   LIG A   1     -11.359   6.128 131.526  0.00  0.00    +0.158 A 
ATOM     41  C   LIG A   1     -10.513   6.307 132.606  0.00  0.00    +0.049 A 
ATOM     42  C   LIG A   1      -9.265   5.685 132.598  0.00  0.00    +0.011 A 
BRANCH  39  43
ATOM     43  O   LIG A   1     -11.872   5.200 129.421  0.00  0.00    -0.503 OA
ATOM     44  H   LIG A   1     -11.636   5.841 128.728  0.00  0.00    +0.292 HD
ENDBRANCH  39  43
BRANCH  40  45
ATOM     45  O   LIG A   1     -12.577   6.746 131.528  0.00  0.00    -0.503 OA
ATOM     46  H   LIG A   1     -12.367   7.698 131.444  0.00  0.00    +0.292 HD
ENDBRANCH  40  45
ENDBRANCH   7  37
BRANCH   1  47
ATOM     47  O   LIG A   1      -2.727   5.067 135.015  0.00  0.00    -0.506 OA
ATOM     48  H   LIG A   1      -2.927   6.007 134.883  0.00  0.00    +0.292 HD
ENDBRANCH   1  47
BRANCH   3  49
ATOM     49  O   LIG A   1      -3.691   1.038 132.602  0.00  0.00    -0.506 OA
ATOM     50  H   LIG A   1      -2.739   0.990 132.412  0.00  0.00    +0.292 HD
ENDBRANCH   3  49
BRANCH   6  51
ATOM     51  O   LIG A   1      -8.217   2.242 132.761  0.00  0.00    -0.387 OA
ATOM     52  H   LIG A   1      -9.105   2.646 132.756  0.00  0.00    +0.210 HD
ENDBRANCH   6  51
TORSDOF 13
ENDMDL
MODEL 6
REMARK VINA RESULT:      -9.0      2.668      6.171
REMARK  Name = NuBBE_359
REMARK  13 active torsions:
REMARK  status: ('A' for Active; 'I' for Inactive)
REMARK    1  A    between atoms: O_1  and  C_2
REMARK    2  A    between atoms: C_4  and  O_5
REMARK    3  A    between atoms: C_7  and  C_9
REMARK    4  A    between atoms: C_10  and  O_11
REMARK    5  A    between atoms: C_13  and  O_14
REMARK    6  A    between atoms: C_18  and  C_20
REMARK    7  A    between atoms: C_22  and  O_23
REMARK    8  A    between atoms: C_24  and  O_25
REMARK    9  A    between atoms: C_28  and  O_30
REMARK   10  A    between atoms: C_32  and  O_34
REMARK   11  A    between atoms: C_35  and  C_37
REMARK   12  A    between atoms: C_39  and  O_40
REMARK   13  A    between atoms: C_41  and  O_42
REMARK                            x       y       z     vdW  Elec       q    Type
REMARK                         _______ _______ _______ _____ _____    ______ ____
ROOT
ATOM      1  C   LIG A   1      -6.711   0.740 132.797  0.00  0.00    +0.124 A 
ATOM      2  C   LIG A   1      -5.801   0.297 131.844  0.00  0.00    +0.091 A 
ATOM      3  C   LIG A   1      -5.776   0.920 130.596  0.00  0.00    +0.128 A 
ATOM      4  C   LIG A   1      -6.638   1.986 130.290  0.00  0.00    +0.046 A 
ATOM      5  C   LIG A   1      -6.579   2.682 128.943  0.00  0.00    +0.096 C 
ATOM      6  C   LIG A   1      -7.888   3.462 128.682  0.00  0.00    +0.172 C 
ATOM      7  C   LIG A   1      -8.301   4.240 129.945  0.00  0.00    +0.233 C 
ATOM      8  O   LIG A   1      -8.482   3.381 131.081  0.00  0.00    -0.481 OA
ATOM      9  C   LIG A   1      -7.556   2.397 131.264  0.00  0.00    +0.132 A 
ATOM     10  C   LIG A   1      -7.595   1.772 132.511  0.00  0.00    +0.091 A 
ENDROOT
BRANCH   5  11
ATOM     11  C   LIG A   1      -5.342   3.552 128.671  0.00  0.00    +0.046 A 
ATOM     12  C   LIG A   1      -4.594   3.372 127.490  0.00  0.00    +0.128 A 
ATOM     13  C   LIG A   1      -3.500   4.179 127.179  0.00  0.00    +0.091 A 
ATOM     14  C   LIG A   1      -3.119   5.190 128.049  0.00  0.00    +0.127 A 
ATOM     15  C   LIG A   1      -3.825   5.423 129.228  0.00  0.00    +0.039 A 
ATOM     16  C   LIG A   1      -4.926   4.595 129.535  0.00  0.00    +0.136 A 
ATOM     17  O   LIG A   1      -5.686   4.836 130.655  0.00  0.00    -0.481 OA
ATOM     18  C   LIG A   1      -4.993   5.500 131.723  0.00  0.00    +0.232 C 
ATOM     19  C   LIG A   1      -4.458   6.847 131.208  0.00  0.00    +0.164 C 
ATOM     20  C   LIG A   1      -3.398   6.545 130.150  0.00  0.00    +0.078 C 
BRANCH  18  21
ATOM     21  C   LIG A   1      -5.928   5.627 132.916  0.00  0.00    -0.001 A 
ATOM     22  C   LIG A   1      -7.304   5.864 132.752  0.00  0.00    +0.056 A 
ATOM     23  C   LIG A   1      -8.127   5.983 133.868  0.00  0.00    +0.159 A 
ATOM     24  C   LIG A   1      -7.601   5.858 135.149  0.00  0.00    +0.158 A 
ATOM     25  C   LIG A   1      -6.252   5.611 135.338  0.00  0.00    +0.049 A 
ATOM     26  C   LIG A   1      -5.416   5.498 134.223  0.00  0.00    +0.011 A 
BRANCH  23  27
ATOM     27  O   LIG A   1      -9.469   6.226 133.751  0.00  0.00    -0.503 OA
ATOM     28  H   LIG A   1      -9.724   6.839 134.462  0.00  0.00    +0.292 HD
ENDBRANCH  23  27
BRANCH  24  29
ATOM     29  O   LIG A   1      -8.419   5.977 136.236  0.00  0.00    -0.503 OA
ATOM     30  H   LIG A   1      -7.814   5.903 137.001  0.00  0.00    +0.292 HD
ENDBRANCH  24  29
ENDBRANCH  18  21
BRANCH  12  31
ATOM     31  O   LIG A   1      -4.883   2.430 126.541  0.00  0.00    -0.506 OA
ATOM     32  H   LIG A   1      -5.429   2.809 125.834  0.00  0.00    +0.292 HD
ENDBRANCH  12  31
BRANCH  14  33
ATOM     33  O   LIG A   1      -2.048   5.986 127.754  0.00  0.00    -0.506 OA
ATOM     34  H   LIG A   1      -2.338   6.694 127.154  0.00  0.00    +0.292 HD
ENDBRANCH  14  33
BRANCH  19  35
ATOM     35  O   LIG A   1      -5.491   7.645 130.599  0.00  0.00    -0.388 OA
ATOM     36  H   LIG A   1      -6.011   8.021 131.333  0.00  0.00    +0.210 HD
ENDBRANCH  19  35
ENDBRANCH   5  11
BRANCH   7  37
ATOM     37  C   LIG A   1      -9.594   5.031 129.751  0.00  0.00    -0.001 A 
ATOM     38  C   LIG A   1      -9.625   6.151 128.904  0.00  0.00    +0.056 A 
ATOM     39  C   LIG A   1     -10.807   6.875 128.762  0.00  0.00    +0.159 A 
ATOM     40  C   LIG A   1     -11.959   6.493 129.446  0.00  0.00    +0.158 A 
ATOM     41  C   LIG A   1     -11.956   5.383 130.271  0.00  0.00    +0.049 A 
ATOM     42  C   LIG A   1     -10.778   4.653 130.420  0.00  0.00    +0.011 A 
BRANCH  39  43
ATOM     43  O   LIG A   1     -10.889   7.981 127.962  0.00  0.00    -0.503 OA
ATOM     44  H   LIG A   1     -11.167   7.696 127.075  0.00  0.00    +0.292 HD
ENDBRANCH  39  43
BRANCH  40  45
ATOM     45  O   LIG A   1     -13.109   7.215 129.308  0.00  0.00    -0.503 OA
ATOM     46  H   LIG A   1     -13.004   7.680 128.453  0.00  0.00    +0.292 HD
ENDBRANCH  40  45
ENDBRANCH   7  37
BRANCH   1  47
ATOM     47  O   LIG A   1      -6.779   0.176 134.036  0.00  0.00    -0.506 OA
ATOM     48  H   LIG A   1      -7.123  -0.728 133.960  0.00  0.00    +0.292 HD
ENDBRANCH   1  47
BRANCH   3  49
ATOM     49  O   LIG A   1      -4.908   0.484 129.632  0.00  0.00    -0.506 OA
ATOM     50  H   LIG A   1      -5.400  -0.025 128.966  0.00  0.00    +0.292 HD
ENDBRANCH   3  49
BRANCH   6  51
ATOM     51  O   LIG A   1      -8.904   2.520 128.274  0.00  0.00    -0.387 OA
ATOM     52  H   LIG A   1      -8.541   2.021 127.518  0.00  0.00    +0.210 HD
ENDBRANCH   6  51
TORSDOF 13
ENDMDL
MODEL 7
REMARK VINA RESULT:      -9.0      2.451      6.446
REMARK  Name = NuBBE_359
REMARK  13 active torsions:
REMARK  status: ('A' for Active; 'I' for Inactive)
REMARK    1  A    between atoms: O_1  and  C_2
REMARK    2  A    between atoms: C_4  and  O_5
REMARK    3  A    between atoms: C_7  and  C_9
REMARK    4  A    between atoms: C_10  and  O_11
REMARK    5  A    between atoms: C_13  and  O_14
REMARK    6  A    between atoms: C_18  and  C_20
REMARK    7  A    between atoms: C_22  and  O_23
REMARK    8  A    between atoms: C_24  and  O_25
REMARK    9  A    between atoms: C_28  and  O_30
REMARK   10  A    between atoms: C_32  and  O_34
REMARK   11  A    between atoms: C_35  and  C_37
REMARK   12  A    between atoms: C_39  and  O_40
REMARK   13  A    between atoms: C_41  and  O_42
REMARK                            x       y       z     vdW  Elec       q    Type
REMARK                         _______ _______ _______ _____ _____    ______ ____
ROOT
ATOM      1  C   LIG A   1      -4.939   4.126 126.018  0.00  0.00    +0.124 A 
ATOM      2  C   LIG A   1      -3.695   4.341 126.600  0.00  0.00    +0.091 A 
ATOM      3  C   LIG A   1      -3.632   4.658 127.958  0.00  0.00    +0.128 A 
ATOM      4  C   LIG A   1      -4.793   4.750 128.744  0.00  0.00    +0.046 A 
ATOM      5  C   LIG A   1      -4.714   5.058 130.227  0.00  0.00    +0.096 C 
ATOM      6  C   LIG A   1      -6.079   5.563 130.746  0.00  0.00    +0.172 C 
ATOM      7  C   LIG A   1      -7.214   4.682 130.192  0.00  0.00    +0.233 C 
ATOM      8  O   LIG A   1      -7.235   4.657 128.757  0.00  0.00    -0.481 OA
ATOM      9  C   LIG A   1      -6.031   4.546 128.124  0.00  0.00    +0.132 A 
ATOM     10  C   LIG A   1      -6.104   4.240 126.765  0.00  0.00    +0.091 A 
ENDROOT
BRANCH   5  11
ATOM     11  C   LIG A   1      -4.141   3.955 131.130  0.00  0.00    +0.046 A 
ATOM     12  C   LIG A   1      -3.382   4.293 132.268  0.00  0.00    +0.128 A 
ATOM     13  C   LIG A   1      -2.893   3.323 133.144  0.00  0.00    +0.091 A 
ATOM     14  C   LIG A   1      -3.149   1.981 132.901  0.00  0.00    +0.127 A 
ATOM     15  C   LIG A   1      -3.904   1.586 131.797  0.00  0.00    +0.039 A 
ATOM     16  C   LIG A   1      -4.385   2.576 130.914  0.00  0.00    +0.136 A 
ATOM     17  O   LIG A   1      -5.187   2.230 129.852  0.00  0.00    -0.481 OA
ATOM     18  C   LIG A   1      -4.998   0.892 129.365  0.00  0.00    +0.232 C 
ATOM     19  C   LIG A   1      -5.268  -0.098 130.511  0.00  0.00    +0.164 C 
ATOM     20  C   LIG A   1      -4.183   0.117 131.566  0.00  0.00    +0.078 C 
BRANCH  18  21
ATOM     21  C   LIG A   1      -5.886   0.678 128.149  0.00  0.00    -0.001 A 
ATOM     22  C   LIG A   1      -7.214   1.142 128.115  0.00  0.00    +0.056 A 
ATOM     23  C   LIG A   1      -7.999   0.921 126.988  0.00  0.00    +0.159 A 
ATOM     24  C   LIG A   1      -7.478   0.252 125.885  0.00  0.00    +0.158 A 
ATOM     25  C   LIG A   1      -6.171  -0.204 125.888  0.00  0.00    +0.049 A 
ATOM     26  C   LIG A   1      -5.376   0.008 127.019  0.00  0.00    +0.011 A 
BRANCH  23  27
ATOM     27  O   LIG A   1      -9.298   1.345 126.920  0.00  0.00    -0.503 OA
ATOM     28  H   LIG A   1      -9.589   1.559 127.823  0.00  0.00    +0.292 HD
ENDBRANCH  23  27
BRANCH  24  29
ATOM     29  O   LIG A   1      -8.259   0.040 124.786  0.00  0.00    -0.503 OA
ATOM     30  H   LIG A   1      -8.875  -0.669 125.061  0.00  0.00    +0.292 HD
ENDBRANCH  24  29
ENDBRANCH  18  21
BRANCH  12  31
ATOM     31  O   LIG A   1      -3.083   5.577 132.632  0.00  0.00    -0.506 OA
ATOM     32  H   LIG A   1      -3.869   6.144 132.575  0.00  0.00    +0.292 HD
ENDBRANCH  12  31
BRANCH  14  33
ATOM     33  O   LIG A   1      -2.677   1.024 133.753  0.00  0.00    -0.506 OA
ATOM     34  H   LIG A   1      -1.757   0.817 133.516  0.00  0.00    +0.292 HD
ENDBRANCH  14  33
BRANCH  19  35
ATOM     35  O   LIG A   1      -6.550   0.122 131.129  0.00  0.00    -0.388 OA
ATOM     36  H   LIG A   1      -7.130  -0.593 130.809  0.00  0.00    +0.210 HD
ENDBRANCH  19  35
ENDBRANCH   5  11
BRANCH   7  37
ATOM     37  C   LIG A   1      -8.594   5.134 130.667  0.00  0.00    -0.001 A 
ATOM     38  C   LIG A   1      -9.687   5.134 129.784  0.00  0.00    +0.056 A 
ATOM     39  C   LIG A   1     -10.932   5.576 130.228  0.00  0.00    +0.159 A 
ATOM     40  C   LIG A   1     -11.103   6.010 131.541  0.00  0.00    +0.158 A 
ATOM     41  C   LIG A   1     -10.045   6.002 132.432  0.00  0.00    +0.049 A 
ATOM     42  C   LIG A   1      -8.796   5.562 131.996  0.00  0.00    +0.011 A 
BRANCH  39  43
ATOM     43  O   LIG A   1     -12.025   5.610 129.408  0.00  0.00    -0.503 OA
ATOM     44  H   LIG A   1     -12.233   4.698 129.140  0.00  0.00    +0.292 HD
ENDBRANCH  39  43
BRANCH  40  45
ATOM     45  O   LIG A   1     -12.324   6.451 131.964  0.00  0.00    -0.503 OA
ATOM     46  H   LIG A   1     -12.160   6.793 132.866  0.00  0.00    +0.292 HD
ENDBRANCH  40  45
ENDBRANCH   7  37
BRANCH   1  47
ATOM     47  O   LIG A   1      -5.064   3.807 124.699  0.00  0.00    -0.506 OA
ATOM     48  H   LIG A   1      -4.608   4.474 124.162  0.00  0.00    +0.292 HD
ENDBRANCH   1  47
BRANCH   3  49
ATOM     49  O   LIG A   1      -2.421   4.901 128.547  0.00  0.00    -0.506 OA
ATOM     50  H   LIG A   1      -2.516   4.825 129.512  0.00  0.00    +0.292 HD
ENDBRANCH   3  49
BRANCH   6  51
ATOM     51  O   LIG A   1      -6.231   6.946 130.355  0.00  0.00    -0.387 OA
ATOM     52  H   LIG A   1      -5.382   7.388 130.541  0.00  0.00    +0.210 HD
ENDBRANCH   6  51
TORSDOF 13
ENDMDL
MODEL 8
REMARK VINA RESULT:      -8.8      3.480      8.197
REMARK  Name = NuBBE_359
REMARK  13 active torsions:
REMARK  status: ('A' for Active; 'I' for Inactive)
REMARK    1  A    between atoms: O_1  and  C_2
REMARK    2  A    between atoms: C_4  and  O_5
REMARK    3  A    between atoms: C_7  and  C_9
REMARK    4  A    between atoms: C_10  and  O_11
REMARK    5  A    between atoms: C_13  and  O_14
REMARK    6  A    between atoms: C_18  and  C_20
REMARK    7  A    between atoms: C_22  and  O_23
REMARK    8  A    between atoms: C_24  and  O_25
REMARK    9  A    between atoms: C_28  and  O_30
REMARK   10  A    between atoms: C_32  and  O_34
REMARK   11  A    between atoms: C_35  and  C_37
REMARK   12  A    between atoms: C_39  and  O_40
REMARK   13  A    between atoms: C_41  and  O_42
REMARK                            x       y       z     vdW  Elec       q    Type
REMARK                         _______ _______ _______ _____ _____    ______ ____
ROOT
ATOM      1  C   LIG A   1      -9.124   3.571 133.224  0.00  0.00    +0.124 A 
ATOM      2  C   LIG A   1      -9.537   2.316 132.790  0.00  0.00    +0.091 A 
ATOM      3  C   LIG A   1      -8.799   1.671 131.796  0.00  0.00    +0.128 A 
ATOM      4  C   LIG A   1      -7.650   2.256 131.240  0.00  0.00    +0.046 A 
ATOM      5  C   LIG A   1      -6.832   1.532 130.186  0.00  0.00    +0.096 C 
ATOM      6  C   LIG A   1      -5.939   2.531 129.416  0.00  0.00    +0.172 C 
ATOM      7  C   LIG A   1      -5.260   3.501 130.400  0.00  0.00    +0.233 C 
ATOM      8  O   LIG A   1      -6.209   4.230 131.193  0.00  0.00    -0.481 OA
ATOM      9  C   LIG A   1      -7.271   3.528 131.684  0.00  0.00    +0.132 A 
ATOM     10  C   LIG A   1      -8.009   4.185 132.670  0.00  0.00    +0.091 A 
ENDROOT
BRANCH   5  11
ATOM     11  C   LIG A   1      -6.031   0.308 130.657  0.00  0.00    +0.046 A 
ATOM     12  C   LIG A   1      -5.288   0.365 131.854  0.00  0.00    +0.128 A 
ATOM     13  C   LIG A   1      -4.595  -0.742 132.345  0.00  0.00    +0.091 A 
ATOM     14  C   LIG A   1      -4.623  -1.940 131.646  0.00  0.00    +0.127 A 
ATOM     15  C   LIG A   1      -5.348  -2.060 130.461  0.00  0.00    +0.039 A 
ATOM     16  C   LIG A   1      -6.038  -0.931 129.970  0.00  0.00    +0.136 A 
ATOM     17  O   LIG A   1      -6.817  -1.029 128.842  0.00  0.00    -0.481 OA
ATOM     18  C   LIG A   1      -6.419  -2.058 127.922  0.00  0.00    +0.232 C 
ATOM     19  C   LIG A   1      -6.455  -3.414 128.647  0.00  0.00    +0.164 C 
ATOM     20  C   LIG A   1      -5.375  -3.383 129.728  0.00  0.00    +0.078 C 
BRANCH  18  21
ATOM     21  C   LIG A   1      -7.314  -1.996 126.693  0.00  0.00    -0.001 A 
ATOM     22  C   LIG A   1      -8.249  -0.961 126.514  0.00  0.00    +0.056 A 
ATOM     23  C   LIG A   1      -9.056  -0.942 125.381  0.00  0.00    +0.159 A 
ATOM     24  C   LIG A   1      -8.939  -1.935 124.414  0.00  0.00    +0.158 A 
ATOM     25  C   LIG A   1      -8.017  -2.958 124.560  0.00  0.00    +0.049 A 
ATOM     26  C   LIG A   1      -7.206  -2.989 125.699  0.00  0.00    +0.011 A 
BRANCH  23  27
ATOM     27  O   LIG A   1      -9.987   0.040 125.175  0.00  0.00    -0.503 OA
ATOM     28  H   LIG A   1     -10.190   0.064 124.224  0.00  0.00    +0.292 HD
ENDBRANCH  23  27
BRANCH  24  29
ATOM     29  O   LIG A   1      -9.738  -1.906 123.307  0.00  0.00    -0.503 OA
ATOM     30  H   LIG A   1      -9.792  -2.842 123.025  0.00  0.00    +0.292 HD
ENDBRANCH  24  29
ENDBRANCH  18  21
BRANCH  12  31
ATOM     31  O   LIG A   1      -5.204   1.476 132.648  0.00  0.00    -0.506 OA
ATOM     32  H   LIG A   1      -4.485   2.057 132.351  0.00  0.00    +0.292 HD
ENDBRANCH  12  31
BRANCH  14  33
ATOM     33  O   LIG A   1      -3.948  -3.030 132.119  0.00  0.00    -0.506 OA
ATOM     34  H   LIG A   1      -4.466  -3.435 132.835  0.00  0.00    +0.292 HD
ENDBRANCH  14  33
BRANCH  19  35
ATOM     35  O   LIG A   1      -7.724  -3.658 129.282  0.00  0.00    -0.388 OA
ATOM     36  H   LIG A   1      -8.292  -4.067 128.603  0.00  0.00    +0.210 HD
ENDBRANCH  19  35
ENDBRANCH   5  11
BRANCH   7  37
ATOM     37  C   LIG A   1      -4.364   4.520 129.698  0.00  0.00    -0.001 A 
ATOM     38  C   LIG A   1      -4.673   5.889 129.740  0.00  0.00    +0.056 A 
ATOM     39  C   LIG A   1      -3.859   6.801 129.070  0.00  0.00    +0.159 A 
ATOM     40  C   LIG A   1      -2.739   6.366 128.366  0.00  0.00    +0.158 A 
ATOM     41  C   LIG A   1      -2.406   5.024 128.325  0.00  0.00    +0.049 A 
ATOM     42  C   LIG A   1      -3.215   4.105 128.992  0.00  0.00    +0.011 A 
BRANCH  39  43
ATOM     43  O   LIG A   1      -4.121   8.143 129.067  0.00  0.00    -0.503 OA
ATOM     44  H   LIG A   1      -5.079   8.266 128.945  0.00  0.00    +0.292 HD
ENDBRANCH  39  43
BRANCH  40  45
ATOM     45  O   LIG A   1      -1.954   7.266 127.703  0.00  0.00    -0.503 OA
ATOM     46  H   LIG A   1      -2.270   7.229 126.778  0.00  0.00    +0.292 HD
ENDBRANCH  40  45
ENDBRANCH   7  37
BRANCH   1  47
ATOM     47  O   LIG A   1      -9.799   4.248 134.195  0.00  0.00    -0.506 OA
ATOM     48  H   LIG A   1      -9.391   4.068 135.056  0.00  0.00    +0.292 HD
ENDBRANCH   1  47
BRANCH   3  49
ATOM     49  O   LIG A   1      -9.201   0.448 131.333  0.00  0.00    -0.506 OA
ATOM     50  H   LIG A   1      -9.306   0.491 130.368  0.00  0.00    +0.292 HD
ENDBRANCH   3  49
BRANCH   6  51
ATOM     51  O   LIG A   1      -6.762   3.229 128.455  0.00  0.00    -0.387 OA
ATOM     52  H   LIG A   1      -6.595   2.818 127.587  0.00  0.00    +0.210 HD
ENDBRANCH   6  51
TORSDOF 13
ENDMDL
MODEL 9
REMARK VINA RESULT:      -8.8      2.947      7.465
REMARK  Name = NuBBE_359
REMARK  13 active torsions:
REMARK  status: ('A' for Active; 'I' for Inactive)
REMARK    1  A    between atoms: O_1  and  C_2
REMARK    2  A    between atoms: C_4  and  O_5
REMARK    3  A    between atoms: C_7  and  C_9
REMARK    4  A    between atoms: C_10  and  O_11
REMARK    5  A    between atoms: C_13  and  O_14
REMARK    6  A    between atoms: C_18  and  C_20
REMARK    7  A    between atoms: C_22  and  O_23
REMARK    8  A    between atoms: C_24  and  O_25
REMARK    9  A    between atoms: C_28  and  O_30
REMARK   10  A    between atoms: C_32  and  O_34
REMARK   11  A    between atoms: C_35  and  C_37
REMARK   12  A    between atoms: C_39  and  O_40
REMARK   13  A    between atoms: C_41  and  O_42
REMARK                            x       y       z     vdW  Elec       q    Type
REMARK                         _______ _______ _______ _____ _____    ______ ____
ROOT
ATOM      1  C   LIG A   1      -6.429   1.662 133.308  0.00  0.00    +0.124 A 
ATOM      2  C   LIG A   1      -5.634   1.156 132.287  0.00  0.00    +0.091 A 
ATOM      3  C   LIG A   1      -5.688   1.758 131.029  0.00  0.00    +0.128 A 
ATOM      4  C   LIG A   1      -6.514   2.867 130.782  0.00  0.00    +0.046 A 
ATOM      5  C   LIG A   1      -6.539   3.539 129.422  0.00  0.00    +0.096 C 
ATOM      6  C   LIG A   1      -7.821   4.388 129.263  0.00  0.00    +0.172 C 
ATOM      7  C   LIG A   1      -8.075   5.206 130.542  0.00  0.00    +0.233 C 
ATOM      8  O   LIG A   1      -8.200   4.375 131.707  0.00  0.00    -0.481 OA
ATOM      9  C   LIG A   1      -7.316   3.342 131.825  0.00  0.00    +0.132 A 
ATOM     10  C   LIG A   1      -7.277   2.738 133.083  0.00  0.00    +0.091 A 
ENDROOT
BRANCH   5  11
ATOM     11  C   LIG A   1      -5.285   4.334 129.023  0.00  0.00    +0.046 A 
ATOM     12  C   LIG A   1      -4.991   4.561 127.664  0.00  0.00    +0.128 A 
ATOM     13  C   LIG A   1      -3.895   5.325 127.263  0.00  0.00    +0.091 A 
ATOM     14  C   LIG A   1      -3.056   5.882 128.218  0.00  0.00    +0.127 A 
ATOM     15  C   LIG A   1      -3.301   5.701 129.578  0.00  0.00    +0.039 A 
ATOM     16  C   LIG A   1      -4.409   4.919 129.971  0.00  0.00    +0.136 A 
ATOM     17  O   LIG A   1      -4.720   4.773 131.302  0.00  0.00    -0.481 OA
ATOM     18  C   LIG A   1      -3.606   4.907 132.199  0.00  0.00    +0.232 C 
ATOM     19  C   LIG A   1      -2.975   6.295 132.005  0.00  0.00    +0.164 C 
ATOM     20  C   LIG A   1      -2.380   6.335 130.598  0.00  0.00    +0.078 C 
BRANCH  18  21
ATOM     21  C   LIG A   1      -4.082   4.642 133.620  0.00  0.00    -0.001 A 
ATOM     22  C   LIG A   1      -3.452   3.691 134.443  0.00  0.00    +0.056 A 
ATOM     23  C   LIG A   1      -3.921   3.470 135.734  0.00  0.00    +0.159 A 
ATOM     24  C   LIG A   1      -5.003   4.192 136.225  0.00  0.00    +0.158 A 
ATOM     25  C   LIG A   1      -5.633   5.144 135.441  0.00  0.00    +0.049 A 
ATOM     26  C   LIG A   1      -5.173   5.367 134.138  0.00  0.00    +0.011 A 
BRANCH  23  27
ATOM     27  O   LIG A   1      -3.344   2.546 136.562  0.00  0.00    -0.503 OA
ATOM     28  H   LIG A   1      -2.379   2.646 136.494  0.00  0.00    +0.292 HD
ENDBRANCH  23  27
BRANCH  24  29
ATOM     29  O   LIG A   1      -5.454   3.966 137.494  0.00  0.00    -0.503 OA
ATOM     30  H   LIG A   1      -4.706   4.230 138.066  0.00  0.00    +0.292 HD
ENDBRANCH  24  29
ENDBRANCH  18  21
BRANCH  12  31
ATOM     31  O   LIG A   1      -5.754   4.090 126.630  0.00  0.00    -0.506 OA
ATOM     32  H   LIG A   1      -6.371   3.409 126.939  0.00  0.00    +0.292 HD
ENDBRANCH  12  31
BRANCH  14  33
ATOM     33  O   LIG A   1      -1.981   6.633 127.836  0.00  0.00    -0.506 OA
ATOM     34  H   LIG A   1      -1.730   6.387 126.930  0.00  0.00    +0.292 HD
ENDBRANCH  14  33
BRANCH  19  35
ATOM     35  O   LIG A   1      -3.944   7.354 132.118  0.00  0.00    -0.388 OA
ATOM     36  H   LIG A   1      -4.516   7.282 131.332  0.00  0.00    +0.210 HD
ENDBRANCH  19  35
ENDBRANCH   5  11
BRANCH   7  37
ATOM     37  C   LIG A   1      -9.335   6.065 130.450  0.00  0.00    -0.001 A 
ATOM     38  C   LIG A   1     -10.395   5.876 131.353  0.00  0.00    +0.056 A 
ATOM     39  C   LIG A   1     -11.547   6.651 131.235  0.00  0.00    +0.159 A 
ATOM     40  C   LIG A   1     -11.654   7.615 130.235  0.00  0.00    +0.158 A 
ATOM     41  C   LIG A   1     -10.616   7.830 129.346  0.00  0.00    +0.049 A 
ATOM     42  C   LIG A   1      -9.460   7.059 129.457  0.00  0.00    +0.011 A 
BRANCH  39  43
ATOM     43  O   LIG A   1     -12.613   6.499 132.078  0.00  0.00    -0.503 OA
ATOM     44  H   LIG A   1     -12.997   7.377 132.244  0.00  0.00    +0.292 HD
ENDBRANCH  39  43
BRANCH  40  45
ATOM     45  O   LIG A   1     -12.791   8.362 130.122  0.00  0.00    -0.503 OA
ATOM     46  H   LIG A   1     -13.049   8.271 129.182  0.00  0.00    +0.292 HD
ENDBRANCH  40  45
ENDBRANCH   7  37
BRANCH   1  47
ATOM     47  O   LIG A   1      -6.416   1.121 134.558  0.00  0.00    -0.506 OA
ATOM     48  H   LIG A   1      -7.232   0.616 134.700  0.00  0.00    +0.292 HD
ENDBRANCH   1  47
BRANCH   3  49
ATOM     49  O   LIG A   1      -4.935   1.260 130.000  0.00  0.00    -0.506 OA
ATOM     50  H   LIG A   1      -4.030   1.097 130.317  0.00  0.00    +0.292 HD
ENDBRANCH   3  49
BRANCH   6  51
ATOM     51  O   LIG A   1      -8.920   3.498 128.965  0.00  0.00    -0.387 OA
ATOM     52  H   LIG A   1      -8.552   2.596 128.925  0.00  0.00    +0.210 HD
ENDBRANCH   6  51
TORSDOF 13
ENDMDL
