MODEL 1
REMARK VINA RESULT:      -7.7      0.000      0.000
REMARK  Name = NuBBE_1772
REMARK  6 active torsions:
REMARK  status: ('A' for Active; 'I' for Inactive)
REMARK    1  A    between atoms: C_2  and  C_3
REMARK    2  A    between atoms: C_3  and  C_5
REMARK    3  A    between atoms: C_10  and  O_16
REMARK    4  A    between atoms: C_11  and  O_15
REMARK    5  A    between atoms: C_17  and  O_22
REMARK    6  A    between atoms: C_19  and  O_21
REMARK                            x       y       z     vdW  Elec       q    Type
REMARK                         _______ _______ _______ _____ _____    ______ ____
ROOT
ATOM      1  C   LIG A   1      -7.971   2.738 123.230  0.00  0.00    +0.169 C 
ATOM      2  C   LIG A   1      -6.702   3.041 122.903  0.00  0.00    +0.058 C 
ATOM      3  C   LIG A   1      -6.419   3.751 121.661  0.00  0.00    -0.011 A 
ATOM      4  C   LIG A   1      -5.160   4.309 121.402  0.00  0.00    +0.012 A 
ATOM      5  C   LIG A   1      -4.925   4.993 120.205  0.00  0.00    +0.050 A 
ATOM      6  C   LIG A   1      -5.951   5.096 119.273  0.00  0.00    +0.159 A 
ATOM      7  C   LIG A   1      -7.201   4.532 119.528  0.00  0.00    +0.165 A 
ATOM      8  C   LIG A   1      -7.454   3.873 120.727  0.00  0.00    +0.042 A 
ATOM      9  C   LIG A   1      -8.770   3.218 121.024  0.00  0.00    +0.269 C 
ATOM     10  O   LIG A   1      -9.053   3.040 122.426  0.00  0.00    -0.483 OA
ENDROOT
BRANCH   1  11
ATOM     11  C   LIG A   1      -8.193   2.145 124.595  0.00  0.00    +0.231 C 
ATOM     12  O   LIG A   1      -8.612   2.827 125.531  0.00  0.00    -0.283 OA
BRANCH  11  14
ATOM     13  C   LIG A   1      -6.775   0.041 124.678  0.00  0.00    +0.019 A 
ATOM     14  C   LIG A   1      -8.008   0.689 124.837  0.00  0.00    +0.067 A 
ATOM     15  C   LIG A   1      -9.112  -0.068 125.272  0.00  0.00    +0.131 A 
ATOM     16  C   LIG A   1      -9.010  -1.443 125.479  0.00  0.00    +0.091 A 
ATOM     17  C   LIG A   1      -7.786  -2.068 125.278  0.00  0.00    +0.120 A 
ATOM     18  C   LIG A   1      -6.669  -1.337 124.892  0.00  0.00    +0.046 A 
BRANCH  17  19
ATOM     19  O   LIG A   1      -7.634  -3.409 125.463  0.00  0.00    -0.507 OA
ATOM     20  H   LIG A   1      -8.366  -3.729 126.019  0.00  0.00    +0.292 HD
ENDBRANCH  17  19
BRANCH  15  21
ATOM     21  O   LIG A   1     -10.343   0.484 125.524  0.00  0.00    -0.506 OA
ATOM     22  H   LIG A   1     -10.415   0.617 126.496  0.00  0.00    +0.292 HD
ENDBRANCH  15  21
ENDBRANCH  11  14
ENDBRANCH   1  11
BRANCH   7  23
ATOM     23  O   LIG A   1      -8.180   4.630 118.578  0.00  0.00    -0.503 OA
ATOM     24  H   LIG A   1      -8.352   3.706 118.304  0.00  0.00    +0.292 HD
ENDBRANCH   7  23
BRANCH   6  25
ATOM     25  O   LIG A   1      -5.780   5.742 118.080  0.00  0.00    -0.503 OA
ATOM     26  H   LIG A   1      -6.310   5.282 117.407  0.00  0.00    +0.292 HD
ENDBRANCH   6  25
TORSDOF 6
ENDMDL
MODEL 2
REMARK VINA RESULT:      -7.7      1.608      2.252
REMARK  Name = NuBBE_1772
REMARK  6 active torsions:
REMARK  status: ('A' for Active; 'I' for Inactive)
REMARK    1  A    between atoms: C_2  and  C_3
REMARK    2  A    between atoms: C_3  and  C_5
REMARK    3  A    between atoms: C_10  and  O_16
REMARK    4  A    between atoms: C_11  and  O_15
REMARK    5  A    between atoms: C_17  and  O_22
REMARK    6  A    between atoms: C_19  and  O_21
REMARK                            x       y       z     vdW  Elec       q    Type
REMARK                         _______ _______ _______ _____ _____    ______ ____
ROOT
ATOM      1  C   LIG A   1      -8.067   2.184 123.481  0.00  0.00    +0.169 C 
ATOM      2  C   LIG A   1      -8.549   2.745 122.357  0.00  0.00    +0.058 C 
ATOM      3  C   LIG A   1      -7.656   3.485 121.473  0.00  0.00    -0.011 A 
ATOM      4  C   LIG A   1      -8.046   3.865 120.182  0.00  0.00    +0.012 A 
ATOM      5  C   LIG A   1      -7.162   4.566 119.356  0.00  0.00    +0.050 A 
ATOM      6  C   LIG A   1      -5.901   4.893 119.839  0.00  0.00    +0.159 A 
ATOM      7  C   LIG A   1      -5.516   4.523 121.128  0.00  0.00    +0.165 A 
ATOM      8  C   LIG A   1      -6.378   3.802 121.949  0.00  0.00    +0.042 A 
ATOM      9  C   LIG A   1      -6.021   3.420 123.354  0.00  0.00    +0.269 C 
ATOM     10  O   LIG A   1      -6.749   2.292 123.877  0.00  0.00    -0.483 OA
ENDROOT
BRANCH   1  11
ATOM     11  C   LIG A   1      -9.015   1.309 124.257  0.00  0.00    +0.231 C 
ATOM     12  O   LIG A   1     -10.068   1.752 124.717  0.00  0.00    -0.283 OA
BRANCH  11  14
ATOM     13  C   LIG A   1      -8.016  -0.684 125.470  0.00  0.00    +0.019 A 
ATOM     14  C   LIG A   1      -8.759  -0.149 124.410  0.00  0.00    +0.067 A 
ATOM     15  C   LIG A   1      -9.313  -1.033 123.464  0.00  0.00    +0.131 A 
ATOM     16  C   LIG A   1      -9.077  -2.405 123.533  0.00  0.00    +0.091 A 
ATOM     17  C   LIG A   1      -8.304  -2.908 124.572  0.00  0.00    +0.120 A 
ATOM     18  C   LIG A   1      -7.784  -2.061 125.545  0.00  0.00    +0.046 A 
BRANCH  17  19
ATOM     19  O   LIG A   1      -8.042  -4.240 124.683  0.00  0.00    -0.507 OA
ATOM     20  H   LIG A   1      -7.078  -4.363 124.726  0.00  0.00    +0.292 HD
ENDBRANCH  17  19
BRANCH  15  21
ATOM     21  O   LIG A   1     -10.113  -0.616 122.430  0.00  0.00    -0.506 OA
ATOM     22  H   LIG A   1     -10.553  -1.413 122.056  0.00  0.00    +0.292 HD
ENDBRANCH  15  21
ENDBRANCH  11  14
ENDBRANCH   1  11
BRANCH   7  23
ATOM     23  O   LIG A   1      -4.278   4.884 121.580  0.00  0.00    -0.503 OA
ATOM     24  H   LIG A   1      -4.233   5.850 121.433  0.00  0.00    +0.292 HD
ENDBRANCH   7  23
BRANCH   6  25
ATOM     25  O   LIG A   1      -4.996   5.585 119.084  0.00  0.00    -0.503 OA
ATOM     26  H   LIG A   1      -4.971   5.185 118.197  0.00  0.00    +0.292 HD
ENDBRANCH   6  25
TORSDOF 6
ENDMDL
MODEL 3
REMARK VINA RESULT:      -7.6      8.050      9.885
REMARK  Name = NuBBE_1772
REMARK  6 active torsions:
REMARK  status: ('A' for Active; 'I' for Inactive)
REMARK    1  A    between atoms: C_2  and  C_3
REMARK    2  A    between atoms: C_3  and  C_5
REMARK    3  A    between atoms: C_10  and  O_16
REMARK    4  A    between atoms: C_11  and  O_15
REMARK    5  A    between atoms: C_17  and  O_22
REMARK    6  A    between atoms: C_19  and  O_21
REMARK                            x       y       z     vdW  Elec       q    Type
REMARK                         _______ _______ _______ _____ _____    ______ ____
ROOT
ATOM      1  C   LIG A   1      -7.932   6.143 130.762  0.00  0.00    +0.169 C 
ATOM      2  C   LIG A   1      -6.870   6.846 131.194  0.00  0.00    +0.058 C 
ATOM      3  C   LIG A   1      -5.569   6.663 130.559  0.00  0.00    -0.011 A 
ATOM      4  C   LIG A   1      -4.504   7.542 130.796  0.00  0.00    +0.012 A 
ATOM      5  C   LIG A   1      -3.273   7.344 130.164  0.00  0.00    +0.050 A 
ATOM      6  C   LIG A   1      -3.117   6.257 129.313  0.00  0.00    +0.159 A 
ATOM      7  C   LIG A   1      -4.176   5.376 129.085  0.00  0.00    +0.165 A 
ATOM      8  C   LIG A   1      -5.413   5.579 129.688  0.00  0.00    +0.042 A 
ATOM      9  C   LIG A   1      -6.564   4.636 129.503  0.00  0.00    +0.269 C 
ATOM     10  O   LIG A   1      -7.862   5.212 129.745  0.00  0.00    -0.483 OA
ENDROOT
BRANCH   1  11
ATOM     11  C   LIG A   1      -9.266   6.500 131.362  0.00  0.00    +0.231 C 
ATOM     12  O   LIG A   1      -9.466   6.426 132.575  0.00  0.00    -0.283 OA
BRANCH  11  14
ATOM     13  C   LIG A   1     -10.124   7.813 129.366  0.00  0.00    +0.019 A 
ATOM     14  C   LIG A   1     -10.361   7.053 130.519  0.00  0.00    +0.067 A 
ATOM     15  C   LIG A   1     -11.693   6.776 130.880  0.00  0.00    +0.131 A 
ATOM     16  C   LIG A   1     -12.762   7.298 130.152  0.00  0.00    +0.091 A 
ATOM     17  C   LIG A   1     -12.501   8.080 129.034  0.00  0.00    +0.120 A 
ATOM     18  C   LIG A   1     -11.195   8.331 128.630  0.00  0.00    +0.046 A 
BRANCH  17  19
ATOM     19  O   LIG A   1     -13.510   8.615 128.290  0.00  0.00    -0.507 OA
ATOM     20  H   LIG A   1     -13.134   8.956 127.460  0.00  0.00    +0.292 HD
ENDBRANCH  17  19
BRANCH  15  21
ATOM     21  O   LIG A   1     -12.029   5.985 131.950  0.00  0.00    -0.506 OA
ATOM     22  H   LIG A   1     -11.203   5.798 132.451  0.00  0.00    +0.292 HD
ENDBRANCH  15  21
ENDBRANCH  11  14
ENDBRANCH   1  11
BRANCH   7  23
ATOM     23  O   LIG A   1      -3.980   4.303 128.262  0.00  0.00    -0.503 OA
ATOM     24  H   LIG A   1      -4.866   3.898 128.169  0.00  0.00    +0.292 HD
ENDBRANCH   7  23
BRANCH   6  25
ATOM     25  O   LIG A   1      -1.936   6.004 128.673  0.00  0.00    -0.503 OA
ATOM     26  H   LIG A   1      -2.105   5.992 127.715  0.00  0.00    +0.292 HD
ENDBRANCH   6  25
TORSDOF 6
ENDMDL
MODEL 4
REMARK VINA RESULT:      -7.5      8.979     11.481
REMARK  Name = NuBBE_1772
REMARK  6 active torsions:
REMARK  status: ('A' for Active; 'I' for Inactive)
REMARK    1  A    between atoms: C_2  and  C_3
REMARK    2  A    between atoms: C_3  and  C_5
REMARK    3  A    between atoms: C_10  and  O_16
REMARK    4  A    between atoms: C_11  and  O_15
REMARK    5  A    between atoms: C_17  and  O_22
REMARK    6  A    between atoms: C_19  and  O_21
REMARK                            x       y       z     vdW  Elec       q    Type
REMARK                         _______ _______ _______ _____ _____    ______ ____
ROOT
ATOM      1  C   LIG A   1      -9.724   5.659 131.203  0.00  0.00    +0.169 C 
ATOM      2  C   LIG A   1      -8.667   6.381 130.792  0.00  0.00    +0.058 C 
ATOM      3  C   LIG A   1      -7.416   6.332 131.540  0.00  0.00    -0.011 A 
ATOM      4  C   LIG A   1      -6.225   6.856 131.019  0.00  0.00    +0.012 A 
ATOM      5  C   LIG A   1      -5.040   6.783 131.757  0.00  0.00    +0.050 A 
ATOM      6  C   LIG A   1      -5.065   6.200 133.019  0.00  0.00    +0.159 A 
ATOM      7  C   LIG A   1      -6.253   5.687 133.540  0.00  0.00    +0.165 A 
ATOM      8  C   LIG A   1      -7.432   5.730 132.803  0.00  0.00    +0.042 A 
ATOM      9  C   LIG A   1      -8.738   5.227 133.342  0.00  0.00    +0.269 C 
ATOM     10  O   LIG A   1      -9.708   4.871 132.338  0.00  0.00    -0.483 OA
ENDROOT
BRANCH   1  11
ATOM     11  C   LIG A   1     -10.924   5.642 130.295  0.00  0.00    +0.231 C 
ATOM     12  O   LIG A   1     -11.437   4.584 129.926  0.00  0.00    -0.283 OA
BRANCH  11  14
ATOM     13  C   LIG A   1     -12.335   7.695 130.783  0.00  0.00    +0.019 A 
ATOM     14  C   LIG A   1     -11.596   6.907 129.890  0.00  0.00    +0.067 A 
ATOM     15  C   LIG A   1     -11.460   7.346 128.560  0.00  0.00    +0.131 A 
ATOM     16  C   LIG A   1     -12.097   8.503 128.113  0.00  0.00    +0.091 A 
ATOM     17  C   LIG A   1     -12.855   9.247 129.007  0.00  0.00    +0.120 A 
ATOM     18  C   LIG A   1     -12.969   8.859 130.337  0.00  0.00    +0.046 A 
BRANCH  17  19
ATOM     19  O   LIG A   1     -13.500  10.383 128.619  0.00  0.00    -0.507 OA
ATOM     20  H   LIG A   1     -14.391  10.143 128.312  0.00  0.00    +0.292 HD
ENDBRANCH  17  19
BRANCH  15  21
ATOM     21  O   LIG A   1     -10.701   6.684 127.628  0.00  0.00    -0.506 OA
ATOM     22  H   LIG A   1     -10.985   5.742 127.630  0.00  0.00    +0.292 HD
ENDBRANCH  15  21
ENDBRANCH  11  14
ENDBRANCH   1  11
BRANCH   7  23
ATOM     23  O   LIG A   1      -6.246   5.143 134.795  0.00  0.00    -0.503 OA
ATOM     24  H   LIG A   1      -5.916   5.861 135.373  0.00  0.00    +0.292 HD
ENDBRANCH   7  23
BRANCH   6  25
ATOM     25  O   LIG A   1      -3.942   6.108 133.793  0.00  0.00    -0.503 OA
ATOM     26  H   LIG A   1      -4.198   5.738 134.656  0.00  0.00    +0.292 HD
ENDBRANCH   6  25
TORSDOF 6
ENDMDL
MODEL 5
REMARK VINA RESULT:      -7.5      3.333      4.526
REMARK  Name = NuBBE_1772
REMARK  6 active torsions:
REMARK  status: ('A' for Active; 'I' for Inactive)
REMARK    1  A    between atoms: C_2  and  C_3
REMARK    2  A    between atoms: C_3  and  C_5
REMARK    3  A    between atoms: C_10  and  O_16
REMARK    4  A    between atoms: C_11  and  O_15
REMARK    5  A    between atoms: C_17  and  O_22
REMARK    6  A    between atoms: C_19  and  O_21
REMARK                            x       y       z     vdW  Elec       q    Type
REMARK                         _______ _______ _______ _____ _____    ______ ____
ROOT
ATOM      1  C   LIG A   1      -7.050   2.927 124.422  0.00  0.00    +0.169 C 
ATOM      2  C   LIG A   1      -6.081   3.197 123.530  0.00  0.00    +0.058 C 
ATOM      3  C   LIG A   1      -6.432   3.596 122.171  0.00  0.00    -0.011 A 
ATOM      4  C   LIG A   1      -5.481   4.128 121.291  0.00  0.00    +0.012 A 
ATOM      5  C   LIG A   1      -5.853   4.510 119.998  0.00  0.00    +0.050 A 
ATOM      6  C   LIG A   1      -7.172   4.338 119.596  0.00  0.00    +0.159 A 
ATOM      7  C   LIG A   1      -8.116   3.799 120.471  0.00  0.00    +0.165 A 
ATOM      8  C   LIG A   1      -7.763   3.441 121.768  0.00  0.00    +0.042 A 
ATOM      9  C   LIG A   1      -8.736   2.820 122.725  0.00  0.00    +0.269 C 
ATOM     10  O   LIG A   1      -8.396   2.977 124.117  0.00  0.00    -0.483 OA
ENDROOT
BRANCH   1  11
ATOM     11  C   LIG A   1      -6.611   2.675 125.840  0.00  0.00    +0.231 C 
ATOM     12  O   LIG A   1      -7.159   1.824 126.541  0.00  0.00    -0.283 OA
BRANCH  11  14
ATOM     13  C   LIG A   1      -5.457   4.729 126.785  0.00  0.00    +0.019 A 
ATOM     14  C   LIG A   1      -5.431   3.378 126.412  0.00  0.00    +0.067 A 
ATOM     15  C   LIG A   1      -4.244   2.648 126.614  0.00  0.00    +0.131 A 
ATOM     16  C   LIG A   1      -3.095   3.261 127.111  0.00  0.00    +0.091 A 
ATOM     17  C   LIG A   1      -3.134   4.610 127.438  0.00  0.00    +0.120 A 
ATOM     18  C   LIG A   1      -4.306   5.343 127.290  0.00  0.00    +0.046 A 
BRANCH  17  19
ATOM     19  O   LIG A   1      -2.038   5.256 127.925  0.00  0.00    -0.507 OA
ATOM     20  H   LIG A   1      -1.520   5.593 127.174  0.00  0.00    +0.292 HD
ENDBRANCH  17  19
BRANCH  15  21
ATOM     21  O   LIG A   1      -4.138   1.306 126.346  0.00  0.00    -0.506 OA
ATOM     22  H   LIG A   1      -4.808   1.086 125.661  0.00  0.00    +0.292 HD
ENDBRANCH  15  21
ENDBRANCH  11  14
ENDBRANCH   1  11
BRANCH   7  23
ATOM     23  O   LIG A   1      -9.399   3.620 120.033  0.00  0.00    -0.503 OA
ATOM     24  H   LIG A   1      -9.738   2.869 120.562  0.00  0.00    +0.292 HD
ENDBRANCH   7  23
BRANCH   6  25
ATOM     25  O   LIG A   1      -7.594   4.682 118.343  0.00  0.00    -0.503 OA
ATOM     26  H   LIG A   1      -7.704   5.649 118.314  0.00  0.00    +0.292 HD
ENDBRANCH   6  25
TORSDOF 6
ENDMDL
MODEL 6
REMARK VINA RESULT:      -7.4      1.514      7.133
REMARK  Name = NuBBE_1772
REMARK  6 active torsions:
REMARK  status: ('A' for Active; 'I' for Inactive)
REMARK    1  A    between atoms: C_2  and  C_3
REMARK    2  A    between atoms: C_3  and  C_5
REMARK    3  A    between atoms: C_10  and  O_16
REMARK    4  A    between atoms: C_11  and  O_15
REMARK    5  A    between atoms: C_17  and  O_22
REMARK    6  A    between atoms: C_19  and  O_21
REMARK                            x       y       z     vdW  Elec       q    Type
REMARK                         _______ _______ _______ _____ _____    ______ ____
ROOT
ATOM      1  C   LIG A   1      -7.920   1.679 123.996  0.00  0.00    +0.169 C 
ATOM      2  C   LIG A   1      -6.920   0.782 123.923  0.00  0.00    +0.058 C 
ATOM      3  C   LIG A   1      -7.195  -0.634 124.135  0.00  0.00    -0.011 A 
ATOM      4  C   LIG A   1      -6.252  -1.622 123.823  0.00  0.00    +0.012 A 
ATOM      5  C   LIG A   1      -6.551  -2.973 124.028  0.00  0.00    +0.050 A 
ATOM      6  C   LIG A   1      -7.788  -3.317 124.560  0.00  0.00    +0.159 A 
ATOM      7  C   LIG A   1      -8.723  -2.332 124.880  0.00  0.00    +0.165 A 
ATOM      8  C   LIG A   1      -8.446  -0.987 124.654  0.00  0.00    +0.042 A 
ATOM      9  C   LIG A   1      -9.405   0.105 125.021  0.00  0.00    +0.269 C 
ATOM     10  O   LIG A   1      -9.224   1.336 124.295  0.00  0.00    -0.483 OA
ENDROOT
BRANCH   1  11
ATOM     11  C   LIG A   1      -7.585   3.096 123.614  0.00  0.00    +0.231 C 
ATOM     12  O   LIG A   1      -7.270   3.932 124.461  0.00  0.00    -0.283 OA
BRANCH  11  14
ATOM     13  C   LIG A   1      -8.653   3.536 121.353  0.00  0.00    +0.019 A 
ATOM     14  C   LIG A   1      -7.526   3.510 122.186  0.00  0.00    +0.067 A 
ATOM     15  C   LIG A   1      -6.289   3.921 121.654  0.00  0.00    +0.131 A 
ATOM     16  C   LIG A   1      -6.163   4.284 120.314  0.00  0.00    +0.091 A 
ATOM     17  C   LIG A   1      -7.288   4.265 119.499  0.00  0.00    +0.120 A 
ATOM     18  C   LIG A   1      -8.530   3.906 120.010  0.00  0.00    +0.046 A 
BRANCH  17  19
ATOM     19  O   LIG A   1      -7.218   4.608 118.183  0.00  0.00    -0.507 OA
ATOM     20  H   LIG A   1      -7.941   5.227 117.986  0.00  0.00    +0.292 HD
ENDBRANCH  17  19
BRANCH  15  21
ATOM     21  O   LIG A   1      -5.142   3.998 122.404  0.00  0.00    -0.506 OA
ATOM     22  H   LIG A   1      -4.682   4.832 122.158  0.00  0.00    +0.292 HD
ENDBRANCH  15  21
ENDBRANCH  11  14
ENDBRANCH   1  11
BRANCH   7  23
ATOM     23  O   LIG A   1      -9.919  -2.705 125.426  0.00  0.00    -0.503 OA
ATOM     24  H   LIG A   1      -9.998  -3.659 125.218  0.00  0.00    +0.292 HD
ENDBRANCH   7  23
BRANCH   6  25
ATOM     25  O   LIG A   1      -8.135  -4.619 124.794  0.00  0.00    -0.503 OA
ATOM     26  H   LIG A   1      -8.677  -4.927 124.046  0.00  0.00    +0.292 HD
ENDBRANCH   6  25
TORSDOF 6
ENDMDL
MODEL 7
REMARK VINA RESULT:      -7.4      8.431     10.801
REMARK  Name = NuBBE_1772
REMARK  6 active torsions:
REMARK  status: ('A' for Active; 'I' for Inactive)
REMARK    1  A    between atoms: C_2  and  C_3
REMARK    2  A    between atoms: C_3  and  C_5
REMARK    3  A    between atoms: C_10  and  O_16
REMARK    4  A    between atoms: C_11  and  O_15
REMARK    5  A    between atoms: C_17  and  O_22
REMARK    6  A    between atoms: C_19  and  O_21
REMARK                            x       y       z     vdW  Elec       q    Type
REMARK                         _______ _______ _______ _____ _____    ______ ____
ROOT
ATOM      1  C   LIG A   1      -6.010   6.471 131.536  0.00  0.00    +0.169 C 
ATOM      2  C   LIG A   1      -6.926   6.848 130.626  0.00  0.00    +0.058 C 
ATOM      3  C   LIG A   1      -8.348   6.722 130.928  0.00  0.00    -0.011 A 
ATOM      4  C   LIG A   1      -9.327   7.328 130.130  0.00  0.00    +0.012 A 
ATOM      5  C   LIG A   1     -10.681   7.196 130.453  0.00  0.00    +0.050 A 
ATOM      6  C   LIG A   1     -11.040   6.442 131.564  0.00  0.00    +0.159 A 
ATOM      7  C   LIG A   1     -10.064   5.831 132.352  0.00  0.00    +0.165 A 
ATOM      8  C   LIG A   1      -8.713   5.978 132.055  0.00  0.00    +0.042 A 
ATOM      9  C   LIG A   1      -7.635   5.305 132.852  0.00  0.00    +0.269 C 
ATOM     10  O   LIG A   1      -6.340   5.929 132.763  0.00  0.00    -0.483 OA
ENDROOT
BRANCH   1  11
ATOM     11  C   LIG A   1      -4.573   6.776 131.212  0.00  0.00    +0.231 C 
ATOM     12  O   LIG A   1      -3.902   7.532 131.916  0.00  0.00    -0.283 OA
BRANCH  11  14
ATOM     13  C   LIG A   1      -3.549   4.734 130.105  0.00  0.00    +0.019 A 
ATOM     14  C   LIG A   1      -3.881   6.096 130.084  0.00  0.00    +0.067 A 
ATOM     15  C   LIG A   1      -3.571   6.845 128.933  0.00  0.00    +0.131 A 
ATOM     16  C   LIG A   1      -2.889   6.273 127.860  0.00  0.00    +0.091 A 
ATOM     17  C   LIG A   1      -2.537   4.931 127.921  0.00  0.00    +0.120 A 
ATOM     18  C   LIG A   1      -2.871   4.157 129.026  0.00  0.00    +0.046 A 
BRANCH  17  19
ATOM     19  O   LIG A   1      -1.869   4.324 126.900  0.00  0.00    -0.507 OA
ATOM     20  H   LIG A   1      -1.812   4.947 126.155  0.00  0.00    +0.292 HD
ENDBRANCH  17  19
BRANCH  15  21
ATOM     21  O   LIG A   1      -3.915   8.165 128.786  0.00  0.00    -0.506 OA
ATOM     22  H   LIG A   1      -3.998   8.344 127.822  0.00  0.00    +0.292 HD
ENDBRANCH  15  21
ENDBRANCH  11  14
ENDBRANCH   1  11
BRANCH   7  23
ATOM     23  O   LIG A   1     -10.455   5.075 133.423  0.00  0.00    -0.503 OA
ATOM     24  H   LIG A   1     -10.114   5.559 134.203  0.00  0.00    +0.292 HD
ENDBRANCH   7  23
BRANCH   6  25
ATOM     25  O   LIG A   1     -12.347   6.267 131.925  0.00  0.00    -0.503 OA
ATOM     26  H   LIG A   1     -12.369   5.702 132.717  0.00  0.00    +0.292 HD
ENDBRANCH   6  25
TORSDOF 6
ENDMDL
MODEL 8
REMARK VINA RESULT:      -7.4      7.182     10.450
REMARK  Name = NuBBE_1772
REMARK  6 active torsions:
REMARK  status: ('A' for Active; 'I' for Inactive)
REMARK    1  A    between atoms: C_2  and  C_3
REMARK    2  A    between atoms: C_3  and  C_5
REMARK    3  A    between atoms: C_10  and  O_16
REMARK    4  A    between atoms: C_11  and  O_15
REMARK    5  A    between atoms: C_17  and  O_22
REMARK    6  A    between atoms: C_19  and  O_21
REMARK                            x       y       z     vdW  Elec       q    Type
REMARK                         _______ _______ _______ _____ _____    ______ ____
ROOT
ATOM      1  C   LIG A   1      -9.203   4.691 130.784  0.00  0.00    +0.169 C 
ATOM      2  C   LIG A   1      -9.644   3.611 131.454  0.00  0.00    +0.058 C 
ATOM      3  C   LIG A   1      -9.157   2.284 131.096  0.00  0.00    -0.011 A 
ATOM      4  C   LIG A   1      -9.384   1.170 131.916  0.00  0.00    +0.012 A 
ATOM      5  C   LIG A   1      -8.894  -0.087 131.550  0.00  0.00    +0.050 A 
ATOM      6  C   LIG A   1      -8.195  -0.218 130.356  0.00  0.00    +0.159 A 
ATOM      7  C   LIG A   1      -7.978   0.890 129.535  0.00  0.00    +0.165 A 
ATOM      8  C   LIG A   1      -8.437   2.150 129.904  0.00  0.00    +0.042 A 
ATOM      9  C   LIG A   1      -8.261   3.358 129.033  0.00  0.00    +0.269 C 
ATOM     10  O   LIG A   1      -8.314   4.618 129.730  0.00  0.00    -0.483 OA
ENDROOT
BRANCH   1  11
ATOM     11  C   LIG A   1      -9.632   6.034 131.312  0.00  0.00    +0.231 C 
ATOM     12  O   LIG A   1      -9.217   6.464 132.389  0.00  0.00    -0.283 OA
BRANCH  11  14
ATOM     13  C   LIG A   1     -10.034   7.621 129.373  0.00  0.00    +0.019 A 
ATOM     14  C   LIG A   1     -10.498   6.934 130.503  0.00  0.00    +0.067 A 
ATOM     15  C   LIG A   1     -11.848   7.079 130.870  0.00  0.00    +0.131 A 
ATOM     16  C   LIG A   1     -12.699   7.938 130.174  0.00  0.00    +0.091 A 
ATOM     17  C   LIG A   1     -12.205   8.637 129.080  0.00  0.00    +0.120 A 
ATOM     18  C   LIG A   1     -10.887   8.477 128.669  0.00  0.00    +0.046 A 
BRANCH  17  19
ATOM     19  O   LIG A   1     -12.994   9.490 128.368  0.00  0.00    -0.507 OA
ATOM     20  H   LIG A   1     -12.429  10.001 127.763  0.00  0.00    +0.292 HD
ENDBRANCH  17  19
BRANCH  15  21
ATOM     21  O   LIG A   1     -12.416   6.397 131.917  0.00  0.00    -0.506 OA
ATOM     22  H   LIG A   1     -13.291   6.808 132.099  0.00  0.00    +0.292 HD
ENDBRANCH  15  21
ENDBRANCH  11  14
ENDBRANCH   1  11
BRANCH   7  23
ATOM     23  O   LIG A   1      -7.308   0.720 128.355  0.00  0.00    -0.503 OA
ATOM     24  H   LIG A   1      -6.372   0.605 128.617  0.00  0.00    +0.292 HD
ENDBRANCH   7  23
BRANCH   6  25
ATOM     25  O   LIG A   1      -7.701  -1.422 129.937  0.00  0.00    -0.503 OA
ATOM     26  H   LIG A   1      -8.223  -2.127 130.358  0.00  0.00    +0.292 HD
ENDBRANCH   6  25
TORSDOF 6
ENDMDL
MODEL 9
REMARK VINA RESULT:      -7.3      8.747      9.927
REMARK  Name = NuBBE_1772
REMARK  6 active torsions:
REMARK  status: ('A' for Active; 'I' for Inactive)
REMARK    1  A    between atoms: C_2  and  C_3
REMARK    2  A    between atoms: C_3  and  C_5
REMARK    3  A    between atoms: C_10  and  O_16
REMARK    4  A    between atoms: C_11  and  O_15
REMARK    5  A    between atoms: C_17  and  O_22
REMARK    6  A    between atoms: C_19  and  O_21
REMARK                            x       y       z     vdW  Elec       q    Type
REMARK                         _______ _______ _______ _____ _____    ______ ____
ROOT
ATOM      1  C   LIG A   1      -9.435   4.979 132.232  0.00  0.00    +0.169 C 
ATOM      2  C   LIG A   1     -10.584   5.645 132.446  0.00  0.00    +0.058 C 
ATOM      3  C   LIG A   1     -11.083   6.577 131.442  0.00  0.00    -0.011 A 
ATOM      4  C   LIG A   1     -12.384   7.095 131.499  0.00  0.00    +0.012 A 
ATOM      5  C   LIG A   1     -12.835   7.980 130.515  0.00  0.00    +0.050 A 
ATOM      6  C   LIG A   1     -11.971   8.349 129.491  0.00  0.00    +0.159 A 
ATOM      7  C   LIG A   1     -10.673   7.840 129.440  0.00  0.00    +0.165 A 
ATOM      8  C   LIG A   1     -10.223   6.939 130.399  0.00  0.00    +0.042 A 
ATOM      9  C   LIG A   1      -8.823   6.400 130.405  0.00  0.00    +0.269 C 
ATOM     10  O   LIG A   1      -8.660   5.150 131.101  0.00  0.00    -0.483 OA
ENDROOT
BRANCH   1  11
ATOM     11  C   LIG A   1      -9.069   3.924 133.241  0.00  0.00    +0.231 C 
ATOM     12  O   LIG A   1      -9.084   4.158 134.450  0.00  0.00    -0.283 OA
BRANCH  11  14
ATOM     13  C   LIG A   1      -9.670   1.753 132.070  0.00  0.00    +0.019 A 
ATOM     14  C   LIG A   1      -8.772   2.529 132.816  0.00  0.00    +0.067 A 
ATOM     15  C   LIG A   1      -7.523   1.974 133.153  0.00  0.00    +0.131 A 
ATOM     16  C   LIG A   1      -7.203   0.659 132.816  0.00  0.00    +0.091 A 
ATOM     17  C   LIG A   1      -8.125  -0.102 132.110  0.00  0.00    +0.120 A 
ATOM     18  C   LIG A   1      -9.347   0.437 131.726  0.00  0.00    +0.046 A 
BRANCH  17  19
ATOM     19  O   LIG A   1      -7.861  -1.392 131.759  0.00  0.00    -0.507 OA
ATOM     20  H   LIG A   1      -6.918  -1.464 131.532  0.00  0.00    +0.292 HD
ENDBRANCH  17  19
BRANCH  15  21
ATOM     21  O   LIG A   1      -6.549   2.674 133.820  0.00  0.00    -0.506 OA
ATOM     22  H   LIG A   1      -6.943   3.528 134.108  0.00  0.00    +0.292 HD
ENDBRANCH  15  21
ENDBRANCH  11  14
ENDBRANCH   1  11
BRANCH   7  23
ATOM     23  O   LIG A   1      -9.841   8.245 128.433  0.00  0.00    -0.503 OA
ATOM     24  H   LIG A   1      -9.405   7.424 128.128  0.00  0.00    +0.292 HD
ENDBRANCH   7  23
BRANCH   6  25
ATOM     25  O   LIG A   1     -12.350   9.217 128.506  0.00  0.00    -0.503 OA
ATOM     26  H   LIG A   1     -13.321   9.268 128.503  0.00  0.00    +0.292 HD
ENDBRANCH   6  25
TORSDOF 6
ENDMDL
