MODEL 1
REMARK VINA RESULT:      -4.9      0.000      0.000
REMARK  Name = NuBBE_1951
REMARK  3 active torsions:
REMARK  status: ('A' for Active; 'I' for Inactive)
REMARK    1  A    between atoms: C_1  and  O_3
REMARK    2  A    between atoms: C_1  and  C_4
REMARK    3  A    between atoms: N_6  and  C_7
REMARK                            x       y       z     vdW  Elec       q    Type
REMARK                         _______ _______ _______ _____ _____    ______ ____
ROOT
ATOM      1  C   LIG A   1     -11.085   8.387 127.644  0.00  0.00    +0.166 C 
ATOM      2  N   LIG A   1     -12.462   8.231 128.170  0.00  0.00    -0.293 NA
ATOM      3  C   LIG A   1     -13.382   7.352 127.468  0.00  0.00    +0.105 C 
ATOM      4  C   LIG A   1     -12.397   8.007 129.612  0.00  0.00    +0.085 C 
ATOM      5  C   LIG A   1     -11.023   7.420 129.857  0.00  0.00    +0.017 C 
ATOM      6  C   LIG A   1     -10.151   8.118 128.828  0.00  0.00    +0.031 C 
ENDROOT
BRANCH   1   7
ATOM      7  C   LIG A   1     -10.730   7.531 126.422  0.00  0.00    +0.322 C 
ATOM      8  O   LIG A   1     -10.340   6.372 126.494  0.00  0.00    -0.249 OA
BRANCH   7   9
ATOM      9  O   LIG A   1     -10.874   8.154 125.228  0.00  0.00    -0.479 OA
ATOM     10  H   LIG A   1     -10.470   7.652 124.496  0.00  0.00    +0.295 HD
ENDBRANCH   7   9
ENDBRANCH   1   7
TORSDOF 2
ENDMDL
MODEL 2
REMARK VINA RESULT:      -4.7      1.497      2.250
REMARK  Name = NuBBE_1951
REMARK  3 active torsions:
REMARK  status: ('A' for Active; 'I' for Inactive)
REMARK    1  A    between atoms: C_1  and  O_3
REMARK    2  A    between atoms: C_1  and  C_4
REMARK    3  A    between atoms: N_6  and  C_7
REMARK                            x       y       z     vdW  Elec       q    Type
REMARK                         _______ _______ _______ _____ _____    ______ ____
ROOT
ATOM      1  C   LIG A   1     -12.752   7.513 128.139  0.00  0.00    +0.166 C 
ATOM      2  N   LIG A   1     -12.443   6.830 129.419  0.00  0.00    -0.293 NA
ATOM      3  C   LIG A   1     -11.143   6.204 129.578  0.00  0.00    +0.105 C 
ATOM      4  C   LIG A   1     -12.835   7.697 130.527  0.00  0.00    +0.085 C 
ATOM      5  C   LIG A   1     -12.796   9.101 129.961  0.00  0.00    +0.017 C 
ATOM      6  C   LIG A   1     -13.242   8.913 128.520  0.00  0.00    +0.031 C 
ENDROOT
BRANCH   1   7
ATOM      7  C   LIG A   1     -11.618   7.558 127.109  0.00  0.00    +0.322 C 
ATOM      8  O   LIG A   1     -10.753   8.425 127.088  0.00  0.00    -0.249 OA
BRANCH   7   9
ATOM      9  O   LIG A   1     -11.635   6.556 126.198  0.00  0.00    -0.479 OA
ATOM     10  H   LIG A   1     -12.241   5.834 126.449  0.00  0.00    +0.295 HD
ENDBRANCH   7   9
ENDBRANCH   1   7
TORSDOF 2
ENDMDL
MODEL 3
REMARK VINA RESULT:      -4.5      2.738      3.438
REMARK  Name = NuBBE_1951
REMARK  3 active torsions:
REMARK  status: ('A' for Active; 'I' for Inactive)
REMARK    1  A    between atoms: C_1  and  O_3
REMARK    2  A    between atoms: C_1  and  C_4
REMARK    3  A    between atoms: N_6  and  C_7
REMARK                            x       y       z     vdW  Elec       q    Type
REMARK                         _______ _______ _______ _____ _____    ______ ____
ROOT
ATOM      1  C   LIG A   1     -11.748   7.028 129.479  0.00  0.00    +0.166 C 
ATOM      2  N   LIG A   1     -12.373   6.725 128.168  0.00  0.00    -0.293 NA
ATOM      3  C   LIG A   1     -13.785   7.012 127.986  0.00  0.00    +0.105 C 
ATOM      4  C   LIG A   1     -11.513   7.231 127.103  0.00  0.00    +0.085 C 
ATOM      5  C   LIG A   1     -10.716   8.351 127.740  0.00  0.00    +0.017 C 
ATOM      6  C   LIG A   1     -10.507   7.869 129.166  0.00  0.00    +0.031 C 
ENDROOT
BRANCH   1   7
ATOM      7  C   LIG A   1     -12.655   7.697 130.518  0.00  0.00    +0.322 C 
ATOM      8  O   LIG A   1     -13.204   7.092 131.430  0.00  0.00    -0.249 OA
BRANCH   7   9
ATOM      9  O   LIG A   1     -12.818   9.032 130.357  0.00  0.00    -0.479 OA
ATOM     10  H   LIG A   1     -13.588   9.374 130.849  0.00  0.00    +0.295 HD
ENDBRANCH   7   9
ENDBRANCH   1   7
TORSDOF 2
ENDMDL
MODEL 4
REMARK VINA RESULT:      -4.5      2.573      3.896
REMARK  Name = NuBBE_1951
REMARK  3 active torsions:
REMARK  status: ('A' for Active; 'I' for Inactive)
REMARK    1  A    between atoms: C_1  and  O_3
REMARK    2  A    between atoms: C_1  and  C_4
REMARK    3  A    between atoms: N_6  and  C_7
REMARK                            x       y       z     vdW  Elec       q    Type
REMARK                         _______ _______ _______ _____ _____    ______ ____
ROOT
ATOM      1  C   LIG A   1     -12.372   7.149 129.758  0.00  0.00    +0.166 C 
ATOM      2  N   LIG A   1     -11.274   8.024 129.279  0.00  0.00    -0.293 NA
ATOM      3  C   LIG A   1      -9.904   7.657 129.591  0.00  0.00    +0.105 C 
ATOM      4  C   LIG A   1     -11.506   8.350 127.874  0.00  0.00    +0.085 C 
ATOM      5  C   LIG A   1     -12.359   7.218 127.342  0.00  0.00    +0.017 C 
ATOM      6  C   LIG A   1     -13.234   6.847 128.528  0.00  0.00    +0.031 C 
ENDROOT
BRANCH   1   7
ATOM      7  C   LIG A   1     -11.945   5.874 130.492  0.00  0.00    +0.322 C 
ATOM      8  O   LIG A   1     -11.604   4.843 129.923  0.00  0.00    -0.249 OA
BRANCH   7   9
ATOM      9  O   LIG A   1     -11.973   5.956 131.844  0.00  0.00    -0.479 OA
ATOM     10  H   LIG A   1     -11.137   5.664 132.251  0.00  0.00    +0.295 HD
ENDBRANCH   7   9
ENDBRANCH   1   7
TORSDOF 2
ENDMDL
MODEL 5
REMARK VINA RESULT:      -4.4      1.941      3.015
REMARK  Name = NuBBE_1951
REMARK  3 active torsions:
REMARK  status: ('A' for Active; 'I' for Inactive)
REMARK    1  A    between atoms: C_1  and  O_3
REMARK    2  A    between atoms: C_1  and  C_4
REMARK    3  A    between atoms: N_6  and  C_7
REMARK                            x       y       z     vdW  Elec       q    Type
REMARK                         _______ _______ _______ _____ _____    ______ ____
ROOT
ATOM      1  C   LIG A   1     -11.540   6.549 129.203  0.00  0.00    +0.166 C 
ATOM      2  N   LIG A   1     -10.947   6.268 130.533  0.00  0.00    -0.293 NA
ATOM      3  C   LIG A   1      -9.587   6.701 130.797  0.00  0.00    +0.105 C 
ATOM      4  C   LIG A   1     -11.909   6.637 131.568  0.00  0.00    +0.085 C 
ATOM      5  C   LIG A   1     -12.795   7.684 130.927  0.00  0.00    +0.017 C 
ATOM      6  C   LIG A   1     -12.880   7.236 129.478  0.00  0.00    +0.031 C 
ENDROOT
BRANCH   1   7
ATOM      7  C   LIG A   1     -10.665   7.352 128.233  0.00  0.00    +0.322 C 
ATOM      8  O   LIG A   1     -10.644   8.577 128.194  0.00  0.00    -0.249 OA
BRANCH   7   9
ATOM      9  O   LIG A   1      -9.902   6.606 127.399  0.00  0.00    -0.479 OA
ATOM     10  H   LIG A   1      -9.761   7.039 126.538  0.00  0.00    +0.295 HD
ENDBRANCH   7   9
ENDBRANCH   1   7
TORSDOF 2
ENDMDL
MODEL 6
REMARK VINA RESULT:      -4.3      1.475      1.989
REMARK  Name = NuBBE_1951
REMARK  3 active torsions:
REMARK  status: ('A' for Active; 'I' for Inactive)
REMARK    1  A    between atoms: C_1  and  O_3
REMARK    2  A    between atoms: C_1  and  C_4
REMARK    3  A    between atoms: N_6  and  C_7
REMARK                            x       y       z     vdW  Elec       q    Type
REMARK                         _______ _______ _______ _____ _____    ______ ____
ROOT
ATOM      1  C   LIG A   1     -10.728   7.878 129.283  0.00  0.00    +0.166 C 
ATOM      2  N   LIG A   1     -12.004   7.400 129.870  0.00  0.00    -0.293 NA
ATOM      3  C   LIG A   1     -12.982   6.775 128.997  0.00  0.00    +0.105 C 
ATOM      4  C   LIG A   1     -11.714   6.647 131.087  0.00  0.00    +0.085 C 
ATOM      5  C   LIG A   1     -10.296   6.145 130.912  0.00  0.00    +0.017 C 
ATOM      6  C   LIG A   1      -9.617   7.266 130.142  0.00  0.00    +0.031 C 
ENDROOT
BRANCH   1   7
ATOM      7  C   LIG A   1     -10.526   7.596 127.790  0.00  0.00    +0.322 C 
ATOM      8  O   LIG A   1     -10.913   8.343 126.899  0.00  0.00    -0.249 OA
BRANCH   7   9
ATOM      9  O   LIG A   1      -9.883   6.438 127.509  0.00  0.00    -0.479 OA
ATOM     10  H   LIG A   1      -8.977   6.420 127.869  0.00  0.00    +0.295 HD
ENDBRANCH   7   9
ENDBRANCH   1   7
TORSDOF 2
ENDMDL
MODEL 7
REMARK VINA RESULT:      -4.3      2.027      2.888
REMARK  Name = NuBBE_1951
REMARK  3 active torsions:
REMARK  status: ('A' for Active; 'I' for Inactive)
REMARK    1  A    between atoms: C_1  and  O_3
REMARK    2  A    between atoms: C_1  and  C_4
REMARK    3  A    between atoms: N_6  and  C_7
REMARK                            x       y       z     vdW  Elec       q    Type
REMARK                         _______ _______ _______ _____ _____    ______ ____
ROOT
ATOM      1  C   LIG A   1     -11.370   7.868 129.510  0.00  0.00    +0.166 C 
ATOM      2  N   LIG A   1     -11.748   8.384 128.172  0.00  0.00    -0.293 NA
ATOM      3  C   LIG A   1     -10.912   8.048 127.033  0.00  0.00    +0.105 C 
ATOM      4  C   LIG A   1     -13.175   8.157 127.961  0.00  0.00    +0.085 C 
ATOM      5  C   LIG A   1     -13.524   6.988 128.857  0.00  0.00    +0.017 C 
ATOM      6  C   LIG A   1     -12.625   7.188 130.066  0.00  0.00    +0.031 C 
ENDROOT
BRANCH   1   7
ATOM      7  C   LIG A   1     -10.146   6.947 129.554  0.00  0.00    +0.322 C 
ATOM      8  O   LIG A   1     -10.186   5.750 129.294  0.00  0.00    -0.249 OA
BRANCH   7   9
ATOM      9  O   LIG A   1      -8.988   7.552 129.912  0.00  0.00    -0.479 OA
ATOM     10  H   LIG A   1      -8.312   6.915 130.208  0.00  0.00    +0.295 HD
ENDBRANCH   7   9
ENDBRANCH   1   7
TORSDOF 2
ENDMDL
MODEL 8
REMARK VINA RESULT:      -4.0      2.086      2.446
REMARK  Name = NuBBE_1951
REMARK  3 active torsions:
REMARK  status: ('A' for Active; 'I' for Inactive)
REMARK    1  A    between atoms: C_1  and  O_3
REMARK    2  A    between atoms: C_1  and  C_4
REMARK    3  A    between atoms: N_6  and  C_7
REMARK                            x       y       z     vdW  Elec       q    Type
REMARK                         _______ _______ _______ _____ _____    ______ ____
ROOT
ATOM      1  C   LIG A   1     -11.273   7.815 129.746  0.00  0.00    +0.166 C 
ATOM      2  N   LIG A   1     -12.159   6.629 129.825  0.00  0.00    -0.293 NA
ATOM      3  C   LIG A   1     -13.125   6.407 128.763  0.00  0.00    +0.105 C 
ATOM      4  C   LIG A   1     -11.354   5.457 130.162  0.00  0.00    +0.085 C 
ATOM      5  C   LIG A   1      -9.956   5.790 129.686  0.00  0.00    +0.017 C 
ATOM      6  C   LIG A   1      -9.847   7.287 129.928  0.00  0.00    +0.031 C 
ENDROOT
BRANCH   1   7
ATOM      7  C   LIG A   1     -11.414   8.677 128.486  0.00  0.00    +0.322 C 
ATOM      8  O   LIG A   1     -10.708   8.549 127.492  0.00  0.00    -0.249 OA
BRANCH   7   9
ATOM      9  O   LIG A   1     -12.388   9.616 128.542  0.00  0.00    -0.479 OA
ATOM     10  H   LIG A   1     -12.453  10.134 127.719  0.00  0.00    +0.295 HD
ENDBRANCH   7   9
ENDBRANCH   1   7
TORSDOF 2
ENDMDL
MODEL 9
REMARK VINA RESULT:      -3.8     10.642     11.656
REMARK  Name = NuBBE_1951
REMARK  3 active torsions:
REMARK  status: ('A' for Active; 'I' for Inactive)
REMARK    1  A    between atoms: C_1  and  O_3
REMARK    2  A    between atoms: C_1  and  C_4
REMARK    3  A    between atoms: N_6  and  C_7
REMARK                            x       y       z     vdW  Elec       q    Type
REMARK                         _______ _______ _______ _____ _____    ______ ____
ROOT
ATOM      1  C   LIG A   1      -8.038  -2.989 124.047  0.00  0.00    +0.166 C 
ATOM      2  N   LIG A   1      -7.941  -1.896 123.049  0.00  0.00    -0.293 NA
ATOM      3  C   LIG A   1      -8.567  -0.621 123.348  0.00  0.00    +0.105 C 
ATOM      4  C   LIG A   1      -6.558  -1.796 122.589  0.00  0.00    +0.085 C 
ATOM      5  C   LIG A   1      -5.726  -2.372 123.715  0.00  0.00    +0.017 C 
ATOM      6  C   LIG A   1      -6.605  -3.478 124.274  0.00  0.00    +0.031 C 
ENDROOT
BRANCH   1   7
ATOM      7  C   LIG A   1      -8.745  -2.639 125.361  0.00  0.00    +0.322 C 
ATOM      8  O   LIG A   1      -8.181  -2.128 126.321  0.00  0.00    -0.249 OA
BRANCH   7   9
ATOM      9  O   LIG A   1     -10.065  -2.941 125.397  0.00  0.00    -0.479 OA
ATOM     10  H   LIG A   1     -10.556  -2.553 124.649  0.00  0.00    +0.295 HD
ENDBRANCH   7   9
ENDBRANCH   1   7
TORSDOF 2
ENDMDL
