MODEL 1
REMARK VINA RESULT:      -7.3      0.000      0.000
REMARK  Name = NuBBE_1261
REMARK  24 active torsions:
REMARK  status: ('A' for Active; 'I' for Inactive)
REMARK    1  A    between atoms: C_3  and  C_4
REMARK    2  A    between atoms: C_4  and  C_5
REMARK    3  A    between atoms: C_4  and  C_8
REMARK    4  A    between atoms: C_5  and  C_6
REMARK    5  A    between atoms: C_6  and  C_7
REMARK    6  A    between atoms: C_8  and  C_9
REMARK    7  A    between atoms: C_9  and  O_10
REMARK    8  A    between atoms: O_10  and  C_11
REMARK    9  A    between atoms: C_15  and  C_17
REMARK   10  A    between atoms: C_18  and  C_20
REMARK   11  A    between atoms: C_24  and  O_25
REMARK   12  A    between atoms: O_25  and  C_26
REMARK   13  A    between atoms: C_27  and  C_28
REMARK   14  A    between atoms: C_27  and  C_33
REMARK   15  A    between atoms: C_28  and  C_29
REMARK   16  A    between atoms: C_30  and  C_31
REMARK   17  A    between atoms: C_30  and  C_32
REMARK   18  A    between atoms: C_33  and  C_34
REMARK   19  A    between atoms: C_34  and  C_35
REMARK   20  A    between atoms: C_34  and  C_40
REMARK   21  A    between atoms: C_35  and  C_36
REMARK   22  A    between atoms: C_36  and  C_37
REMARK   23  A    between atoms: C_37  and  C_38
REMARK   24  A    between atoms: C_40  and  C_41
REMARK                            x       y       z     vdW  Elec       q    Type
REMARK                         _______ _______ _______ _____ _____    ______ ____
ROOT
ATOM      1  O   LIG A   1      -5.442   0.729 127.533  0.00  0.00    -0.291 OA
ATOM      2  C   LIG A   1      -6.633   0.380 127.511  0.00  0.00    +0.177 C 
ATOM      3  C   LIG A   1      -7.152   0.015 128.864  0.00  0.00    +0.042 C 
ATOM      4  C   LIG A   1      -7.919   1.066 129.250  0.00  0.00    +0.141 C 
ATOM      5  O   LIG A   1      -8.387   1.099 130.580  0.00  0.00    -0.487 OA
ATOM      6  C   LIG A   1      -8.780   2.344 131.228  0.00  0.00    +0.181 C 
ATOM      7  C   LIG A   1      -9.559   2.002 132.515  0.00  0.00    +0.052 C 
ATOM      8  C   LIG A   1      -9.604   3.143 130.222  0.00  0.00    +0.098 C 
ATOM      9  C   LIG A   1     -10.315   4.369 130.757  0.00  0.00    +0.020 C 
ATOM     10  C   LIG A   1      -8.576   3.436 129.144  0.00  0.00    +0.176 C 
ATOM     11  O   LIG A   1      -7.834   4.413 129.182  0.00  0.00    -0.291 OA
ATOM     12  C   LIG A   1      -8.256   2.212 128.320  0.00  0.00    +0.098 C 
ATOM     13  C   LIG A   1      -8.236   2.120 126.936  0.00  0.00    +0.125 C 
ATOM     14  C   LIG A   1      -7.607   0.811 126.276  0.00  0.00    +0.095 C 
ENDROOT
BRANCH  13  15
ATOM     15  O   LIG A   1      -8.693   3.166 126.099  0.00  0.00    -0.497 OA
ATOM     16  C   LIG A   1      -7.889   4.308 125.727  0.00  0.00    +0.276 C 
ENDBRANCH  13  15
BRANCH   3  17
ATOM     17  C   LIG A   1      -6.538  -1.083 129.842  0.00  0.00    +0.037 C 
BRANCH  17  18
ATOM     18  C   LIG A   1      -6.066  -2.557 129.380  0.00  0.00    +0.009 C 
BRANCH  18  19
ATOM     19  C   LIG A   1      -4.639  -2.569 128.867  0.00  0.00    -0.003 C 
ATOM     20  C   LIG A   1      -3.575  -3.614 129.237  0.00  0.00    +0.004 C 
ENDBRANCH  18  19
ENDBRANCH  17  18
BRANCH  17  21
ATOM     21  C   LIG A   1      -5.402  -0.569 130.813  0.00  0.00    +0.129 C 
BRANCH  21  22
ATOM     22  C   LIG A   1      -5.579  -0.884 132.323  0.00  0.00    +0.307 C 
ATOM     23  O   LIG A   1      -6.301  -0.311 133.032  0.00  0.00    -0.251 OA
BRANCH  22  24
ATOM     24  O   LIG A   1      -4.765  -1.944 132.698  0.00  0.00    -0.468 OA
ATOM     25  C   LIG A   1      -3.337  -1.767 132.496  0.00  0.00    +0.280 C 
ENDBRANCH  22  24
ENDBRANCH  21  22
ENDBRANCH  17  21
ENDBRANCH   3  17
BRANCH  14  26
ATOM     26  C   LIG A   1      -8.858  -0.173 125.910  0.00  0.00    +0.049 C 
BRANCH  26  27
ATOM     27  C   LIG A   1      -9.091  -1.533 126.641  0.00  0.00    -0.027 C 
ATOM     28  C   LIG A   1      -9.008  -2.825 126.242  0.00  0.00    -0.080 C 
ATOM     29  C   LIG A   1      -9.072  -3.260 124.817  0.00  0.00    +0.038 C 
ATOM     30  C   LIG A   1      -8.944  -3.984 127.233  0.00  0.00    +0.038 C 
ENDBRANCH  26  27
ENDBRANCH  14  26
BRANCH  14  31
ATOM     31  C   LIG A   1      -6.491   1.117 125.075  0.00  0.00    +0.031 C 
BRANCH  31  32
ATOM     32  C   LIG A   1      -6.766   0.968 123.486  0.00  0.00    +0.016 C 
BRANCH  32  33
ATOM     33  C   LIG A   1      -7.617   2.044 122.845  0.00  0.00    -0.077 C 
ATOM     34  C   LIG A   1      -6.928   3.195 122.168  0.00  0.00    +0.038 C 
ATOM     35  C   LIG A   1      -8.953   2.055 122.818  0.00  0.00    +0.007 C 
ENDBRANCH  32  33
BRANCH  32  36
ATOM     36  C   LIG A   1      -7.161  -0.552 123.070  0.00  0.00    +0.012 C 
BRANCH  36  37
ATOM     37  C   LIG A   1      -6.129  -1.720 122.823  0.00  0.00    +0.030 C 
BRANCH  37  38
ATOM     38  C   LIG A   1      -5.489  -2.690 123.841  0.00  0.00    -0.080 C 
ATOM     39  C   LIG A   1      -5.538  -2.282 125.336  0.00  0.00    +0.038 C 
ATOM     40  C   LIG A   1      -4.611  -3.591 123.335  0.00  0.00    +0.007 C 
ENDBRANCH  37  38
ENDBRANCH  36  37
ENDBRANCH  32  36
ENDBRANCH  31  32
ENDBRANCH  14  31
TORSDOF 15
ENDMDL
MODEL 2
REMARK VINA RESULT:      -7.2      2.454      5.540
REMARK  Name = NuBBE_1261
REMARK  24 active torsions:
REMARK  status: ('A' for Active; 'I' for Inactive)
REMARK    1  A    between atoms: C_3  and  C_4
REMARK    2  A    between atoms: C_4  and  C_5
REMARK    3  A    between atoms: C_4  and  C_8
REMARK    4  A    between atoms: C_5  and  C_6
REMARK    5  A    between atoms: C_6  and  C_7
REMARK    6  A    between atoms: C_8  and  C_9
REMARK    7  A    between atoms: C_9  and  O_10
REMARK    8  A    between atoms: O_10  and  C_11
REMARK    9  A    between atoms: C_15  and  C_17
REMARK   10  A    between atoms: C_18  and  C_20
REMARK   11  A    between atoms: C_24  and  O_25
REMARK   12  A    between atoms: O_25  and  C_26
REMARK   13  A    between atoms: C_27  and  C_28
REMARK   14  A    between atoms: C_27  and  C_33
REMARK   15  A    between atoms: C_28  and  C_29
REMARK   16  A    between atoms: C_30  and  C_31
REMARK   17  A    between atoms: C_30  and  C_32
REMARK   18  A    between atoms: C_33  and  C_34
REMARK   19  A    between atoms: C_34  and  C_35
REMARK   20  A    between atoms: C_34  and  C_40
REMARK   21  A    between atoms: C_35  and  C_36
REMARK   22  A    between atoms: C_36  and  C_37
REMARK   23  A    between atoms: C_37  and  C_38
REMARK   24  A    between atoms: C_40  and  C_41
REMARK                            x       y       z     vdW  Elec       q    Type
REMARK                         _______ _______ _______ _____ _____    ______ ____
ROOT
ATOM      1  O   LIG A   1      -7.679   2.699 126.634  0.00  0.00    -0.291 OA
ATOM      2  C   LIG A   1      -6.889   2.320 127.513  0.00  0.00    +0.177 C 
ATOM      3  C   LIG A   1      -5.971   3.406 127.972  0.00  0.00    +0.042 C 
ATOM      4  C   LIG A   1      -6.450   3.794 129.182  0.00  0.00    +0.141 C 
ATOM      5  O   LIG A   1      -5.904   4.948 129.778  0.00  0.00    -0.487 OA
ATOM      6  C   LIG A   1      -6.630   5.714 130.783  0.00  0.00    +0.181 C 
ATOM      7  C   LIG A   1      -5.643   6.679 131.472  0.00  0.00    +0.052 C 
ATOM      8  C   LIG A   1      -7.266   4.716 131.746  0.00  0.00    +0.098 C 
ATOM      9  C   LIG A   1      -7.876   5.293 133.008  0.00  0.00    +0.020 C 
ATOM     10  C   LIG A   1      -8.254   4.000 130.844  0.00  0.00    +0.176 C 
ATOM     11  O   LIG A   1      -9.395   4.410 130.651  0.00  0.00    -0.291 OA
ATOM     12  C   LIG A   1      -7.566   3.054 129.889  0.00  0.00    +0.098 C 
ATOM     13  C   LIG A   1      -7.890   1.726 129.651  0.00  0.00    +0.125 C 
ATOM     14  C   LIG A   1      -7.210   0.995 128.408  0.00  0.00    +0.095 C 
ENDROOT
BRANCH  13  15
ATOM     15  O   LIG A   1      -8.843   1.028 130.429  0.00  0.00    -0.497 OA
ATOM     16  C   LIG A   1      -8.598   0.560 131.775  0.00  0.00    +0.276 C 
ENDBRANCH  13  15
BRANCH   3  17
ATOM     17  C   LIG A   1      -4.998   4.267 127.049  0.00  0.00    +0.037 C 
BRANCH  17  18
ATOM     18  C   LIG A   1      -3.436   4.530 127.363  0.00  0.00    +0.009 C 
BRANCH  18  19
ATOM     19  C   LIG A   1      -2.641   3.241 127.438  0.00  0.00    -0.003 C 
ATOM     20  C   LIG A   1      -1.463   2.875 126.522  0.00  0.00    +0.004 C 
ENDBRANCH  18  19
ENDBRANCH  17  18
BRANCH  17  21
ATOM     21  C   LIG A   1      -5.063   3.943 125.504  0.00  0.00    +0.129 C 
BRANCH  21  22
ATOM     22  C   LIG A   1      -5.824   4.957 124.609  0.00  0.00    +0.307 C 
ATOM     23  O   LIG A   1      -6.381   5.897 125.010  0.00  0.00    -0.251 OA
BRANCH  22  24
ATOM     24  O   LIG A   1      -5.737   4.590 123.273  0.00  0.00    -0.468 OA
ATOM     25  C   LIG A   1      -6.333   3.314 122.913  0.00  0.00    +0.280 C 
ENDBRANCH  22  24
ENDBRANCH  21  22
ENDBRANCH  17  21
ENDBRANCH   3  17
BRANCH  14  26
ATOM     26  C   LIG A   1      -5.945   0.148 129.001  0.00  0.00    +0.049 C 
BRANCH  26  27
ATOM     27  C   LIG A   1      -6.129  -1.210 129.750  0.00  0.00    -0.027 C 
ATOM     28  C   LIG A   1      -5.444  -2.378 129.729  0.00  0.00    -0.080 C 
ATOM     29  C   LIG A   1      -4.543  -2.793 128.617  0.00  0.00    +0.038 C 
ATOM     30  C   LIG A   1      -5.613  -3.442 130.810  0.00  0.00    +0.038 C 
ENDBRANCH  26  27
ENDBRANCH  14  26
BRANCH  14  31
ATOM     31  C   LIG A   1      -8.281   0.186 127.418  0.00  0.00    +0.031 C 
BRANCH  31  32
ATOM     32  C   LIG A   1      -7.868  -0.849 126.244  0.00  0.00    +0.016 C 
BRANCH  32  33
ATOM     33  C   LIG A   1      -8.376  -2.269 126.386  0.00  0.00    -0.077 C 
ATOM     34  C   LIG A   1      -9.035  -2.916 125.202  0.00  0.00    +0.038 C 
ATOM     35  C   LIG A   1      -8.280  -3.014 127.491  0.00  0.00    +0.007 C 
ENDBRANCH  32  33
BRANCH  32  36
ATOM     36  C   LIG A   1      -6.299  -0.725 125.838  0.00  0.00    +0.012 C 
BRANCH  36  37
ATOM     37  C   LIG A   1      -5.422  -1.897 125.248  0.00  0.00    +0.030 C 
BRANCH  37  38
ATOM     38  C   LIG A   1      -5.421  -2.495 123.823  0.00  0.00    -0.080 C 
ATOM     39  C   LIG A   1      -6.405  -1.879 122.795  0.00  0.00    +0.038 C 
ATOM     40  C   LIG A   1      -4.873  -3.728 123.695  0.00  0.00    +0.007 C 
ENDBRANCH  37  38
ENDBRANCH  36  37
ENDBRANCH  32  36
ENDBRANCH  31  32
ENDBRANCH  14  31
TORSDOF 15
ENDMDL
MODEL 3
REMARK VINA RESULT:      -7.1      2.579      6.781
REMARK  Name = NuBBE_1261
REMARK  24 active torsions:
REMARK  status: ('A' for Active; 'I' for Inactive)
REMARK    1  A    between atoms: C_3  and  C_4
REMARK    2  A    between atoms: C_4  and  C_5
REMARK    3  A    between atoms: C_4  and  C_8
REMARK    4  A    between atoms: C_5  and  C_6
REMARK    5  A    between atoms: C_6  and  C_7
REMARK    6  A    between atoms: C_8  and  C_9
REMARK    7  A    between atoms: C_9  and  O_10
REMARK    8  A    between atoms: O_10  and  C_11
REMARK    9  A    between atoms: C_15  and  C_17
REMARK   10  A    between atoms: C_18  and  C_20
REMARK   11  A    between atoms: C_24  and  O_25
REMARK   12  A    between atoms: O_25  and  C_26
REMARK   13  A    between atoms: C_27  and  C_28
REMARK   14  A    between atoms: C_27  and  C_33
REMARK   15  A    between atoms: C_28  and  C_29
REMARK   16  A    between atoms: C_30  and  C_31
REMARK   17  A    between atoms: C_30  and  C_32
REMARK   18  A    between atoms: C_33  and  C_34
REMARK   19  A    between atoms: C_34  and  C_35
REMARK   20  A    between atoms: C_34  and  C_40
REMARK   21  A    between atoms: C_35  and  C_36
REMARK   22  A    between atoms: C_36  and  C_37
REMARK   23  A    between atoms: C_37  and  C_38
REMARK   24  A    between atoms: C_40  and  C_41
REMARK                            x       y       z     vdW  Elec       q    Type
REMARK                         _______ _______ _______ _____ _____    ______ ____
ROOT
ATOM      1  O   LIG A   1      -8.378   1.539 128.018  0.00  0.00    -0.291 OA
ATOM      2  C   LIG A   1      -7.787   2.320 128.779  0.00  0.00    +0.177 C 
ATOM      3  C   LIG A   1      -7.725   3.713 128.243  0.00  0.00    +0.042 C 
ATOM      4  C   LIG A   1      -8.649   4.412 128.950  0.00  0.00    +0.141 C 
ATOM      5  O   LIG A   1      -8.963   5.721 128.530  0.00  0.00    -0.487 OA
ATOM      6  C   LIG A   1     -10.226   6.361 128.879  0.00  0.00    +0.181 C 
ATOM      7  C   LIG A   1     -10.109   7.870 128.580  0.00  0.00    +0.052 C 
ATOM      8  C   LIG A   1     -10.498   6.060 130.350  0.00  0.00    +0.098 C 
ATOM      9  C   LIG A   1     -11.641   6.821 130.992  0.00  0.00    +0.020 C 
ATOM     10  C   LIG A   1     -10.683   4.554 130.329  0.00  0.00    +0.176 C 
ATOM     11  O   LIG A   1     -11.767   4.021 130.108  0.00  0.00    -0.291 OA
ATOM     12  C   LIG A   1      -9.373   3.825 130.143  0.00  0.00    +0.098 C 
ATOM     13  C   LIG A   1      -8.891   2.769 130.902  0.00  0.00    +0.125 C 
ATOM     14  C   LIG A   1      -7.617   1.974 130.364  0.00  0.00    +0.095 C 
ENDROOT
BRANCH  13  15
ATOM     15  O   LIG A   1      -9.524   2.340 132.092  0.00  0.00    -0.497 OA
ATOM     16  C   LIG A   1      -9.303   2.946 133.386  0.00  0.00    +0.276 C 
ENDBRANCH  13  15
BRANCH   3  17
ATOM     17  C   LIG A   1      -7.120   4.153 126.836  0.00  0.00    +0.037 C 
BRANCH  17  18
ATOM     18  C   LIG A   1      -5.978   3.337 126.036  0.00  0.00    +0.009 C 
BRANCH  18  19
ATOM     19  C   LIG A   1      -4.580   3.717 126.485  0.00  0.00    -0.003 C 
ATOM     20  C   LIG A   1      -3.396   2.746 126.608  0.00  0.00    +0.004 C 
ENDBRANCH  18  19
ENDBRANCH  17  18
BRANCH  17  21
ATOM     21  C   LIG A   1      -8.180   4.566 125.739  0.00  0.00    +0.129 C 
BRANCH  21  22
ATOM     22  C   LIG A   1      -8.538   3.493 124.675  0.00  0.00    +0.307 C 
ATOM     23  O   LIG A   1      -8.183   3.524 123.568  0.00  0.00    -0.251 OA
BRANCH  22  24
ATOM     24  O   LIG A   1      -9.328   2.498 125.233  0.00  0.00    -0.468 OA
ATOM     25  C   LIG A   1      -9.201   1.171 124.656  0.00  0.00    +0.280 C 
ENDBRANCH  22  24
ENDBRANCH  21  22
ENDBRANCH  17  21
ENDBRANCH   3  17
BRANCH  14  26
ATOM     26  C   LIG A   1      -6.321   2.587 131.146  0.00  0.00    +0.049 C 
BRANCH  26  27
ATOM     27  C   LIG A   1      -5.071   3.135 130.388  0.00  0.00    -0.027 C 
ATOM     28  C   LIG A   1      -4.571   4.379 130.205  0.00  0.00    -0.080 C 
ATOM     29  C   LIG A   1      -5.373   5.627 130.357  0.00  0.00    +0.038 C 
ATOM     30  C   LIG A   1      -3.145   4.624 129.718  0.00  0.00    +0.038 C 
ENDBRANCH  26  27
ENDBRANCH  14  26
BRANCH  14  31
ATOM     31  C   LIG A   1      -7.798   0.316 130.354  0.00  0.00    +0.031 C 
BRANCH  31  32
ATOM     32  C   LIG A   1      -6.606  -0.754 130.592  0.00  0.00    +0.016 C 
BRANCH  32  33
ATOM     33  C   LIG A   1      -5.299  -0.476 129.880  0.00  0.00    -0.077 C 
ATOM     34  C   LIG A   1      -5.333  -0.174 128.408  0.00  0.00    +0.038 C 
ATOM     35  C   LIG A   1      -4.095  -0.465 130.458  0.00  0.00    +0.007 C 
ENDBRANCH  32  33
BRANCH  32  36
ATOM     36  C   LIG A   1      -7.127  -2.289 130.485  0.00  0.00    +0.012 C 
BRANCH  36  37
ATOM     37  C   LIG A   1      -7.117  -3.158 129.168  0.00  0.00    +0.030 C 
BRANCH  37  38
ATOM     38  C   LIG A   1      -8.146  -3.199 128.016  0.00  0.00    -0.080 C 
ATOM     39  C   LIG A   1      -8.150  -2.005 127.027  0.00  0.00    +0.038 C 
ATOM     40  C   LIG A   1      -9.195  -4.041 128.182  0.00  0.00    +0.007 C 
ENDBRANCH  37  38
ENDBRANCH  36  37
ENDBRANCH  32  36
ENDBRANCH  31  32
ENDBRANCH  14  31
TORSDOF 15
ENDMDL
MODEL 4
REMARK VINA RESULT:      -7.1      2.291      7.115
REMARK  Name = NuBBE_1261
REMARK  24 active torsions:
REMARK  status: ('A' for Active; 'I' for Inactive)
REMARK    1  A    between atoms: C_3  and  C_4
REMARK    2  A    between atoms: C_4  and  C_5
REMARK    3  A    between atoms: C_4  and  C_8
REMARK    4  A    between atoms: C_5  and  C_6
REMARK    5  A    between atoms: C_6  and  C_7
REMARK    6  A    between atoms: C_8  and  C_9
REMARK    7  A    between atoms: C_9  and  O_10
REMARK    8  A    between atoms: O_10  and  C_11
REMARK    9  A    between atoms: C_15  and  C_17
REMARK   10  A    between atoms: C_18  and  C_20
REMARK   11  A    between atoms: C_24  and  O_25
REMARK   12  A    between atoms: O_25  and  C_26
REMARK   13  A    between atoms: C_27  and  C_28
REMARK   14  A    between atoms: C_27  and  C_33
REMARK   15  A    between atoms: C_28  and  C_29
REMARK   16  A    between atoms: C_30  and  C_31
REMARK   17  A    between atoms: C_30  and  C_32
REMARK   18  A    between atoms: C_33  and  C_34
REMARK   19  A    between atoms: C_34  and  C_35
REMARK   20  A    between atoms: C_34  and  C_40
REMARK   21  A    between atoms: C_35  and  C_36
REMARK   22  A    between atoms: C_36  and  C_37
REMARK   23  A    between atoms: C_37  and  C_38
REMARK   24  A    between atoms: C_40  and  C_41
REMARK                            x       y       z     vdW  Elec       q    Type
REMARK                         _______ _______ _______ _____ _____    ______ ____
ROOT
ATOM      1  O   LIG A   1      -8.233   0.169 129.790  0.00  0.00    -0.291 OA
ATOM      2  C   LIG A   1      -7.318   0.454 129.001  0.00  0.00    +0.177 C 
ATOM      3  C   LIG A   1      -6.701  -0.752 128.372  0.00  0.00    +0.042 C 
ATOM      4  C   LIG A   1      -7.192  -0.789 127.107  0.00  0.00    +0.141 C 
ATOM      5  O   LIG A   1      -6.942  -1.935 126.325  0.00  0.00    -0.487 OA
ATOM      6  C   LIG A   1      -7.786  -2.294 125.192  0.00  0.00    +0.181 C 
ATOM      7  C   LIG A   1      -7.055  -3.367 124.358  0.00  0.00    +0.052 C 
ATOM      8  C   LIG A   1      -8.068  -1.015 124.409  0.00  0.00    +0.098 C 
ATOM      9  C   LIG A   1      -8.734  -1.186 123.059  0.00  0.00    +0.020 C 
ATOM     10  C   LIG A   1      -8.880  -0.213 125.410  0.00  0.00    +0.176 C 
ATOM     11  O   LIG A   1     -10.099  -0.317 125.512  0.00  0.00    -0.291 OA
ATOM     12  C   LIG A   1      -8.021   0.336 126.525  0.00  0.00    +0.098 C 
ATOM     13  C   LIG A   1      -7.989   1.644 126.986  0.00  0.00    +0.125 C 
ATOM     14  C   LIG A   1      -7.214   1.944 128.347  0.00  0.00    +0.095 C 
ENDROOT
BRANCH  13  15
ATOM     15  O   LIG A   1      -8.669   2.697 126.329  0.00  0.00    -0.497 OA
ATOM     16  C   LIG A   1      -8.141   3.409 125.188  0.00  0.00    +0.276 C 
ENDBRANCH  13  15
BRANCH   3  17
ATOM     17  C   LIG A   1      -6.055  -1.989 129.142  0.00  0.00    +0.037 C 
BRANCH  17  18
ATOM     18  C   LIG A   1      -6.824  -3.373 129.457  0.00  0.00    +0.009 C 
BRANCH  18  19
ATOM     19  C   LIG A   1      -8.320  -3.263 129.231  0.00  0.00    -0.003 C 
ATOM     20  C   LIG A   1      -9.106  -4.007 128.140  0.00  0.00    +0.004 C 
ENDBRANCH  18  19
ENDBRANCH  17  18
BRANCH  17  21
ATOM     21  C   LIG A   1      -4.614  -2.416 128.654  0.00  0.00    +0.129 C 
BRANCH  21  22
ATOM     22  C   LIG A   1      -3.529  -2.592 129.750  0.00  0.00    +0.307 C 
ATOM     23  O   LIG A   1      -2.878  -3.548 129.881  0.00  0.00    -0.251 OA
BRANCH  22  24
ATOM     24  O   LIG A   1      -3.443  -1.453 130.539  0.00  0.00    -0.468 OA
ATOM     25  C   LIG A   1      -3.277  -1.665 131.967  0.00  0.00    +0.280 C 
ENDBRANCH  22  24
ENDBRANCH  21  22
ENDBRANCH  17  21
ENDBRANCH   3  17
BRANCH  14  26
ATOM     26  C   LIG A   1      -5.734   2.494 127.928  0.00  0.00    +0.049 C 
BRANCH  26  27
ATOM     27  C   LIG A   1      -4.647   2.853 128.989  0.00  0.00    -0.027 C 
ATOM     28  C   LIG A   1      -4.038   4.011 129.336  0.00  0.00    -0.080 C 
ATOM     29  C   LIG A   1      -3.971   5.211 128.453  0.00  0.00    +0.038 C 
ATOM     30  C   LIG A   1      -3.261   4.168 130.641  0.00  0.00    +0.038 C 
ENDBRANCH  26  27
ENDBRANCH  14  26
BRANCH  14  31
ATOM     31  C   LIG A   1      -8.086   2.843 129.449  0.00  0.00    +0.031 C 
BRANCH  31  32
ATOM     32  C   LIG A   1      -7.574   3.258 130.928  0.00  0.00    +0.016 C 
BRANCH  32  33
ATOM     33  C   LIG A   1      -8.449   2.831 132.089  0.00  0.00    -0.077 C 
ATOM     34  C   LIG A   1      -9.863   2.411 131.805  0.00  0.00    +0.038 C 
ATOM     35  C   LIG A   1      -8.063   2.784 133.367  0.00  0.00    +0.007 C 
ENDBRANCH  32  33
BRANCH  32  36
ATOM     36  C   LIG A   1      -7.060   4.797 130.993  0.00  0.00    +0.012 C 
BRANCH  36  37
ATOM     37  C   LIG A   1      -7.826   5.978 131.707  0.00  0.00    +0.030 C 
BRANCH  37  38
ATOM     38  C   LIG A   1      -9.242   6.533 131.432  0.00  0.00    -0.080 C 
ATOM     39  C   LIG A   1     -10.384   6.057 132.366  0.00  0.00    +0.038 C 
ATOM     40  C   LIG A   1      -9.447   7.055 130.198  0.00  0.00    +0.007 C 
ENDBRANCH  37  38
ENDBRANCH  36  37
ENDBRANCH  32  36
ENDBRANCH  31  32
ENDBRANCH  14  31
TORSDOF 15
ENDMDL
MODEL 5
REMARK VINA RESULT:      -7.0      2.359      5.651
REMARK  Name = NuBBE_1261
REMARK  24 active torsions:
REMARK  status: ('A' for Active; 'I' for Inactive)
REMARK    1  A    between atoms: C_3  and  C_4
REMARK    2  A    between atoms: C_4  and  C_5
REMARK    3  A    between atoms: C_4  and  C_8
REMARK    4  A    between atoms: C_5  and  C_6
REMARK    5  A    between atoms: C_6  and  C_7
REMARK    6  A    between atoms: C_8  and  C_9
REMARK    7  A    between atoms: C_9  and  O_10
REMARK    8  A    between atoms: O_10  and  C_11
REMARK    9  A    between atoms: C_15  and  C_17
REMARK   10  A    between atoms: C_18  and  C_20
REMARK   11  A    between atoms: C_24  and  O_25
REMARK   12  A    between atoms: O_25  and  C_26
REMARK   13  A    between atoms: C_27  and  C_28
REMARK   14  A    between atoms: C_27  and  C_33
REMARK   15  A    between atoms: C_28  and  C_29
REMARK   16  A    between atoms: C_30  and  C_31
REMARK   17  A    between atoms: C_30  and  C_32
REMARK   18  A    between atoms: C_33  and  C_34
REMARK   19  A    between atoms: C_34  and  C_35
REMARK   20  A    between atoms: C_34  and  C_40
REMARK   21  A    between atoms: C_35  and  C_36
REMARK   22  A    between atoms: C_36  and  C_37
REMARK   23  A    between atoms: C_37  and  C_38
REMARK   24  A    between atoms: C_40  and  C_41
REMARK                            x       y       z     vdW  Elec       q    Type
REMARK                         _______ _______ _______ _____ _____    ______ ____
ROOT
ATOM      1  O   LIG A   1      -8.195   0.526 130.435  0.00  0.00    -0.291 OA
ATOM      2  C   LIG A   1      -8.345   1.383 129.549  0.00  0.00    +0.177 C 
ATOM      3  C   LIG A   1      -8.598   2.747 130.103  0.00  0.00    +0.042 C 
ATOM      4  C   LIG A   1      -7.430   3.421 129.949  0.00  0.00    +0.141 C 
ATOM      5  O   LIG A   1      -7.299   4.683 130.564  0.00  0.00    -0.487 OA
ATOM      6  C   LIG A   1      -5.996   5.257 130.877  0.00  0.00    +0.181 C 
ATOM      7  C   LIG A   1      -6.186   6.752 131.205  0.00  0.00    +0.052 C 
ATOM      8  C   LIG A   1      -5.090   5.016 129.673  0.00  0.00    +0.098 C 
ATOM      9  C   LIG A   1      -3.756   5.734 129.681  0.00  0.00    +0.020 C 
ATOM     10  C   LIG A   1      -4.987   3.502 129.661  0.00  0.00    +0.176 C 
ATOM     11  O   LIG A   1      -4.143   2.889 130.309  0.00  0.00    -0.291 OA
ATOM     12  C   LIG A   1      -6.260   2.851 129.175  0.00  0.00    +0.098 C 
ATOM     13  C   LIG A   1      -6.376   1.870 128.202  0.00  0.00    +0.125 C 
ATOM     14  C   LIG A   1      -7.781   1.132 128.040  0.00  0.00    +0.095 C 
ENDROOT
BRANCH  13  15
ATOM     15  O   LIG A   1      -5.283   1.462 127.401  0.00  0.00    -0.497 OA
ATOM     16  C   LIG A   1      -4.873   2.142 126.193  0.00  0.00    +0.276 C 
ENDBRANCH  13  15
BRANCH   3  17
ATOM     17  C   LIG A   1      -9.766   3.151 131.110  0.00  0.00    +0.037 C 
BRANCH  17  18
ATOM     18  C   LIG A   1      -9.556   4.031 132.448  0.00  0.00    +0.009 C 
BRANCH  18  19
ATOM     19  C   LIG A   1      -8.857   3.250 133.544  0.00  0.00    -0.003 C 
ATOM     20  C   LIG A   1      -7.480   3.593 134.133  0.00  0.00    +0.004 C 
ENDBRANCH  18  19
ENDBRANCH  17  18
BRANCH  17  21
ATOM     21  C   LIG A   1     -11.075   3.726 130.436  0.00  0.00    +0.129 C 
BRANCH  21  22
ATOM     22  C   LIG A   1     -11.051   5.224 130.028  0.00  0.00    +0.307 C 
ATOM     23  O   LIG A   1     -10.238   5.704 129.348  0.00  0.00    -0.251 OA
BRANCH  22  24
ATOM     24  O   LIG A   1     -12.132   5.897 130.579  0.00  0.00    -0.468 OA
ATOM     25  C   LIG A   1     -11.844   6.778 131.697  0.00  0.00    +0.280 C 
ENDBRANCH  22  24
ENDBRANCH  21  22
ENDBRANCH  17  21
ENDBRANCH   3  17
BRANCH  14  26
ATOM     26  C   LIG A   1      -8.553   1.867 126.803  0.00  0.00    +0.049 C 
BRANCH  26  27
ATOM     27  C   LIG A   1      -9.118   1.073 125.583  0.00  0.00    -0.027 C 
ATOM     28  C   LIG A   1      -9.053   1.263 124.244  0.00  0.00    -0.080 C 
ATOM     29  C   LIG A   1      -8.751   2.576 123.605  0.00  0.00    +0.038 C 
ATOM     30  C   LIG A   1      -9.390   0.159 123.245  0.00  0.00    +0.038 C 
ENDBRANCH  26  27
ENDBRANCH  14  26
BRANCH  14  31
ATOM     31  C   LIG A   1      -7.680  -0.533 128.005  0.00  0.00    +0.031 C 
BRANCH  31  32
ATOM     32  C   LIG A   1      -7.621  -1.436 126.662  0.00  0.00    +0.016 C 
BRANCH  32  33
ATOM     33  C   LIG A   1      -8.494  -2.673 126.641  0.00  0.00    -0.077 C 
ATOM     34  C   LIG A   1      -9.271  -2.982 125.393  0.00  0.00    +0.038 C 
ATOM     35  C   LIG A   1      -8.629  -3.537 127.651  0.00  0.00    +0.007 C 
ENDBRANCH  32  33
BRANCH  32  36
ATOM     36  C   LIG A   1      -6.099  -1.668 126.143  0.00  0.00    +0.012 C 
BRANCH  36  37
ATOM     37  C   LIG A   1      -5.580  -2.968 125.414  0.00  0.00    +0.030 C 
BRANCH  37  38
ATOM     38  C   LIG A   1      -5.405  -3.238 123.903  0.00  0.00    -0.080 C 
ATOM     39  C   LIG A   1      -4.289  -4.229 123.484  0.00  0.00    +0.038 C 
ATOM     40  C   LIG A   1      -5.949  -2.320 123.067  0.00  0.00    +0.007 C 
ENDBRANCH  37  38
ENDBRANCH  36  37
ENDBRANCH  32  36
ENDBRANCH  31  32
ENDBRANCH  14  31
TORSDOF 15
ENDMDL
MODEL 6
REMARK VINA RESULT:      -6.9      2.473      6.358
REMARK  Name = NuBBE_1261
REMARK  24 active torsions:
REMARK  status: ('A' for Active; 'I' for Inactive)
REMARK    1  A    between atoms: C_3  and  C_4
REMARK    2  A    between atoms: C_4  and  C_5
REMARK    3  A    between atoms: C_4  and  C_8
REMARK    4  A    between atoms: C_5  and  C_6
REMARK    5  A    between atoms: C_6  and  C_7
REMARK    6  A    between atoms: C_8  and  C_9
REMARK    7  A    between atoms: C_9  and  O_10
REMARK    8  A    between atoms: O_10  and  C_11
REMARK    9  A    between atoms: C_15  and  C_17
REMARK   10  A    between atoms: C_18  and  C_20
REMARK   11  A    between atoms: C_24  and  O_25
REMARK   12  A    between atoms: O_25  and  C_26
REMARK   13  A    between atoms: C_27  and  C_28
REMARK   14  A    between atoms: C_27  and  C_33
REMARK   15  A    between atoms: C_28  and  C_29
REMARK   16  A    between atoms: C_30  and  C_31
REMARK   17  A    between atoms: C_30  and  C_32
REMARK   18  A    between atoms: C_33  and  C_34
REMARK   19  A    between atoms: C_34  and  C_35
REMARK   20  A    between atoms: C_34  and  C_40
REMARK   21  A    between atoms: C_35  and  C_36
REMARK   22  A    between atoms: C_36  and  C_37
REMARK   23  A    between atoms: C_37  and  C_38
REMARK   24  A    between atoms: C_40  and  C_41
REMARK                            x       y       z     vdW  Elec       q    Type
REMARK                         _______ _______ _______ _____ _____    ______ ____
ROOT
ATOM      1  O   LIG A   1      -9.835   2.686 129.270  0.00  0.00    -0.291 OA
ATOM      2  C   LIG A   1      -8.638   3.013 129.297  0.00  0.00    +0.177 C 
ATOM      3  C   LIG A   1      -8.327   3.981 130.392  0.00  0.00    +0.042 C 
ATOM      4  C   LIG A   1      -7.699   3.252 131.349  0.00  0.00    +0.141 C 
ATOM      5  O   LIG A   1      -7.459   3.856 132.600  0.00  0.00    -0.487 OA
ATOM      6  C   LIG A   1      -7.255   3.069 133.810  0.00  0.00    +0.181 C 
ATOM      7  C   LIG A   1      -6.679   3.993 134.903  0.00  0.00    +0.052 C 
ATOM      8  C   LIG A   1      -6.326   1.913 133.450  0.00  0.00    +0.098 C 
ATOM      9  C   LIG A   1      -5.788   1.097 134.608  0.00  0.00    +0.020 C 
ATOM     10  C   LIG A   1      -7.177   1.125 132.472  0.00  0.00    +0.176 C 
ATOM     11  O   LIG A   1      -7.973   0.261 132.830  0.00  0.00    -0.291 OA
ATOM     12  C   LIG A   1      -7.283   1.813 131.132  0.00  0.00    +0.098 C 
ATOM     13  C   LIG A   1      -7.069   1.246 129.884  0.00  0.00    +0.125 C 
ATOM     14  C   LIG A   1      -7.500   2.079 128.594  0.00  0.00    +0.095 C 
ENDROOT
BRANCH  13  15
ATOM     15  O   LIG A   1      -6.544  -0.058 129.723  0.00  0.00    -0.497 OA
ATOM     16  C   LIG A   1      -5.131  -0.355 129.649  0.00  0.00    +0.276 C 
ENDBRANCH  13  15
BRANCH   3  17
ATOM     17  C   LIG A   1      -9.027   5.394 130.624  0.00  0.00    +0.037 C 
BRANCH  17  18
ATOM     18  C   LIG A   1      -8.390   6.599 131.491  0.00  0.00    +0.009 C 
BRANCH  18  19
ATOM     19  C   LIG A   1      -7.026   7.017 130.976  0.00  0.00    -0.003 C 
ATOM     20  C   LIG A   1      -5.683   6.596 131.592  0.00  0.00    +0.004 C 
ENDBRANCH  18  19
ENDBRANCH  17  18
BRANCH  17  21
ATOM     21  C   LIG A   1      -9.618   6.081 129.329  0.00  0.00    +0.129 C 
BRANCH  21  22
ATOM     22  C   LIG A   1     -10.815   7.048 129.536  0.00  0.00    +0.307 C 
ATOM     23  O   LIG A   1     -10.823   8.162 129.202  0.00  0.00    -0.251 OA
BRANCH  22  24
ATOM     24  O   LIG A   1     -11.867   6.394 130.162  0.00  0.00    -0.468 OA
ATOM     25  C   LIG A   1     -12.271   6.911 131.458  0.00  0.00    +0.280 C 
ENDBRANCH  22  24
ENDBRANCH  21  22
ENDBRANCH  17  21
ENDBRANCH   3  17
BRANCH  14  26
ATOM     26  C   LIG A   1      -6.149   2.807 128.036  0.00  0.00    +0.049 C 
BRANCH  26  27
ATOM     27  C   LIG A   1      -5.923   3.096 126.518  0.00  0.00    -0.027 C 
ATOM     28  C   LIG A   1      -6.515   3.937 125.638  0.00  0.00    -0.080 C 
ATOM     29  C   LIG A   1      -7.871   4.526 125.834  0.00  0.00    +0.038 C 
ATOM     30  C   LIG A   1      -5.885   4.287 124.292  0.00  0.00    +0.038 C 
ENDBRANCH  26  27
ENDBRANCH  14  26
BRANCH  14  31
ATOM     31  C   LIG A   1      -8.420   1.219 127.499  0.00  0.00    +0.031 C 
BRANCH  31  32
ATOM     32  C   LIG A   1      -7.836   0.174 126.408  0.00  0.00    +0.016 C 
BRANCH  32  33
ATOM     33  C   LIG A   1      -7.996   0.560 124.952  0.00  0.00    -0.077 C 
ATOM     34  C   LIG A   1      -9.258   1.257 124.529  0.00  0.00    +0.038 C 
ATOM     35  C   LIG A   1      -7.092   0.339 123.994  0.00  0.00    +0.007 C 
ENDBRANCH  32  33
BRANCH  32  36
ATOM     36  C   LIG A   1      -8.232  -1.363 126.754  0.00  0.00    +0.012 C 
BRANCH  36  37
ATOM     37  C   LIG A   1      -9.079  -2.311 125.818  0.00  0.00    +0.030 C 
BRANCH  37  38
ATOM     38  C   LIG A   1      -8.641  -3.082 124.554  0.00  0.00    -0.080 C 
ATOM     39  C   LIG A   1      -9.480  -2.871 123.267  0.00  0.00    +0.038 C 
ATOM     40  C   LIG A   1      -7.834  -4.153 124.758  0.00  0.00    +0.007 C 
ENDBRANCH  37  38
ENDBRANCH  36  37
ENDBRANCH  32  36
ENDBRANCH  31  32
ENDBRANCH  14  31
TORSDOF 15
ENDMDL
MODEL 7
REMARK VINA RESULT:      -6.9      4.205      9.468
REMARK  Name = NuBBE_1261
REMARK  24 active torsions:
REMARK  status: ('A' for Active; 'I' for Inactive)
REMARK    1  A    between atoms: C_3  and  C_4
REMARK    2  A    between atoms: C_4  and  C_5
REMARK    3  A    between atoms: C_4  and  C_8
REMARK    4  A    between atoms: C_5  and  C_6
REMARK    5  A    between atoms: C_6  and  C_7
REMARK    6  A    between atoms: C_8  and  C_9
REMARK    7  A    between atoms: C_9  and  O_10
REMARK    8  A    between atoms: O_10  and  C_11
REMARK    9  A    between atoms: C_15  and  C_17
REMARK   10  A    between atoms: C_18  and  C_20
REMARK   11  A    between atoms: C_24  and  O_25
REMARK   12  A    between atoms: O_25  and  C_26
REMARK   13  A    between atoms: C_27  and  C_28
REMARK   14  A    between atoms: C_27  and  C_33
REMARK   15  A    between atoms: C_28  and  C_29
REMARK   16  A    between atoms: C_30  and  C_31
REMARK   17  A    between atoms: C_30  and  C_32
REMARK   18  A    between atoms: C_33  and  C_34
REMARK   19  A    between atoms: C_34  and  C_35
REMARK   20  A    between atoms: C_34  and  C_40
REMARK   21  A    between atoms: C_35  and  C_36
REMARK   22  A    between atoms: C_36  and  C_37
REMARK   23  A    between atoms: C_37  and  C_38
REMARK   24  A    between atoms: C_40  and  C_41
REMARK                            x       y       z     vdW  Elec       q    Type
REMARK                         _______ _______ _______ _____ _____    ______ ____
ROOT
ATOM      1  O   LIG A   1      -7.703   6.987 130.822  0.00  0.00    -0.291 OA
ATOM      2  C   LIG A   1      -7.779   5.753 130.929  0.00  0.00    +0.177 C 
ATOM      3  C   LIG A   1      -8.622   5.131 129.863  0.00  0.00    +0.042 C 
ATOM      4  C   LIG A   1      -7.745   4.566 128.995  0.00  0.00    +0.141 C 
ATOM      5  O   LIG A   1      -8.241   4.071 127.771  0.00  0.00    -0.487 OA
ATOM      6  C   LIG A   1      -7.385   3.902 126.604  0.00  0.00    +0.181 C 
ATOM      7  C   LIG A   1      -8.130   3.032 125.571  0.00  0.00    +0.052 C 
ATOM      8  C   LIG A   1      -6.077   3.277 127.084  0.00  0.00    +0.098 C 
ATOM      9  C   LIG A   1      -5.127   2.796 126.006  0.00  0.00    +0.020 C 
ATOM     10  C   LIG A   1      -5.516   4.375 127.968  0.00  0.00    +0.176 C 
ATOM     11  O   LIG A   1      -4.820   5.288 127.533  0.00  0.00    -0.291 OA
ATOM     12  C   LIG A   1      -6.260   4.483 129.278  0.00  0.00    +0.098 C 
ATOM     13  C   LIG A   1      -5.709   4.528 130.550  0.00  0.00    +0.125 C 
ATOM     14  C   LIG A   1      -6.659   4.917 131.770  0.00  0.00    +0.095 C 
ENDROOT
BRANCH  13  15
ATOM     15  O   LIG A   1      -4.332   4.306 130.788  0.00  0.00    -0.497 OA
ATOM     16  C   LIG A   1      -3.822   3.286 131.677  0.00  0.00    +0.276 C 
ENDBRANCH  13  15
BRANCH   3  17
ATOM     17  C   LIG A   1     -10.138   5.494 129.533  0.00  0.00    +0.037 C 
BRANCH  17  18
ATOM     18  C   LIG A   1     -11.344   5.448 130.606  0.00  0.00    +0.009 C 
BRANCH  18  19
ATOM     19  C   LIG A   1     -11.547   6.781 131.300  0.00  0.00    -0.003 C 
ATOM     20  C   LIG A   1     -12.886   7.527 131.406  0.00  0.00    +0.004 C 
ENDBRANCH  18  19
ENDBRANCH  17  18
BRANCH  17  21
ATOM     21  C   LIG A   1     -10.355   6.834 128.723  0.00  0.00    +0.129 C 
BRANCH  21  22
ATOM     22  C   LIG A   1     -10.623   6.693 127.200  0.00  0.00    +0.307 C 
ATOM     23  O   LIG A   1      -9.791   6.562 126.397  0.00  0.00    -0.251 OA
BRANCH  22  24
ATOM     24  O   LIG A   1     -11.985   6.737 126.938  0.00  0.00    -0.468 OA
ATOM     25  C   LIG A   1     -12.765   7.677 127.724  0.00  0.00    +0.280 C 
ENDBRANCH  22  24
ENDBRANCH  21  22
ENDBRANCH  17  21
ENDBRANCH   3  17
BRANCH  14  26
ATOM     26  C   LIG A   1      -7.117   3.514 132.469  0.00  0.00    +0.049 C 
BRANCH  26  27
ATOM     27  C   LIG A   1      -7.294   2.195 131.653  0.00  0.00    -0.027 C 
ATOM     28  C   LIG A   1      -8.380   1.531 131.192  0.00  0.00    -0.080 C 
ATOM     29  C   LIG A   1      -9.756   1.706 131.739  0.00  0.00    +0.038 C 
ATOM     30  C   LIG A   1      -8.281   0.447 130.121  0.00  0.00    +0.038 C 
ENDBRANCH  26  27
ENDBRANCH  14  26
BRANCH  14  31
ATOM     31  C   LIG A   1      -6.045   6.109 132.764  0.00  0.00    +0.031 C 
BRANCH  31  32
ATOM     32  C   LIG A   1      -5.244   5.849 134.146  0.00  0.00    +0.016 C 
BRANCH  32  33
ATOM     33  C   LIG A   1      -6.007   6.110 135.428  0.00  0.00    -0.077 C 
ATOM     34  C   LIG A   1      -7.417   5.604 135.539  0.00  0.00    +0.038 C 
ATOM     35  C   LIG A   1      -5.523   6.753 136.494  0.00  0.00    +0.007 C 
ENDBRANCH  32  33
BRANCH  32  36
ATOM     36  C   LIG A   1      -3.740   6.464 134.111  0.00  0.00    +0.012 C 
BRANCH  36  37
ATOM     37  C   LIG A   1      -3.195   7.458 133.013  0.00  0.00    +0.030 C 
BRANCH  37  38
ATOM     38  C   LIG A   1      -2.823   7.178 131.540  0.00  0.00    -0.080 C 
ATOM     39  C   LIG A   1      -1.430   6.555 131.266  0.00  0.00    +0.038 C 
ATOM     40  C   LIG A   1      -3.546   7.843 130.606  0.00  0.00    +0.007 C 
ENDBRANCH  37  38
ENDBRANCH  36  37
ENDBRANCH  32  36
ENDBRANCH  31  32
ENDBRANCH  14  31
TORSDOF 15
ENDMDL
MODEL 8
REMARK VINA RESULT:      -6.9      2.583      7.832
REMARK  Name = NuBBE_1261
REMARK  24 active torsions:
REMARK  status: ('A' for Active; 'I' for Inactive)
REMARK    1  A    between atoms: C_3  and  C_4
REMARK    2  A    between atoms: C_4  and  C_5
REMARK    3  A    between atoms: C_4  and  C_8
REMARK    4  A    between atoms: C_5  and  C_6
REMARK    5  A    between atoms: C_6  and  C_7
REMARK    6  A    between atoms: C_8  and  C_9
REMARK    7  A    between atoms: C_9  and  O_10
REMARK    8  A    between atoms: O_10  and  C_11
REMARK    9  A    between atoms: C_15  and  C_17
REMARK   10  A    between atoms: C_18  and  C_20
REMARK   11  A    between atoms: C_24  and  O_25
REMARK   12  A    between atoms: O_25  and  C_26
REMARK   13  A    between atoms: C_27  and  C_28
REMARK   14  A    between atoms: C_27  and  C_33
REMARK   15  A    between atoms: C_28  and  C_29
REMARK   16  A    between atoms: C_30  and  C_31
REMARK   17  A    between atoms: C_30  and  C_32
REMARK   18  A    between atoms: C_33  and  C_34
REMARK   19  A    between atoms: C_34  and  C_35
REMARK   20  A    between atoms: C_34  and  C_40
REMARK   21  A    between atoms: C_35  and  C_36
REMARK   22  A    between atoms: C_36  and  C_37
REMARK   23  A    between atoms: C_37  and  C_38
REMARK   24  A    between atoms: C_40  and  C_41
REMARK                            x       y       z     vdW  Elec       q    Type
REMARK                         _______ _______ _______ _____ _____    ______ ____
ROOT
ATOM      1  O   LIG A   1      -4.569   1.605 126.267  0.00  0.00    -0.291 OA
ATOM      2  C   LIG A   1      -5.734   1.439 126.661  0.00  0.00    +0.177 C 
ATOM      3  C   LIG A   1      -6.721   1.388 125.539  0.00  0.00    +0.042 C 
ATOM      4  C   LIG A   1      -7.042   0.076 125.402  0.00  0.00    +0.141 C 
ATOM      5  O   LIG A   1      -7.808  -0.312 124.285  0.00  0.00    -0.487 OA
ATOM      6  C   LIG A   1      -7.800  -1.679 123.781  0.00  0.00    +0.181 C 
ATOM      7  C   LIG A   1      -8.981  -1.849 122.803  0.00  0.00    +0.052 C 
ATOM      8  C   LIG A   1      -7.881  -2.610 124.987  0.00  0.00    +0.098 C 
ATOM      9  C   LIG A   1      -8.122  -4.077 124.690  0.00  0.00    +0.020 C 
ATOM     10  C   LIG A   1      -6.567  -2.322 125.690  0.00  0.00    +0.176 C 
ATOM     11  O   LIG A   1      -5.525  -2.909 125.416  0.00  0.00    -0.291 OA
ATOM     12  C   LIG A   1      -6.578  -0.980 126.383  0.00  0.00    +0.098 C 
ATOM     13  C   LIG A   1      -6.207  -0.715 127.693  0.00  0.00    +0.125 C 
ATOM     14  C   LIG A   1      -6.037   0.809 128.134  0.00  0.00    +0.095 C 
ENDROOT
BRANCH  13  15
ATOM     15  O   LIG A   1      -5.916  -1.741 128.622  0.00  0.00    -0.497 OA
ATOM     16  C   LIG A   1      -4.621  -2.372 128.746  0.00  0.00    +0.276 C 
ENDBRANCH  13  15
BRANCH   3  17
ATOM     17  C   LIG A   1      -6.939   2.508 124.427  0.00  0.00    +0.037 C 
BRANCH  17  18
ATOM     18  C   LIG A   1      -6.821   2.253 122.837  0.00  0.00    +0.009 C 
BRANCH  18  19
ATOM     19  C   LIG A   1      -6.524   3.528 122.070  0.00  0.00    -0.003 C 
ATOM     20  C   LIG A   1      -5.299   3.752 121.171  0.00  0.00    +0.004 C 
ENDBRANCH  18  19
ENDBRANCH  17  18
BRANCH  17  21
ATOM     21  C   LIG A   1      -8.227   3.406 124.610  0.00  0.00    +0.129 C 
BRANCH  21  22
ATOM     22  C   LIG A   1      -8.107   4.609 125.584  0.00  0.00    +0.307 C 
ATOM     23  O   LIG A   1      -8.998   5.286 125.902  0.00  0.00    -0.251 OA
BRANCH  22  24
ATOM     24  O   LIG A   1      -6.798   4.752 126.024  0.00  0.00    -0.468 OA
ATOM     25  C   LIG A   1      -5.925   5.573 125.202  0.00  0.00    +0.280 C 
ENDBRANCH  22  24
ENDBRANCH  21  22
ENDBRANCH  17  21
ENDBRANCH   3  17
BRANCH  14  26
ATOM     26  C   LIG A   1      -7.426   1.236 128.879  0.00  0.00    +0.049 C 
BRANCH  26  27
ATOM     27  C   LIG A   1      -8.009   2.682 128.791  0.00  0.00    -0.027 C 
ATOM     28  C   LIG A   1      -8.642   3.481 129.682  0.00  0.00    -0.080 C 
ATOM     29  C   LIG A   1      -9.328   2.978 130.907  0.00  0.00    +0.038 C 
ATOM     30  C   LIG A   1      -8.804   4.983 129.462  0.00  0.00    +0.038 C 
ENDBRANCH  26  27
ENDBRANCH  14  26
BRANCH  14  31
ATOM     31  C   LIG A   1      -4.606   1.137 128.926  0.00  0.00    +0.031 C 
BRANCH  31  32
ATOM     32  C   LIG A   1      -4.465   2.043 130.261  0.00  0.00    +0.016 C 
BRANCH  32  33
ATOM     33  C   LIG A   1      -5.224   1.567 131.482  0.00  0.00    -0.077 C 
ATOM     34  C   LIG A   1      -5.228   0.099 131.798  0.00  0.00    +0.038 C 
ATOM     35  C   LIG A   1      -5.896   2.356 132.326  0.00  0.00    +0.007 C 
ENDBRANCH  32  33
BRANCH  32  36
ATOM     36  C   LIG A   1      -4.607   3.630 129.945  0.00  0.00    +0.012 C 
BRANCH  36  37
ATOM     37  C   LIG A   1      -4.200   4.322 128.587  0.00  0.00    +0.030 C 
BRANCH  37  38
ATOM     38  C   LIG A   1      -2.798   4.729 128.078  0.00  0.00    -0.080 C 
ATOM     39  C   LIG A   1      -2.367   6.203 128.291  0.00  0.00    +0.038 C 
ATOM     40  C   LIG A   1      -2.235   3.905 127.161  0.00  0.00    +0.007 C 
ENDBRANCH  37  38
ENDBRANCH  36  37
ENDBRANCH  32  36
ENDBRANCH  31  32
ENDBRANCH  14  31
TORSDOF 15
ENDMDL
MODEL 9
REMARK VINA RESULT:      -6.8      3.324      8.320
REMARK  Name = NuBBE_1261
REMARK  24 active torsions:
REMARK  status: ('A' for Active; 'I' for Inactive)
REMARK    1  A    between atoms: C_3  and  C_4
REMARK    2  A    between atoms: C_4  and  C_5
REMARK    3  A    between atoms: C_4  and  C_8
REMARK    4  A    between atoms: C_5  and  C_6
REMARK    5  A    between atoms: C_6  and  C_7
REMARK    6  A    between atoms: C_8  and  C_9
REMARK    7  A    between atoms: C_9  and  O_10
REMARK    8  A    between atoms: O_10  and  C_11
REMARK    9  A    between atoms: C_15  and  C_17
REMARK   10  A    between atoms: C_18  and  C_20
REMARK   11  A    between atoms: C_24  and  O_25
REMARK   12  A    between atoms: O_25  and  C_26
REMARK   13  A    between atoms: C_27  and  C_28
REMARK   14  A    between atoms: C_27  and  C_33
REMARK   15  A    between atoms: C_28  and  C_29
REMARK   16  A    between atoms: C_30  and  C_31
REMARK   17  A    between atoms: C_30  and  C_32
REMARK   18  A    between atoms: C_33  and  C_34
REMARK   19  A    between atoms: C_34  and  C_35
REMARK   20  A    between atoms: C_34  and  C_40
REMARK   21  A    between atoms: C_35  and  C_36
REMARK   22  A    between atoms: C_36  and  C_37
REMARK   23  A    between atoms: C_37  and  C_38
REMARK   24  A    between atoms: C_40  and  C_41
REMARK                            x       y       z     vdW  Elec       q    Type
REMARK                         _______ _______ _______ _____ _____    ______ ____
ROOT
ATOM      1  O   LIG A   1      -8.373   5.025 126.990  0.00  0.00    -0.291 OA
ATOM      2  C   LIG A   1      -7.918   4.131 127.721  0.00  0.00    +0.177 C 
ATOM      3  C   LIG A   1      -6.761   3.414 127.105  0.00  0.00    +0.042 C 
ATOM      4  C   LIG A   1      -5.662   3.892 127.743  0.00  0.00    +0.141 C 
ATOM      5  O   LIG A   1      -4.392   3.545 127.238  0.00  0.00    -0.487 OA
ATOM      6  C   LIG A   1      -3.207   4.349 127.511  0.00  0.00    +0.181 C 
ATOM      7  C   LIG A   1      -1.959   3.529 127.127  0.00  0.00    +0.052 C 
ATOM      8  C   LIG A   1      -3.245   4.728 128.989  0.00  0.00    +0.098 C 
ATOM      9  C   LIG A   1      -1.992   5.369 129.551  0.00  0.00    +0.020 C 
ATOM     10  C   LIG A   1      -4.479   5.609 129.051  0.00  0.00    +0.176 C 
ATOM     11  O   LIG A   1      -4.446   6.816 128.831  0.00  0.00    -0.291 OA
ATOM     12  C   LIG A   1      -5.754   4.805 128.946  0.00  0.00    +0.098 C 
ATOM     13  C   LIG A   1      -6.860   4.882 129.780  0.00  0.00    +0.125 C 
ATOM     14  C   LIG A   1      -8.198   4.143 129.327  0.00  0.00    +0.095 C 
ENDROOT
BRANCH  13  15
ATOM     15  O   LIG A   1      -6.857   5.640 130.975  0.00  0.00    -0.497 OA
ATOM     16  C   LIG A   1      -6.334   5.159 132.234  0.00  0.00    +0.276 C 
ENDBRANCH  13  15
BRANCH   3  17
ATOM     17  C   LIG A   1      -6.756   2.676 125.693  0.00  0.00    +0.037 C 
BRANCH  17  18
ATOM     18  C   LIG A   1      -7.129   1.120 125.473  0.00  0.00    +0.009 C 
BRANCH  18  19
ATOM     19  C   LIG A   1      -8.601   0.843 125.714  0.00  0.00    -0.003 C 
ATOM     20  C   LIG A   1      -9.247  -0.550 125.728  0.00  0.00    +0.004 C 
ENDBRANCH  18  19
ENDBRANCH  17  18
BRANCH  17  21
ATOM     21  C   LIG A   1      -7.482   3.447 124.520  0.00  0.00    +0.129 C 
BRANCH  21  22
ATOM     22  C   LIG A   1      -6.607   3.852 123.303  0.00  0.00    +0.307 C 
ATOM     23  O   LIG A   1      -5.696   4.574 123.363  0.00  0.00    -0.251 OA
BRANCH  22  24
ATOM     24  O   LIG A   1      -7.057   3.228 122.149  0.00  0.00    -0.468 OA
ATOM     25  C   LIG A   1      -8.497   3.112 121.995  0.00  0.00    +0.280 C 
ENDBRANCH  22  24
ENDBRANCH  21  22
ENDBRANCH  17  21
ENDBRANCH   3  17
BRANCH  14  26
ATOM     26  C   LIG A   1      -8.226   2.710 130.110  0.00  0.00    +0.049 C 
BRANCH  26  27
ATOM     27  C   LIG A   1      -6.930   1.882 130.379  0.00  0.00    -0.027 C 
ATOM     28  C   LIG A   1      -6.400   0.778 129.802  0.00  0.00    -0.080 C 
ATOM     29  C   LIG A   1      -7.187  -0.194 128.989  0.00  0.00    +0.038 C 
ATOM     30  C   LIG A   1      -4.947   0.361 130.016  0.00  0.00    +0.038 C 
ENDBRANCH  26  27
ENDBRANCH  14  26
BRANCH  14  31
ATOM     31  C   LIG A   1      -9.567   5.092 129.411  0.00  0.00    +0.031 C 
BRANCH  31  32
ATOM     32  C   LIG A   1      -9.709   6.451 130.280  0.00  0.00    +0.016 C 
BRANCH  32  33
ATOM     33  C   LIG A   1     -10.476   6.343 131.581  0.00  0.00    -0.077 C 
ATOM     34  C   LIG A   1     -11.934   6.705 131.586  0.00  0.00    +0.038 C 
ATOM     35  C   LIG A   1      -9.963   5.935 132.745  0.00  0.00    +0.007 C 
ENDBRANCH  32  33
BRANCH  32  36
ATOM     36  C   LIG A   1     -10.103   7.732 129.361  0.00  0.00    +0.012 C 
BRANCH  36  37
ATOM     37  C   LIG A   1     -11.138   7.706 128.170  0.00  0.00    +0.030 C 
BRANCH  37  38
ATOM     38  C   LIG A   1     -12.630   8.108 128.162  0.00  0.00    -0.080 C 
ATOM     39  C   LIG A   1     -13.025   9.383 128.950  0.00  0.00    +0.038 C 
ATOM     40  C   LIG A   1     -13.508   7.134 127.819  0.00  0.00    +0.007 C 
ENDBRANCH  37  38
ENDBRANCH  36  37
ENDBRANCH  32  36
ENDBRANCH  31  32
ENDBRANCH  14  31
TORSDOF 15
ENDMDL
