MODEL 1
REMARK VINA RESULT:      -8.0      0.000      0.000
REMARK  Name = NuBBE_2239
REMARK  8 active torsions:
REMARK  status: ('A' for Active; 'I' for Inactive)
REMARK    1  A    between atoms: C_11  and  C_12
REMARK    2  A    between atoms: C_13  and  O_15
REMARK    3  A    between atoms: O_15  and  C_16
REMARK    4  A    between atoms: C_16  and  C_17
REMARK    5  A    between atoms: C_20  and  C_21
REMARK    6  A    between atoms: C_20  and  C_22
REMARK    7  A    between atoms: C_25  and  C_26
REMARK    8  A    between atoms: C_25  and  C_27
REMARK                            x       y       z     vdW  Elec       q    Type
REMARK                         _______ _______ _______ _____ _____    ______ ____
ROOT
ATOM      1  O   LIG A   1      -8.053  -2.797 123.317  0.00  0.00    -0.292 OA
ATOM      2  C   LIG A   1      -7.732  -1.767 123.915  0.00  0.00    +0.164 C 
ATOM      3  C   LIG A   1      -7.075  -0.702 123.129  0.00  0.00    +0.045 C 
ATOM      4  C   LIG A   1      -6.933   0.532 123.625  0.00  0.00    +0.014 C 
ATOM      5  C   LIG A   1      -7.411   0.993 124.948  0.00  0.00    +0.128 C 
ATOM      6  O   LIG A   1      -8.763   0.679 125.345  0.00  0.00    -0.355 OA
ATOM      7  C   LIG A   1      -7.770  -0.160 125.937  0.00  0.00    +0.116 C 
ATOM      8  C   LIG A   1      -7.662   0.037 127.439  0.00  0.00    +0.039 C 
ATOM      9  C   LIG A   1      -7.215   1.418 127.903  0.00  0.00    +0.007 C 
ATOM     10  C   LIG A   1      -6.248   2.059 126.906  0.00  0.00    +0.002 C 
ATOM     11  C   LIG A   1      -6.944   2.382 125.539  0.00  0.00    +0.043 C 
ATOM     12  C   LIG A   1      -8.198   3.272 125.739  0.00  0.00    +0.018 C 
ATOM     13  C   LIG A   1      -5.895   3.132 124.627  0.00  0.00    +0.186 C 
ATOM     14  C   LIG A   1      -5.056   4.234 125.304  0.00  0.00    +0.056 C 
ATOM     15  C   LIG A   1      -4.418   3.825 126.650  0.00  0.00    -0.011 C 
ATOM     16  C   LIG A   1      -3.827   5.088 127.306  0.00  0.00    +0.015 C 
ATOM     17  C   LIG A   1      -5.549   3.272 127.545  0.00  0.00    +0.015 C 
ATOM     18  C   LIG A   1      -7.877  -1.617 125.437  0.00  0.00    +0.059 C 
ATOM     19  C   LIG A   1      -9.245  -2.204 125.838  0.00  0.00    +0.022 C 
ATOM     20  C   LIG A   1      -6.754  -2.490 126.034  0.00  0.00    +0.022 C 
ENDROOT
BRANCH  15  21
ATOM     21  C   LIG A   1      -3.268   2.839 126.428  0.00  0.00    -0.028 C 
ATOM     22  C   LIG A   1      -1.956   3.100 126.536  0.00  0.00    +0.004 C 
ENDBRANCH  15  21
BRANCH  13  23
ATOM     23  O   LIG A   1      -6.427   3.610 123.348  0.00  0.00    -0.461 OA
BRANCH  23  24
ATOM     24  C   LIG A   1      -5.639   4.041 122.322  0.00  0.00    +0.304 C 
ATOM     25  C   LIG A   1      -5.713   3.067 121.185  0.00  0.00    +0.136 C 
ATOM     26  O   LIG A   1      -4.919   5.022 122.310  0.00  0.00    -0.251 OA
ENDBRANCH  23  24
ENDBRANCH  13  23
TORSDOF 3
ENDMDL
MODEL 2
REMARK VINA RESULT:      -7.8      1.910      2.468
REMARK  Name = NuBBE_2239
REMARK  8 active torsions:
REMARK  status: ('A' for Active; 'I' for Inactive)
REMARK    1  A    between atoms: C_11  and  C_12
REMARK    2  A    between atoms: C_13  and  O_15
REMARK    3  A    between atoms: O_15  and  C_16
REMARK    4  A    between atoms: C_16  and  C_17
REMARK    5  A    between atoms: C_20  and  C_21
REMARK    6  A    between atoms: C_20  and  C_22
REMARK    7  A    between atoms: C_25  and  C_26
REMARK    8  A    between atoms: C_25  and  C_27
REMARK                            x       y       z     vdW  Elec       q    Type
REMARK                         _______ _______ _______ _____ _____    ______ ____
ROOT
ATOM      1  O   LIG A   1      -8.212  -2.163 122.247  0.00  0.00    -0.292 OA
ATOM      2  C   LIG A   1      -7.776  -1.590 123.248  0.00  0.00    +0.164 C 
ATOM      3  C   LIG A   1      -7.893  -0.117 123.292  0.00  0.00    +0.045 C 
ATOM      4  C   LIG A   1      -7.693   0.557 124.431  0.00  0.00    +0.014 C 
ATOM      5  C   LIG A   1      -7.371  -0.043 125.745  0.00  0.00    +0.128 C 
ATOM      6  O   LIG A   1      -8.158  -1.161 126.208  0.00  0.00    -0.355 OA
ATOM      7  C   LIG A   1      -6.885  -1.525 125.672  0.00  0.00    +0.116 C 
ATOM      8  C   LIG A   1      -5.950  -2.092 126.725  0.00  0.00    +0.039 C 
ATOM      9  C   LIG A   1      -5.552  -1.145 127.849  0.00  0.00    +0.007 C 
ATOM     10  C   LIG A   1      -5.476   0.304 127.360  0.00  0.00    +0.002 C 
ATOM     11  C   LIG A   1      -6.883   0.858 126.948  0.00  0.00    +0.043 C 
ATOM     12  C   LIG A   1      -7.906   0.720 128.105  0.00  0.00    +0.018 C 
ATOM     13  C   LIG A   1      -6.711   2.380 126.564  0.00  0.00    +0.186 C 
ATOM     14  C   LIG A   1      -5.830   3.231 127.500  0.00  0.00    +0.056 C 
ATOM     15  C   LIG A   1      -4.468   2.599 127.857  0.00  0.00    -0.011 C 
ATOM     16  C   LIG A   1      -3.823   3.444 128.973  0.00  0.00    +0.015 C 
ATOM     17  C   LIG A   1      -4.747   1.178 128.396  0.00  0.00    +0.015 C 
ATOM     18  C   LIG A   1      -7.023  -2.331 124.363  0.00  0.00    +0.059 C 
ATOM     19  C   LIG A   1      -7.775  -3.648 124.641  0.00  0.00    +0.022 C 
ATOM     20  C   LIG A   1      -5.639  -2.653 123.763  0.00  0.00    +0.022 C 
ENDROOT
BRANCH  15  21
ATOM     21  C   LIG A   1      -3.523   2.628 126.652  0.00  0.00    -0.028 C 
ATOM     22  C   LIG A   1      -2.263   3.088 126.632  0.00  0.00    +0.004 C 
ENDBRANCH  15  21
BRANCH  13  23
ATOM     23  O   LIG A   1      -7.962   3.080 126.264  0.00  0.00    -0.461 OA
BRANCH  23  24
ATOM     24  C   LIG A   1      -8.018   4.247 125.559  0.00  0.00    +0.304 C 
ATOM     25  C   LIG A   1      -7.109   4.161 124.370  0.00  0.00    +0.136 C 
ATOM     26  O   LIG A   1      -8.643   5.250 125.847  0.00  0.00    -0.251 OA
ENDBRANCH  23  24
ENDBRANCH  13  23
TORSDOF 3
ENDMDL
MODEL 3
REMARK VINA RESULT:      -7.7      2.039      6.479
REMARK  Name = NuBBE_2239
REMARK  8 active torsions:
REMARK  status: ('A' for Active; 'I' for Inactive)
REMARK    1  A    between atoms: C_11  and  C_12
REMARK    2  A    between atoms: C_13  and  O_15
REMARK    3  A    between atoms: O_15  and  C_16
REMARK    4  A    between atoms: C_16  and  C_17
REMARK    5  A    between atoms: C_20  and  C_21
REMARK    6  A    between atoms: C_20  and  C_22
REMARK    7  A    between atoms: C_25  and  C_26
REMARK    8  A    between atoms: C_25  and  C_27
REMARK                            x       y       z     vdW  Elec       q    Type
REMARK                         _______ _______ _______ _____ _____    ______ ____
ROOT
ATOM      1  O   LIG A   1      -4.363   4.552 126.413  0.00  0.00    -0.292 OA
ATOM      2  C   LIG A   1      -5.183   3.714 126.031  0.00  0.00    +0.164 C 
ATOM      3  C   LIG A   1      -5.074   2.352 126.593  0.00  0.00    +0.045 C 
ATOM      4  C   LIG A   1      -6.062   1.463 126.443  0.00  0.00    +0.014 C 
ATOM      5  C   LIG A   1      -7.349   1.709 125.754  0.00  0.00    +0.128 C 
ATOM      6  O   LIG A   1      -8.088   2.908 126.072  0.00  0.00    -0.355 OA
ATOM      7  C   LIG A   1      -7.357   2.979 124.846  0.00  0.00    +0.116 C 
ATOM      8  C   LIG A   1      -8.265   3.065 123.632  0.00  0.00    +0.039 C 
ATOM      9  C   LIG A   1      -9.167   1.864 123.384  0.00  0.00    +0.007 C 
ATOM     10  C   LIG A   1      -8.505   0.561 123.839  0.00  0.00    +0.002 C 
ATOM     11  C   LIG A   1      -8.316   0.513 125.394  0.00  0.00    +0.043 C 
ATOM     12  C   LIG A   1      -9.661   0.735 126.135  0.00  0.00    +0.018 C 
ATOM     13  C   LIG A   1      -7.728  -0.905 125.766  0.00  0.00    +0.186 C 
ATOM     14  C   LIG A   1      -8.364  -2.121 125.064  0.00  0.00    +0.056 C 
ATOM     15  C   LIG A   1      -8.517  -1.976 123.534  0.00  0.00    -0.011 C 
ATOM     16  C   LIG A   1      -9.376  -3.150 123.023  0.00  0.00    +0.015 C 
ATOM     17  C   LIG A   1      -9.265  -0.650 123.270  0.00  0.00    +0.015 C 
ATOM     18  C   LIG A   1      -6.207   4.006 124.923  0.00  0.00    +0.059 C 
ATOM     19  C   LIG A   1      -6.782   5.413 125.176  0.00  0.00    +0.022 C 
ATOM     20  C   LIG A   1      -5.388   4.017 123.617  0.00  0.00    +0.022 C 
ENDROOT
BRANCH  15  21
ATOM     21  C   LIG A   1      -7.155  -2.064 122.841  0.00  0.00    -0.028 C 
ATOM     22  C   LIG A   1      -6.033  -2.603 123.344  0.00  0.00    +0.004 C 
ENDBRANCH  15  21
BRANCH  13  23
ATOM     23  O   LIG A   1      -7.600  -1.156 127.204  0.00  0.00    -0.461 OA
BRANCH  23  24
ATOM     24  C   LIG A   1      -6.919  -2.218 127.722  0.00  0.00    +0.304 C 
ATOM     25  C   LIG A   1      -5.480  -2.144 127.309  0.00  0.00    +0.136 C 
ATOM     26  O   LIG A   1      -7.377  -3.140 128.369  0.00  0.00    -0.251 OA
ENDBRANCH  23  24
ENDBRANCH  13  23
TORSDOF 3
ENDMDL
MODEL 4
REMARK VINA RESULT:      -7.4      3.768      5.970
REMARK  Name = NuBBE_2239
REMARK  8 active torsions:
REMARK  status: ('A' for Active; 'I' for Inactive)
REMARK    1  A    between atoms: C_11  and  C_12
REMARK    2  A    between atoms: C_13  and  O_15
REMARK    3  A    between atoms: O_15  and  C_16
REMARK    4  A    between atoms: C_16  and  C_17
REMARK    5  A    between atoms: C_20  and  C_21
REMARK    6  A    between atoms: C_20  and  C_22
REMARK    7  A    between atoms: C_25  and  C_26
REMARK    8  A    between atoms: C_25  and  C_27
REMARK                            x       y       z     vdW  Elec       q    Type
REMARK                         _______ _______ _______ _____ _____    ______ ____
ROOT
ATOM      1  O   LIG A   1      -6.588  -1.387 122.883  0.00  0.00    -0.292 OA
ATOM      2  C   LIG A   1      -6.680  -1.595 124.095  0.00  0.00    +0.164 C 
ATOM      3  C   LIG A   1      -5.677  -0.956 124.972  0.00  0.00    +0.045 C 
ATOM      4  C   LIG A   1      -5.851  -0.909 126.298  0.00  0.00    +0.014 C 
ATOM      5  C   LIG A   1      -7.021  -1.436 127.036  0.00  0.00    +0.128 C 
ATOM      6  O   LIG A   1      -8.344  -1.108 126.562  0.00  0.00    -0.355 OA
ATOM      7  C   LIG A   1      -7.907  -2.422 126.213  0.00  0.00    +0.116 C 
ATOM      8  C   LIG A   1      -8.715  -3.507 126.902  0.00  0.00    +0.039 C 
ATOM      9  C   LIG A   1      -8.625  -3.546 128.422  0.00  0.00    +0.007 C 
ATOM     10  C   LIG A   1      -7.249  -3.091 128.914  0.00  0.00    +0.002 C 
ATOM     11  C   LIG A   1      -6.989  -1.576 128.610  0.00  0.00    +0.043 C 
ATOM     12  C   LIG A   1      -8.109  -0.680 129.200  0.00  0.00    +0.018 C 
ATOM     13  C   LIG A   1      -5.599  -1.186 129.248  0.00  0.00    +0.186 C 
ATOM     14  C   LIG A   1      -5.323  -1.708 130.672  0.00  0.00    +0.056 C 
ATOM     15  C   LIG A   1      -5.617  -3.209 130.878  0.00  0.00    -0.011 C 
ATOM     16  C   LIG A   1      -5.526  -3.515 132.385  0.00  0.00    +0.015 C 
ATOM     17  C   LIG A   1      -7.062  -3.465 130.396  0.00  0.00    +0.015 C 
ATOM     18  C   LIG A   1      -7.705  -2.574 124.690  0.00  0.00    +0.059 C 
ATOM     19  C   LIG A   1      -9.045  -2.348 123.962  0.00  0.00    +0.022 C 
ATOM     20  C   LIG A   1      -7.165  -3.976 124.341  0.00  0.00    +0.022 C 
ENDROOT
BRANCH  15  21
ATOM     21  C   LIG A   1      -4.569  -4.070 130.168  0.00  0.00    -0.028 C 
ATOM     22  C   LIG A   1      -3.420  -3.645 129.619  0.00  0.00    +0.004 C 
ENDBRANCH  15  21
BRANCH  13  23
ATOM     23  O   LIG A   1      -5.259   0.237 129.151  0.00  0.00    -0.461 OA
BRANCH  23  24
ATOM     24  C   LIG A   1      -4.967   1.013 130.235  0.00  0.00    +0.304 C 
ATOM     25  C   LIG A   1      -6.137   1.894 130.554  0.00  0.00    +0.136 C 
ATOM     26  O   LIG A   1      -3.913   1.065 130.838  0.00  0.00    -0.251 OA
ENDBRANCH  23  24
ENDBRANCH  13  23
TORSDOF 3
ENDMDL
MODEL 5
REMARK VINA RESULT:      -7.4      3.473      6.049
REMARK  Name = NuBBE_2239
REMARK  8 active torsions:
REMARK  status: ('A' for Active; 'I' for Inactive)
REMARK    1  A    between atoms: C_11  and  C_12
REMARK    2  A    between atoms: C_13  and  O_15
REMARK    3  A    between atoms: O_15  and  C_16
REMARK    4  A    between atoms: C_16  and  C_17
REMARK    5  A    between atoms: C_20  and  C_21
REMARK    6  A    between atoms: C_20  and  C_22
REMARK    7  A    between atoms: C_25  and  C_26
REMARK    8  A    between atoms: C_25  and  C_27
REMARK                            x       y       z     vdW  Elec       q    Type
REMARK                         _______ _______ _______ _____ _____    ______ ____
ROOT
ATOM      1  O   LIG A   1      -9.871  -3.323 123.373  0.00  0.00    -0.292 OA
ATOM      2  C   LIG A   1      -9.211  -2.750 124.243  0.00  0.00    +0.164 C 
ATOM      3  C   LIG A   1      -9.498  -3.096 125.651  0.00  0.00    +0.045 C 
ATOM      4  C   LIG A   1      -8.667  -2.730 126.633  0.00  0.00    +0.014 C 
ATOM      5  C   LIG A   1      -7.396  -1.992 126.461  0.00  0.00    +0.128 C 
ATOM      6  O   LIG A   1      -6.466  -2.438 125.451  0.00  0.00    -0.355 OA
ATOM      7  C   LIG A   1      -7.240  -1.300 125.071  0.00  0.00    +0.116 C 
ATOM      8  C   LIG A   1      -6.395  -0.048 124.912  0.00  0.00    +0.039 C 
ATOM      9  C   LIG A   1      -5.702   0.457 126.170  0.00  0.00    +0.007 C 
ATOM     10  C   LIG A   1      -6.531   0.165 127.423  0.00  0.00    +0.002 C 
ATOM     11  C   LIG A   1      -6.643  -1.373 127.706  0.00  0.00    +0.043 C 
ATOM     12  C   LIG A   1      -5.244  -2.033 127.805  0.00  0.00    +0.018 C 
ATOM     13  C   LIG A   1      -7.422  -1.559 129.067  0.00  0.00    +0.186 C 
ATOM     14  C   LIG A   1      -7.018  -0.626 130.225  0.00  0.00    +0.056 C 
ATOM     15  C   LIG A   1      -6.925   0.868 129.849  0.00  0.00    -0.011 C 
ATOM     16  C   LIG A   1      -6.285   1.624 131.029  0.00  0.00    +0.015 C 
ATOM     17  C   LIG A   1      -5.997   0.975 128.617  0.00  0.00    +0.015 C 
ATOM     18  C   LIG A   1      -8.214  -1.627 123.918  0.00  0.00    +0.059 C 
ATOM     19  C   LIG A   1      -7.417  -2.054 122.670  0.00  0.00    +0.022 C 
ATOM     20  C   LIG A   1      -9.089  -0.406 123.570  0.00  0.00    +0.022 C 
ENDROOT
BRANCH  15  21
ATOM     21  C   LIG A   1      -8.319   1.459 129.623  0.00  0.00    -0.028 C 
ATOM     22  C   LIG A   1      -8.607   2.721 129.267  0.00  0.00    +0.004 C 
ENDBRANCH  15  21
BRANCH  13  23
ATOM     23  O   LIG A   1      -7.511  -2.945 129.536  0.00  0.00    -0.461 OA
BRANCH  23  24
ATOM     24  C   LIG A   1      -7.072  -3.351 130.762  0.00  0.00    +0.304 C 
ATOM     25  C   LIG A   1      -5.867  -4.228 130.602  0.00  0.00    +0.136 C 
ATOM     26  O   LIG A   1      -7.585  -3.118 131.840  0.00  0.00    -0.251 OA
ENDBRANCH  23  24
ENDBRANCH  13  23
TORSDOF 3
ENDMDL
MODEL 6
REMARK VINA RESULT:      -7.4      2.545      6.752
REMARK  Name = NuBBE_2239
REMARK  8 active torsions:
REMARK  status: ('A' for Active; 'I' for Inactive)
REMARK    1  A    between atoms: C_11  and  C_12
REMARK    2  A    between atoms: C_13  and  O_15
REMARK    3  A    between atoms: O_15  and  C_16
REMARK    4  A    between atoms: C_16  and  C_17
REMARK    5  A    between atoms: C_20  and  C_21
REMARK    6  A    between atoms: C_20  and  C_22
REMARK    7  A    between atoms: C_25  and  C_26
REMARK    8  A    between atoms: C_25  and  C_27
REMARK                            x       y       z     vdW  Elec       q    Type
REMARK                         _______ _______ _______ _____ _____    ______ ____
ROOT
ATOM      1  O   LIG A   1      -3.369   3.517 129.481  0.00  0.00    -0.292 OA
ATOM      2  C   LIG A   1      -4.086   2.859 128.724  0.00  0.00    +0.164 C 
ATOM      3  C   LIG A   1      -4.538   1.534 129.199  0.00  0.00    +0.045 C 
ATOM      4  C   LIG A   1      -5.517   0.874 128.569  0.00  0.00    +0.014 C 
ATOM      5  C   LIG A   1      -6.266   1.358 127.389  0.00  0.00    +0.128 C 
ATOM      6  O   LIG A   1      -6.793   2.703 127.405  0.00  0.00    -0.355 OA
ATOM      7  C   LIG A   1      -5.591   2.555 126.647  0.00  0.00    +0.116 C 
ATOM      8  C   LIG A   1      -5.810   2.776 125.161  0.00  0.00    +0.039 C 
ATOM      9  C   LIG A   1      -6.737   1.787 124.466  0.00  0.00    +0.007 C 
ATOM     10  C   LIG A   1      -6.649   0.396 125.097  0.00  0.00    +0.002 C 
ATOM     11  C   LIG A   1      -7.199   0.384 126.566  0.00  0.00    +0.043 C 
ATOM     12  C   LIG A   1      -8.650   0.927 126.631  0.00  0.00    +0.018 C 
ATOM     13  C   LIG A   1      -7.162  -1.108 127.083  0.00  0.00    +0.186 C 
ATOM     14  C   LIG A   1      -7.656  -2.190 126.103  0.00  0.00    +0.056 C 
ATOM     15  C   LIG A   1      -7.067  -2.091 124.680  0.00  0.00    -0.011 C 
ATOM     16  C   LIG A   1      -7.831  -3.074 123.772  0.00  0.00    +0.015 C 
ATOM     17  C   LIG A   1      -7.310  -0.648 124.181  0.00  0.00    +0.015 C 
ATOM     18  C   LIG A   1      -4.409   3.310 127.292  0.00  0.00    +0.059 C 
ATOM     19  C   LIG A   1      -4.719   4.820 127.335  0.00  0.00    +0.022 C 
ATOM     20  C   LIG A   1      -3.107   3.080 126.498  0.00  0.00    +0.022 C 
ENDROOT
BRANCH  15  21
ATOM     21  C   LIG A   1      -5.592  -2.505 124.672  0.00  0.00    -0.028 C 
ATOM     22  C   LIG A   1      -4.996  -3.328 123.796  0.00  0.00    +0.004 C 
ENDBRANCH  15  21
BRANCH  13  23
ATOM     23  O   LIG A   1      -7.755  -1.310 128.408  0.00  0.00    -0.461 OA
BRANCH  23  24
ATOM     24  C   LIG A   1      -7.644  -2.475 129.109  0.00  0.00    +0.304 C 
ATOM     25  C   LIG A   1      -6.206  -2.721 129.455  0.00  0.00    +0.136 C 
ATOM     26  O   LIG A   1      -8.534  -3.258 129.379  0.00  0.00    -0.251 OA
ENDBRANCH  23  24
ENDBRANCH  13  23
TORSDOF 3
ENDMDL
MODEL 7
REMARK VINA RESULT:      -7.2      3.819      5.965
REMARK  Name = NuBBE_2239
REMARK  8 active torsions:
REMARK  status: ('A' for Active; 'I' for Inactive)
REMARK    1  A    between atoms: C_11  and  C_12
REMARK    2  A    between atoms: C_13  and  O_15
REMARK    3  A    between atoms: O_15  and  C_16
REMARK    4  A    between atoms: C_16  and  C_17
REMARK    5  A    between atoms: C_20  and  C_21
REMARK    6  A    between atoms: C_20  and  C_22
REMARK    7  A    between atoms: C_25  and  C_26
REMARK    8  A    between atoms: C_25  and  C_27
REMARK                            x       y       z     vdW  Elec       q    Type
REMARK                         _______ _______ _______ _____ _____    ______ ____
ROOT
ATOM      1  O   LIG A   1      -3.397  -3.963 131.822  0.00  0.00    -0.292 OA
ATOM      2  C   LIG A   1      -4.064  -3.346 130.988  0.00  0.00    +0.164 C 
ATOM      3  C   LIG A   1      -3.633  -3.429 129.577  0.00  0.00    +0.045 C 
ATOM      4  C   LIG A   1      -4.432  -3.017 128.587  0.00  0.00    +0.014 C 
ATOM      5  C   LIG A   1      -5.799  -2.473 128.748  0.00  0.00    +0.128 C 
ATOM      6  O   LIG A   1      -6.732  -3.181 129.593  0.00  0.00    -0.355 OA
ATOM      7  C   LIG A   1      -6.145  -2.032 130.205  0.00  0.00    +0.116 C 
ATOM      8  C   LIG A   1      -7.158  -0.932 130.467  0.00  0.00    +0.039 C 
ATOM      9  C   LIG A   1      -7.820  -0.323 129.238  0.00  0.00    +0.007 C 
ATOM     10  C   LIG A   1      -6.871  -0.313 128.037  0.00  0.00    +0.002 C 
ATOM     11  C   LIG A   1      -6.536  -1.763 127.544  0.00  0.00    +0.043 C 
ATOM     12  C   LIG A   1      -7.824  -2.563 127.221  0.00  0.00    +0.018 C 
ATOM     13  C   LIG A   1      -5.643  -1.638 126.247  0.00  0.00    +0.186 C 
ATOM     14  C   LIG A   1      -6.083  -0.591 125.206  0.00  0.00    +0.056 C 
ATOM     15  C   LIG A   1      -6.401   0.804 125.786  0.00  0.00    -0.011 C 
ATOM     16  C   LIG A   1      -7.049   1.652 124.675  0.00  0.00    +0.015 C 
ATOM     17  C   LIG A   1      -7.421   0.604 126.930  0.00  0.00    +0.015 C 
ATOM     18  C   LIG A   1      -5.222  -2.416 131.381  0.00  0.00    +0.059 C 
ATOM     19  C   LIG A   1      -6.043  -3.126 132.475  0.00  0.00    +0.022 C 
ATOM     20  C   LIG A   1      -4.545  -1.167 131.982  0.00  0.00    +0.022 C 
ENDROOT
BRANCH  15  21
ATOM     21  C   LIG A   1      -5.118   1.516 126.223  0.00  0.00    -0.028 C 
ATOM     22  C   LIG A   1      -5.021   2.758 126.722  0.00  0.00    +0.004 C 
ENDBRANCH  15  21
BRANCH  13  23
ATOM     23  O   LIG A   1      -5.337  -2.913 125.591  0.00  0.00    -0.461 OA
BRANCH  23  24
ATOM     24  C   LIG A   1      -5.768  -3.232 124.336  0.00  0.00    +0.304 C 
ATOM     25  C   LIG A   1      -4.598  -3.290 123.401  0.00  0.00    +0.136 C 
ATOM     26  O   LIG A   1      -6.917  -3.390 123.973  0.00  0.00    -0.251 OA
ENDBRANCH  23  24
ENDBRANCH  13  23
TORSDOF 3
ENDMDL
MODEL 8
REMARK VINA RESULT:      -7.1      2.577      5.446
REMARK  Name = NuBBE_2239
REMARK  8 active torsions:
REMARK  status: ('A' for Active; 'I' for Inactive)
REMARK    1  A    between atoms: C_11  and  C_12
REMARK    2  A    between atoms: C_13  and  O_15
REMARK    3  A    between atoms: O_15  and  C_16
REMARK    4  A    between atoms: C_16  and  C_17
REMARK    5  A    between atoms: C_20  and  C_21
REMARK    6  A    between atoms: C_20  and  C_22
REMARK    7  A    between atoms: C_25  and  C_26
REMARK    8  A    between atoms: C_25  and  C_27
REMARK                            x       y       z     vdW  Elec       q    Type
REMARK                         _______ _______ _______ _____ _____    ______ ____
ROOT
ATOM      1  O   LIG A   1      -8.752   1.839 131.256  0.00  0.00    -0.292 OA
ATOM      2  C   LIG A   1      -8.246   1.386 130.227  0.00  0.00    +0.164 C 
ATOM      3  C   LIG A   1      -8.677   1.975 128.942  0.00  0.00    +0.045 C 
ATOM      4  C   LIG A   1      -8.001   1.735 127.813  0.00  0.00    +0.014 C 
ATOM      5  C   LIG A   1      -6.776   0.913 127.696  0.00  0.00    +0.128 C 
ATOM      6  O   LIG A   1      -5.700   1.136 128.632  0.00  0.00    -0.355 OA
ATOM      7  C   LIG A   1      -6.503  -0.008 128.927  0.00  0.00    +0.116 C 
ATOM      8  C   LIG A   1      -5.738  -1.311 128.772  0.00  0.00    +0.039 C 
ATOM      9  C   LIG A   1      -5.243  -1.635 127.369  0.00  0.00    +0.007 C 
ATOM     10  C   LIG A   1      -6.195  -1.096 126.300  0.00  0.00    +0.002 C 
ATOM     11  C   LIG A   1      -6.229   0.472 126.281  0.00  0.00    +0.043 C 
ATOM     12  C   LIG A   1      -4.807   1.065 126.103  0.00  0.00    +0.018 C 
ATOM     13  C   LIG A   1      -7.152   0.922 125.082  0.00  0.00    +0.186 C 
ATOM     14  C   LIG A   1      -6.962   0.174 123.747  0.00  0.00    +0.056 C 
ATOM     15  C   LIG A   1      -6.933  -1.365 123.867  0.00  0.00    -0.011 C 
ATOM     16  C   LIG A   1      -6.499  -1.946 122.507  0.00  0.00    +0.015 C 
ATOM     17  C   LIG A   1      -5.872  -1.723 124.932  0.00  0.00    +0.015 C 
ATOM     18  C   LIG A   1      -7.302   0.174 130.235  0.00  0.00    +0.059 C 
ATOM     19  C   LIG A   1      -6.329   0.345 131.419  0.00  0.00    +0.022 C 
ATOM     20  C   LIG A   1      -8.215  -1.041 130.498  0.00  0.00    +0.022 C 
ENDROOT
BRANCH  15  21
ATOM     21  C   LIG A   1      -8.328  -1.912 124.179  0.00  0.00    -0.028 C 
ATOM     22  C   LIG A   1      -8.780  -3.150 123.922  0.00  0.00    +0.004 C 
ENDBRANCH  15  21
BRANCH  13  23
ATOM     23  O   LIG A   1      -7.196   2.369 124.854  0.00  0.00    -0.461 OA
BRANCH  23  24
ATOM     24  C   LIG A   1      -8.340   3.044 124.545  0.00  0.00    +0.304 C 
ATOM     25  C   LIG A   1      -8.770   2.698 123.151  0.00  0.00    +0.136 C 
ATOM     26  O   LIG A   1      -8.920   3.860 125.235  0.00  0.00    -0.251 OA
ENDBRANCH  23  24
ENDBRANCH  13  23
TORSDOF 3
ENDMDL
MODEL 9
REMARK VINA RESULT:      -7.1      5.259      8.522
REMARK  Name = NuBBE_2239
REMARK  8 active torsions:
REMARK  status: ('A' for Active; 'I' for Inactive)
REMARK    1  A    between atoms: C_11  and  C_12
REMARK    2  A    between atoms: C_13  and  O_15
REMARK    3  A    between atoms: O_15  and  C_16
REMARK    4  A    between atoms: C_16  and  C_17
REMARK    5  A    between atoms: C_20  and  C_21
REMARK    6  A    between atoms: C_20  and  C_22
REMARK    7  A    between atoms: C_25  and  C_26
REMARK    8  A    between atoms: C_25  and  C_27
REMARK                            x       y       z     vdW  Elec       q    Type
REMARK                         _______ _______ _______ _____ _____    ______ ____
ROOT
ATOM      1  O   LIG A   1      -3.250   8.018 130.623  0.00  0.00    -0.292 OA
ATOM      2  C   LIG A   1      -3.989   7.035 130.536  0.00  0.00    +0.164 C 
ATOM      3  C   LIG A   1      -5.330   7.138 131.148  0.00  0.00    +0.045 C 
ATOM      4  C   LIG A   1      -6.282   6.237 130.879  0.00  0.00    +0.014 C 
ATOM      5  C   LIG A   1      -6.146   5.085 129.959  0.00  0.00    +0.128 C 
ATOM      6  O   LIG A   1      -5.583   5.307 128.648  0.00  0.00    -0.355 OA
ATOM      7  C   LIG A   1      -4.672   4.732 129.587  0.00  0.00    +0.116 C 
ATOM      8  C   LIG A   1      -4.278   3.312 129.220  0.00  0.00    +0.039 C 
ATOM      9  C   LIG A   1      -5.402   2.285 129.213  0.00  0.00    +0.007 C 
ATOM     10  C   LIG A   1      -6.465   2.610 130.266  0.00  0.00    +0.002 C 
ATOM     11  C   LIG A   1      -7.231   3.937 129.934  0.00  0.00    +0.043 C 
ATOM     12  C   LIG A   1      -7.857   3.889 128.516  0.00  0.00    +0.018 C 
ATOM     13  C   LIG A   1      -8.367   4.122 131.015  0.00  0.00    +0.186 C 
ATOM     14  C   LIG A   1      -9.189   2.868 131.374  0.00  0.00    +0.056 C 
ATOM     15  C   LIG A   1      -8.347   1.609 131.675  0.00  0.00    -0.011 C 
ATOM     16  C   LIG A   1      -9.303   0.404 131.774  0.00  0.00    +0.015 C 
ATOM     17  C   LIG A   1      -7.390   1.399 130.481  0.00  0.00    +0.015 C 
ATOM     18  C   LIG A   1      -3.521   5.700 129.936  0.00  0.00    +0.059 C 
ATOM     19  C   LIG A   1      -2.705   6.017 128.668  0.00  0.00    +0.022 C 
ATOM     20  C   LIG A   1      -2.589   5.089 131.002  0.00  0.00    +0.022 C 
ENDROOT
BRANCH  15  21
ATOM     21  C   LIG A   1      -7.632   1.743 133.022  0.00  0.00    -0.028 C 
ATOM     22  C   LIG A   1      -6.596   1.008 133.457  0.00  0.00    +0.004 C 
ENDBRANCH  15  21
BRANCH  13  23
ATOM     23  O   LIG A   1      -9.256   5.263 130.779  0.00  0.00    -0.461 OA
BRANCH  23  24
ATOM     24  C   LIG A   1      -9.893   5.937 131.779  0.00  0.00    +0.304 C 
ATOM     25  C   LIG A   1     -11.317   6.193 131.387  0.00  0.00    +0.136 C 
ATOM     26  O   LIG A   1      -9.406   6.345 132.816  0.00  0.00    -0.251 OA
ENDBRANCH  23  24
ENDBRANCH  13  23
TORSDOF 3
ENDMDL
