MODEL 1
REMARK VINA RESULT:     -10.6      0.000      0.000
REMARK  Name = NuBBE_388
REMARK  15 active torsions:
REMARK  status: ('A' for Active; 'I' for Inactive)
REMARK    1  A    between atoms: C_1  and  C_2
REMARK    2  A    between atoms: C_3  and  C_47
REMARK    3  A    between atoms: C_7  and  C_8
REMARK    4  A    between atoms: C_7  and  C_46
REMARK    5  A    between atoms: C_9  and  O_34
REMARK    6  A    between atoms: C_11  and  O_33
REMARK    7  A    between atoms: C_14  and  C_32
REMARK    8  A    between atoms: C_20  and  C_21
REMARK    9  A    between atoms: C_21  and  O_22
REMARK   10  A    between atoms: C_28  and  C_29
REMARK   11  A    between atoms: C_28  and  C_31
REMARK   12  A    between atoms: O_34  and  C_35
REMARK   13  A    between atoms: C_35  and  C_36
REMARK   14  A    between atoms: C_37  and  C_38
REMARK   15  A    between atoms: C_41  and  O_44
REMARK                            x       y       z     vdW  Elec       q    Type
REMARK                         _______ _______ _______ _____ _____    ______ ____
ROOT
ATOM      1  C   LIG A   1      -8.318   4.270 125.940  0.00  0.00    +0.016 C 
ATOM      2  C   LIG A   1      -7.347   3.052 125.793  0.00  0.00    -0.005 C 
ATOM      3  C   LIG A   1      -5.955   3.261 126.610  0.00  0.00    -0.019 C 
ATOM      4  C   LIG A   1      -5.188   4.503 126.087  0.00  0.00    +0.008 C 
ATOM      5  C   LIG A   1      -4.065   4.994 126.996  0.00  0.00    +0.005 C 
ATOM      6  C   LIG A   1      -4.597   5.306 128.407  0.00  0.00    +0.004 C 
ATOM      7  C   LIG A   1      -3.614   6.175 129.276  0.00  0.00    +0.008 C 
ATOM      8  C   LIG A   1      -2.157   5.648 129.230  0.00  0.00    +0.015 C 
ATOM      9  C   LIG A   1      -4.161   6.363 130.738  0.00  0.00    +0.211 C 
ATOM     10  C   LIG A   1      -5.574   5.803 130.982  0.00  0.00    +0.156 C 
ATOM     11  C   LIG A   1      -5.839   4.391 130.460  0.00  0.00    +0.042 C 
ATOM     12  C   LIG A   1      -5.178   4.016 129.089  0.00  0.00    -0.023 C 
ATOM     13  C   LIG A   1      -6.313   3.443 128.129  0.00  0.00    +0.006 C 
ATOM     14  C   LIG A   1      -7.064   2.200 128.659  0.00  0.00    +0.031 C 
ATOM     15  C   LIG A   1      -7.998   1.549 127.674  0.00  0.00    -0.026 C 
ATOM     16  C   LIG A   1      -8.131   1.850 126.362  0.00  0.00    -0.063 C 
ATOM     17  C   LIG A   1      -9.170   1.152 125.454  0.00  0.00    +0.033 C 
ATOM     18  C   LIG A   1      -8.791   1.084 123.939  0.00  0.00    +0.074 C 
ATOM     19  C   LIG A   1      -8.218   2.428 123.443  0.00  0.00    +0.019 C 
ATOM     20  C   LIG A   1      -7.043   2.909 124.277  0.00  0.00    +0.012 C 
ATOM     21  C   LIG A   1      -7.770  -0.055 123.687  0.00  0.00    +0.019 C 
ATOM     22  C   LIG A   1      -8.243  -1.429 124.161  0.00  0.00    +0.007 C 
ATOM     23  C   LIG A   1      -8.710  -1.452 125.629  0.00  0.00    -0.034 C 
ATOM     24  C   LIG A   1      -9.492  -2.760 125.877  0.00  0.00    +0.011 C 
ATOM     25  C   LIG A   1      -9.657  -0.257 125.918  0.00  0.00    +0.015 C 
ATOM     26  C   LIG A   1      -7.485  -1.483 126.560  0.00  0.00    +0.011 C 
ATOM     27  C   LIG A   1      -4.088   2.955 129.375  0.00  0.00    +0.012 C 
ATOM     28  C   LIG A   1      -3.546   7.604 128.658  0.00  0.00    +0.015 C 
ATOM     29  C   LIG A   1      -5.026   2.020 126.396  0.00  0.00    +0.012 C 
ENDROOT
BRANCH  18  30
ATOM     30  C   LIG A   1     -10.069   0.871 123.109  0.00  0.00    +0.311 C 
ATOM     31  O   LIG A   1     -10.162   0.249 122.064  0.00  0.00    -0.250 OA
BRANCH  30  32
ATOM     32  O   LIG A   1     -11.182   1.392 123.663  0.00  0.00    -0.480 OA
ATOM     33  H   LIG A   1     -11.030   1.308 124.628  0.00  0.00    +0.295 HD
ENDBRANCH  30  32
ENDBRANCH  18  30
BRANCH  10  34
ATOM     34  O   LIG A   1      -6.546   6.668 130.366  0.00  0.00    -0.388 OA
ATOM     35  H   LIG A   1      -7.427   6.384 130.664  0.00  0.00    +0.210 HD
ENDBRANCH  10  34
BRANCH   9  36
ATOM     36  O   LIG A   1      -3.221   5.863 131.709  0.00  0.00    -0.455 OA
BRANCH  36  37
ATOM     37  C   LIG A   1      -3.109   6.638 132.815  0.00  0.00    +0.332 C 
ATOM     38  O   LIG A   1      -3.667   6.452 133.903  0.00  0.00    -0.246 OA
BRANCH  37  39
ATOM     39  C   LIG A   1      -2.285   7.808 132.521  0.00  0.00    +0.092 C 
ATOM     40  C   LIG A   1      -2.300   8.844 133.375  0.00  0.00    +0.015 C 
BRANCH  40  41
ATOM     41  C   LIG A   1      -1.444   9.993 133.140  0.00  0.00    -0.025 A 
ATOM     42  C   LIG A   1      -1.980  11.177 132.624  0.00  0.00    +0.011 A 
ATOM     43  C   LIG A   1      -1.144  12.258 132.353  0.00  0.00    +0.046 A 
ATOM     44  C   LIG A   1       0.223  12.144 132.601  0.00  0.00    +0.117 A 
ATOM     45  C   LIG A   1       0.765  10.971 133.116  0.00  0.00    +0.046 A 
ATOM     46  C   LIG A   1      -0.071   9.891 133.387  0.00  0.00    +0.011 A 
BRANCH  44  47
ATOM     47  O   LIG A   1       1.074  13.177 132.345  0.00  0.00    -0.507 OA
ATOM     48  H   LIG A   1       1.919  12.995 132.790  0.00  0.00    +0.292 HD
ENDBRANCH  44  47
ENDBRANCH  40  41
ENDBRANCH  37  39
ENDBRANCH  36  37
ENDBRANCH   9  36
TORSDOF 8
ENDMDL
MODEL 2
REMARK VINA RESULT:     -10.6      6.280     10.674
REMARK  Name = NuBBE_388
REMARK  15 active torsions:
REMARK  status: ('A' for Active; 'I' for Inactive)
REMARK    1  A    between atoms: C_1  and  C_2
REMARK    2  A    between atoms: C_3  and  C_47
REMARK    3  A    between atoms: C_7  and  C_8
REMARK    4  A    between atoms: C_7  and  C_46
REMARK    5  A    between atoms: C_9  and  O_34
REMARK    6  A    between atoms: C_11  and  O_33
REMARK    7  A    between atoms: C_14  and  C_32
REMARK    8  A    between atoms: C_20  and  C_21
REMARK    9  A    between atoms: C_21  and  O_22
REMARK   10  A    between atoms: C_28  and  C_29
REMARK   11  A    between atoms: C_28  and  C_31
REMARK   12  A    between atoms: O_34  and  C_35
REMARK   13  A    between atoms: C_35  and  C_36
REMARK   14  A    between atoms: C_37  and  C_38
REMARK   15  A    between atoms: C_41  and  O_44
REMARK                            x       y       z     vdW  Elec       q    Type
REMARK                         _______ _______ _______ _____ _____    ______ ____
ROOT
ATOM      1  C   LIG A   1      -3.383  -2.544 130.000  0.00  0.00    +0.016 C 
ATOM      2  C   LIG A   1      -4.351  -1.956 131.079  0.00  0.00    -0.005 C 
ATOM      3  C   LIG A   1      -5.311  -0.784 130.486  0.00  0.00    -0.019 C 
ATOM      4  C   LIG A   1      -4.470   0.404 129.953  0.00  0.00    +0.008 C 
ATOM      5  C   LIG A   1      -5.231   1.385 129.067  0.00  0.00    +0.005 C 
ATOM      6  C   LIG A   1      -5.869   0.662 127.867  0.00  0.00    +0.004 C 
ATOM      7  C   LIG A   1      -6.327   1.630 126.715  0.00  0.00    +0.008 C 
ATOM      8  C   LIG A   1      -7.129   2.846 127.245  0.00  0.00    +0.015 C 
ATOM      9  C   LIG A   1      -7.070   0.845 125.572  0.00  0.00    +0.211 C 
ATOM     10  C   LIG A   1      -7.073  -0.686 125.730  0.00  0.00    +0.156 C 
ATOM     11  C   LIG A   1      -7.446  -1.220 127.114  0.00  0.00    +0.042 C 
ATOM     12  C   LIG A   1      -6.921  -0.403 128.344  0.00  0.00    -0.023 C 
ATOM     13  C   LIG A   1      -6.166  -1.408 129.324  0.00  0.00    +0.006 C 
ATOM     14  C   LIG A   1      -7.020  -2.584 129.853  0.00  0.00    +0.031 C 
ATOM     15  C   LIG A   1      -6.366  -3.418 130.922  0.00  0.00    -0.026 C 
ATOM     16  C   LIG A   1      -5.197  -3.159 131.550  0.00  0.00    -0.063 C 
ATOM     17  C   LIG A   1      -4.588  -4.122 132.596  0.00  0.00    +0.033 C 
ATOM     18  C   LIG A   1      -3.676  -3.447 133.672  0.00  0.00    +0.074 C 
ATOM     19  C   LIG A   1      -2.723  -2.417 133.032  0.00  0.00    +0.019 C 
ATOM     20  C   LIG A   1      -3.456  -1.372 132.206  0.00  0.00    +0.012 C 
ATOM     21  C   LIG A   1      -4.539  -2.767 134.764  0.00  0.00    +0.019 C 
ATOM     22  C   LIG A   1      -5.530  -3.708 135.448  0.00  0.00    +0.007 C 
ATOM     23  C   LIG A   1      -6.432  -4.480 134.466  0.00  0.00    -0.034 C 
ATOM     24  C   LIG A   1      -7.110  -5.639 135.228  0.00  0.00    +0.011 C 
ATOM     25  C   LIG A   1      -5.588  -5.084 133.313  0.00  0.00    +0.015 C 
ATOM     26  C   LIG A   1      -7.557  -3.559 133.965  0.00  0.00    +0.011 C 
ATOM     27  C   LIG A   1      -8.148   0.243 129.030  0.00  0.00    +0.012 C 
ATOM     28  C   LIG A   1      -5.055   2.243 126.054  0.00  0.00    +0.015 C 
ATOM     29  C   LIG A   1      -6.229  -0.227 131.623  0.00  0.00    +0.012 C 
ENDROOT
BRANCH  18  30
ATOM     30  C   LIG A   1      -2.749  -4.511 134.285  0.00  0.00    +0.311 C 
ATOM     31  O   LIG A   1      -2.675  -4.818 135.463  0.00  0.00    -0.250 OA
BRANCH  30  32
ATOM     32  O   LIG A   1      -2.008  -5.185 133.384  0.00  0.00    -0.480 OA
ATOM     33  H   LIG A   1      -1.813  -4.521 132.689  0.00  0.00    +0.295 HD
ENDBRANCH  30  32
ENDBRANCH  18  30
BRANCH  10  34
ATOM     34  O   LIG A   1      -5.767  -1.204 125.418  0.00  0.00    -0.388 OA
ATOM     35  H   LIG A   1      -5.582  -0.999 124.485  0.00  0.00    +0.210 HD
ENDBRANCH  10  34
BRANCH   9  36
ATOM     36  O   LIG A   1      -8.402   1.358 125.376  0.00  0.00    -0.455 OA
BRANCH  36  37
ATOM     37  C   LIG A   1      -8.889   1.158 124.127  0.00  0.00    +0.332 C 
ATOM     38  O   LIG A   1      -9.893   0.502 123.825  0.00  0.00    -0.246 OA
BRANCH  37  39
ATOM     39  C   LIG A   1      -7.997   1.766 123.143  0.00  0.00    +0.092 C 
ATOM     40  C   LIG A   1      -8.429   2.828 122.443  0.00  0.00    +0.015 C 
BRANCH  40  41
ATOM     41  C   LIG A   1      -7.541   3.491 121.504  0.00  0.00    -0.025 A 
ATOM     42  C   LIG A   1      -6.207   3.728 121.846  0.00  0.00    +0.011 A 
ATOM     43  C   LIG A   1      -5.375   4.410 120.960  0.00  0.00    +0.046 A 
ATOM     44  C   LIG A   1      -5.886   4.848 119.741  0.00  0.00    +0.117 A 
ATOM     45  C   LIG A   1      -7.212   4.616 119.392  0.00  0.00    +0.046 A 
ATOM     46  C   LIG A   1      -8.044   3.934 120.276  0.00  0.00    +0.011 A 
BRANCH  44  47
ATOM     47  O   LIG A   1      -5.106   5.523 118.850  0.00  0.00    -0.507 OA
ATOM     48  H   LIG A   1      -4.225   5.642 119.243  0.00  0.00    +0.292 HD
ENDBRANCH  44  47
ENDBRANCH  40  41
ENDBRANCH  37  39
ENDBRANCH  36  37
ENDBRANCH   9  36
TORSDOF 8
ENDMDL
MODEL 3
REMARK VINA RESULT:     -10.2      6.897     10.688
REMARK  Name = NuBBE_388
REMARK  15 active torsions:
REMARK  status: ('A' for Active; 'I' for Inactive)
REMARK    1  A    between atoms: C_1  and  C_2
REMARK    2  A    between atoms: C_3  and  C_47
REMARK    3  A    between atoms: C_7  and  C_8
REMARK    4  A    between atoms: C_7  and  C_46
REMARK    5  A    between atoms: C_9  and  O_34
REMARK    6  A    between atoms: C_11  and  O_33
REMARK    7  A    between atoms: C_14  and  C_32
REMARK    8  A    between atoms: C_20  and  C_21
REMARK    9  A    between atoms: C_21  and  O_22
REMARK   10  A    between atoms: C_28  and  C_29
REMARK   11  A    between atoms: C_28  and  C_31
REMARK   12  A    between atoms: O_34  and  C_35
REMARK   13  A    between atoms: C_35  and  C_36
REMARK   14  A    between atoms: C_37  and  C_38
REMARK   15  A    between atoms: C_41  and  O_44
REMARK                            x       y       z     vdW  Elec       q    Type
REMARK                         _______ _______ _______ _____ _____    ______ ____
ROOT
ATOM      1  C   LIG A   1      -7.140  -4.142 129.673  0.00  0.00    +0.016 C 
ATOM      2  C   LIG A   1      -6.122  -3.071 130.189  0.00  0.00    -0.005 C 
ATOM      3  C   LIG A   1      -5.846  -1.894 129.100  0.00  0.00    -0.019 C 
ATOM      4  C   LIG A   1      -5.249  -2.478 127.794  0.00  0.00    +0.008 C 
ATOM      5  C   LIG A   1      -5.281  -1.534 126.595  0.00  0.00    +0.005 C 
ATOM      6  C   LIG A   1      -6.717  -1.060 126.306  0.00  0.00    +0.004 C 
ATOM      7  C   LIG A   1      -6.896  -0.418 124.881  0.00  0.00    +0.008 C 
ATOM      8  C   LIG A   1      -5.790   0.617 124.553  0.00  0.00    +0.015 C 
ATOM      9  C   LIG A   1      -8.352   0.148 124.691  0.00  0.00    +0.211 C 
ATOM     10  C   LIG A   1      -9.326  -0.160 125.842  0.00  0.00    +0.156 C 
ATOM     11  C   LIG A   1      -8.802   0.099 127.256  0.00  0.00    +0.042 C 
ATOM     12  C   LIG A   1      -7.296  -0.246 127.518  0.00  0.00    -0.023 C 
ATOM     13  C   LIG A   1      -7.218  -1.186 128.802  0.00  0.00    +0.006 C 
ATOM     14  C   LIG A   1      -7.809  -0.588 130.099  0.00  0.00    +0.031 C 
ATOM     15  C   LIG A   1      -7.563  -1.395 131.346  0.00  0.00    -0.026 C 
ATOM     16  C   LIG A   1      -6.773  -2.487 131.461  0.00  0.00    -0.063 C 
ATOM     17  C   LIG A   1      -6.640  -3.276 132.785  0.00  0.00    +0.033 C 
ATOM     18  C   LIG A   1      -5.284  -4.029 132.979  0.00  0.00    +0.074 C 
ATOM     19  C   LIG A   1      -4.856  -4.755 131.686  0.00  0.00    +0.019 C 
ATOM     20  C   LIG A   1      -4.798  -3.826 130.483  0.00  0.00    +0.012 C 
ATOM     21  C   LIG A   1      -4.176  -3.043 133.426  0.00  0.00    +0.019 C 
ATOM     22  C   LIG A   1      -4.515  -2.263 134.696  0.00  0.00    +0.007 C 
ATOM     23  C   LIG A   1      -5.874  -1.540 134.635  0.00  0.00    -0.034 C 
ATOM     24  C   LIG A   1      -6.268  -1.109 136.064  0.00  0.00    +0.011 C 
ATOM     25  C   LIG A   1      -6.974  -2.491 134.093  0.00  0.00    +0.015 C 
ATOM     26  C   LIG A   1      -5.736  -0.251 133.805  0.00  0.00    +0.011 C 
ATOM     27  C   LIG A   1      -6.548   1.089 127.746  0.00  0.00    +0.012 C 
ATOM     28  C   LIG A   1      -6.731  -1.540 123.813  0.00  0.00    +0.015 C 
ATOM     29  C   LIG A   1      -4.802  -0.879 129.672  0.00  0.00    +0.012 C 
ENDROOT
BRANCH  18  30
ATOM     30  C   LIG A   1      -5.474  -5.152 134.013  0.00  0.00    +0.311 C 
ATOM     31  O   LIG A   1      -6.535  -5.617 134.394  0.00  0.00    -0.250 OA
BRANCH  30  32
ATOM     32  O   LIG A   1      -4.323  -5.683 134.470  0.00  0.00    -0.480 OA
ATOM     33  H   LIG A   1      -3.698  -5.580 133.722  0.00  0.00    +0.295 HD
ENDBRANCH  30  32
ENDBRANCH  18  30
BRANCH  10  34
ATOM     34  O   LIG A   1      -9.714  -1.545 125.786  0.00  0.00    -0.388 OA
ATOM     35  H   LIG A   1     -10.628  -1.610 126.113  0.00  0.00    +0.210 HD
ENDBRANCH  10  34
BRANCH   9  36
ATOM     36  O   LIG A   1      -8.323   1.556 124.387  0.00  0.00    -0.455 OA
BRANCH  36  37
ATOM     37  C   LIG A   1      -9.334   1.965 123.582  0.00  0.00    +0.332 C 
ATOM     38  O   LIG A   1     -10.529   1.665 123.693  0.00  0.00    -0.246 OA
BRANCH  37  39
ATOM     39  C   LIG A   1      -8.801   2.763 122.481  0.00  0.00    +0.092 C 
ATOM     40  C   LIG A   1      -7.476   2.969 122.411  0.00  0.00    +0.015 C 
BRANCH  40  41
ATOM     41  C   LIG A   1      -6.913   3.705 121.293  0.00  0.00    -0.025 A 
ATOM     42  C   LIG A   1      -5.614   4.219 121.372  0.00  0.00    +0.011 A 
ATOM     43  C   LIG A   1      -5.099   4.968 120.316  0.00  0.00    +0.046 A 
ATOM     44  C   LIG A   1      -5.888   5.196 119.190  0.00  0.00    +0.117 A 
ATOM     45  C   LIG A   1      -7.180   4.688 119.103  0.00  0.00    +0.046 A 
ATOM     46  C   LIG A   1      -7.695   3.940 120.157  0.00  0.00    +0.011 A 
BRANCH  44  47
ATOM     47  O   LIG A   1      -5.422   5.927 118.139  0.00  0.00    -0.507 OA
ATOM     48  H   LIG A   1      -5.892   5.644 117.337  0.00  0.00    +0.292 HD
ENDBRANCH  44  47
ENDBRANCH  40  41
ENDBRANCH  37  39
ENDBRANCH  36  37
ENDBRANCH   9  36
TORSDOF 8
ENDMDL
MODEL 4
REMARK VINA RESULT:      -9.9      2.772     10.703
REMARK  Name = NuBBE_388
REMARK  15 active torsions:
REMARK  status: ('A' for Active; 'I' for Inactive)
REMARK    1  A    between atoms: C_1  and  C_2
REMARK    2  A    between atoms: C_3  and  C_47
REMARK    3  A    between atoms: C_7  and  C_8
REMARK    4  A    between atoms: C_7  and  C_46
REMARK    5  A    between atoms: C_9  and  O_34
REMARK    6  A    between atoms: C_11  and  O_33
REMARK    7  A    between atoms: C_14  and  C_32
REMARK    8  A    between atoms: C_20  and  C_21
REMARK    9  A    between atoms: C_21  and  O_22
REMARK   10  A    between atoms: C_28  and  C_29
REMARK   11  A    between atoms: C_28  and  C_31
REMARK   12  A    between atoms: O_34  and  C_35
REMARK   13  A    between atoms: C_35  and  C_36
REMARK   14  A    between atoms: C_37  and  C_38
REMARK   15  A    between atoms: C_41  and  O_44
REMARK                            x       y       z     vdW  Elec       q    Type
REMARK                         _______ _______ _______ _____ _____    ______ ____
ROOT
ATOM      1  C   LIG A   1      -6.323   2.271 131.675  0.00  0.00    +0.016 C 
ATOM      2  C   LIG A   1      -4.925   2.579 131.046  0.00  0.00    -0.005 C 
ATOM      3  C   LIG A   1      -4.812   2.086 129.499  0.00  0.00    -0.019 C 
ATOM      4  C   LIG A   1      -5.017   0.553 129.391  0.00  0.00    +0.008 C 
ATOM      5  C   LIG A   1      -5.282   0.039 127.979  0.00  0.00    +0.005 C 
ATOM      6  C   LIG A   1      -6.505   0.739 127.359  0.00  0.00    +0.004 C 
ATOM      7  C   LIG A   1      -7.078   0.006 126.091  0.00  0.00    +0.008 C 
ATOM      8  C   LIG A   1      -5.970  -0.388 125.081  0.00  0.00    +0.015 C 
ATOM      9  C   LIG A   1      -8.250   0.828 125.439  0.00  0.00    +0.211 C 
ATOM     10  C   LIG A   1      -8.689   2.074 126.228  0.00  0.00    +0.156 C 
ATOM     11  C   LIG A   1      -7.568   2.989 126.723  0.00  0.00    +0.042 C 
ATOM     12  C   LIG A   1      -6.259   2.284 127.221  0.00  0.00    -0.023 C 
ATOM     13  C   LIG A   1      -5.917   2.841 128.674  0.00  0.00    +0.006 C 
ATOM     14  C   LIG A   1      -5.707   4.371 128.766  0.00  0.00    +0.031 C 
ATOM     15  C   LIG A   1      -5.199   4.868 130.092  0.00  0.00    -0.026 C 
ATOM     16  C   LIG A   1      -4.781   4.114 131.134  0.00  0.00    -0.063 C 
ATOM     17  C   LIG A   1      -4.332   4.735 132.478  0.00  0.00    +0.033 C 
ATOM     18  C   LIG A   1      -3.298   3.889 133.290  0.00  0.00    +0.074 C 
ATOM     19  C   LIG A   1      -3.683   2.395 133.304  0.00  0.00    +0.019 C 
ATOM     20  C   LIG A   1      -3.876   1.826 131.908  0.00  0.00    +0.012 C 
ATOM     21  C   LIG A   1      -1.874   4.066 132.704  0.00  0.00    +0.019 C 
ATOM     22  C   LIG A   1      -1.408   5.520 132.635  0.00  0.00    +0.007 C 
ATOM     23  C   LIG A   1      -2.397   6.456 131.915  0.00  0.00    -0.034 C 
ATOM     24  C   LIG A   1      -2.009   7.917 132.226  0.00  0.00    +0.011 C 
ATOM     25  C   LIG A   1      -3.843   6.217 132.424  0.00  0.00    +0.015 C 
ATOM     26  C   LIG A   1      -2.262   6.275 130.393  0.00  0.00    +0.011 C 
ATOM     27  C   LIG A   1      -5.138   2.618 126.207  0.00  0.00    +0.012 C 
ATOM     28  C   LIG A   1      -7.707  -1.345 126.548  0.00  0.00    +0.015 C 
ATOM     29  C   LIG A   1      -3.383   2.402 128.946  0.00  0.00    +0.012 C 
ENDROOT
BRANCH  18  30
ATOM     30  C   LIG A   1      -3.344   4.319 134.766  0.00  0.00    +0.311 C 
ATOM     31  O   LIG A   1      -3.448   5.459 135.189  0.00  0.00    -0.250 OA
BRANCH  30  32
ATOM     32  O   LIG A   1      -3.325   3.294 135.642  0.00  0.00    -0.480 OA
ATOM     33  H   LIG A   1      -3.486   2.503 135.087  0.00  0.00    +0.295 HD
ENDBRANCH  30  32
ENDBRANCH  18  30
BRANCH  10  34
ATOM     34  O   LIG A   1      -9.442   1.669 127.386  0.00  0.00    -0.388 OA
ATOM     35  H   LIG A   1      -9.251   0.729 127.549  0.00  0.00    +0.210 HD
ENDBRANCH  10  34
BRANCH   9  36
ATOM     36  O   LIG A   1      -7.952   1.151 124.067  0.00  0.00    -0.455 OA
BRANCH  36  37
ATOM     37  C   LIG A   1      -9.040   1.496 123.335  0.00  0.00    +0.332 C 
ATOM     38  O   LIG A   1     -10.182   1.036 123.455  0.00  0.00    -0.246 OA
BRANCH  37  39
ATOM     39  C   LIG A   1      -8.660   2.450 122.297  0.00  0.00    +0.092 C 
ATOM     40  C   LIG A   1      -7.363   2.767 122.151  0.00  0.00    +0.015 C 
BRANCH  40  41
ATOM     41  C   LIG A   1      -6.948   3.664 121.087  0.00  0.00    -0.025 A 
ATOM     42  C   LIG A   1      -7.808   3.930 120.016  0.00  0.00    +0.011 A 
ATOM     43  C   LIG A   1      -7.384   4.751 118.973  0.00  0.00    +0.046 A 
ATOM     44  C   LIG A   1      -6.103   5.299 119.011  0.00  0.00    +0.117 A 
ATOM     45  C   LIG A   1      -5.242   5.042 120.073  0.00  0.00    +0.046 A 
ATOM     46  C   LIG A   1      -5.665   4.221 121.115  0.00  0.00    +0.011 A 
BRANCH  44  47
ATOM     47  O   LIG A   1      -5.650   6.102 118.009  0.00  0.00    -0.507 OA
ATOM     48  H   LIG A   1      -6.139   6.941 118.044  0.00  0.00    +0.292 HD
ENDBRANCH  44  47
ENDBRANCH  40  41
ENDBRANCH  37  39
ENDBRANCH  36  37
ENDBRANCH   9  36
TORSDOF 8
ENDMDL
MODEL 5
REMARK VINA RESULT:      -9.7      7.128     10.583
REMARK  Name = NuBBE_388
REMARK  15 active torsions:
REMARK  status: ('A' for Active; 'I' for Inactive)
REMARK    1  A    between atoms: C_1  and  C_2
REMARK    2  A    between atoms: C_3  and  C_47
REMARK    3  A    between atoms: C_7  and  C_8
REMARK    4  A    between atoms: C_7  and  C_46
REMARK    5  A    between atoms: C_9  and  O_34
REMARK    6  A    between atoms: C_11  and  O_33
REMARK    7  A    between atoms: C_14  and  C_32
REMARK    8  A    between atoms: C_20  and  C_21
REMARK    9  A    between atoms: C_21  and  O_22
REMARK   10  A    between atoms: C_28  and  C_29
REMARK   11  A    between atoms: C_28  and  C_31
REMARK   12  A    between atoms: O_34  and  C_35
REMARK   13  A    between atoms: C_35  and  C_36
REMARK   14  A    between atoms: C_37  and  C_38
REMARK   15  A    between atoms: C_41  and  O_44
REMARK                            x       y       z     vdW  Elec       q    Type
REMARK                         _______ _______ _______ _____ _____    ______ ____
ROOT
ATOM      1  C   LIG A   1      -7.091   0.452 128.815  0.00  0.00    +0.016 C 
ATOM      2  C   LIG A   1      -6.453  -0.723 128.002  0.00  0.00    -0.005 C 
ATOM      3  C   LIG A   1      -5.683  -1.796 128.953  0.00  0.00    -0.019 C 
ATOM      4  C   LIG A   1      -4.526  -1.116 129.730  0.00  0.00    +0.008 C 
ATOM      5  C   LIG A   1      -3.972  -1.928 130.897  0.00  0.00    +0.005 C 
ATOM      6  C   LIG A   1      -5.087  -2.286 131.897  0.00  0.00    +0.004 C 
ATOM      7  C   LIG A   1      -4.551  -2.767 133.295  0.00  0.00    +0.008 C 
ATOM      8  C   LIG A   1      -3.425  -3.824 133.168  0.00  0.00    +0.015 C 
ATOM      9  C   LIG A   1      -5.731  -3.225 134.230  0.00  0.00    +0.211 C 
ATOM     10  C   LIG A   1      -7.141  -2.982 133.664  0.00  0.00    +0.156 C 
ATOM     11  C   LIG A   1      -7.371  -3.414 132.216  0.00  0.00    +0.042 C 
ATOM     12  C   LIG A   1      -6.182  -3.186 131.220  0.00  0.00    -0.023 C 
ATOM     13  C   LIG A   1      -6.737  -2.388 129.957  0.00  0.00    +0.006 C 
ATOM     14  C   LIG A   1      -7.885  -3.082 129.188  0.00  0.00    +0.031 C 
ATOM     15  C   LIG A   1      -8.276  -2.423 127.892  0.00  0.00    -0.026 C 
ATOM     16  C   LIG A   1      -7.640  -1.396 127.281  0.00  0.00    -0.063 C 
ATOM     17  C   LIG A   1      -8.167  -0.757 125.975  0.00  0.00    +0.033 C 
ATOM     18  C   LIG A   1      -7.076  -0.107 125.064  0.00  0.00    +0.074 C 
ATOM     19  C   LIG A   1      -6.073   0.722 125.894  0.00  0.00    +0.019 C 
ATOM     20  C   LIG A   1      -5.438  -0.080 127.019  0.00  0.00    +0.012 C 
ATOM     21  C   LIG A   1      -6.326  -1.196 124.257  0.00  0.00    +0.019 C 
ATOM     22  C   LIG A   1      -7.240  -2.082 123.411  0.00  0.00    +0.007 C 
ATOM     23  C   LIG A   1      -8.399  -2.715 124.205  0.00  0.00    -0.034 C 
ATOM     24  C   LIG A   1      -9.438  -3.267 123.205  0.00  0.00    +0.011 C 
ATOM     25  C   LIG A   1      -9.095  -1.652 125.094  0.00  0.00    +0.015 C 
ATOM     26  C   LIG A   1      -7.875  -3.917 125.010  0.00  0.00    +0.011 C 
ATOM     27  C   LIG A   1      -5.640  -4.579 130.818  0.00  0.00    +0.012 C 
ATOM     28  C   LIG A   1      -3.887  -1.552 134.010  0.00  0.00    +0.015 C 
ATOM     29  C   LIG A   1      -5.050  -2.923 128.073  0.00  0.00    +0.012 C 
ENDROOT
BRANCH  18  30
ATOM     30  C   LIG A   1      -7.744   0.912 124.126  0.00  0.00    +0.311 C 
ATOM     31  O   LIG A   1      -8.844   1.420 124.268  0.00  0.00    -0.250 OA
BRANCH  30  32
ATOM     32  O   LIG A   1      -6.974   1.297 123.088  0.00  0.00    -0.480 OA
ATOM     33  H   LIG A   1      -6.155   1.633 123.510  0.00  0.00    +0.295 HD
ENDBRANCH  30  32
ENDBRANCH  18  30
BRANCH  10  34
ATOM     34  O   LIG A   1      -7.453  -1.578 133.737  0.00  0.00    -0.388 OA
ATOM     35  H   LIG A   1      -7.460  -1.228 132.830  0.00  0.00    +0.210 HD
ENDBRANCH  10  34
BRANCH   9  36
ATOM     36  O   LIG A   1      -5.558  -4.593 134.645  0.00  0.00    -0.455 OA
BRANCH  36  37
ATOM     37  C   LIG A   1      -5.474  -4.753 135.989  0.00  0.00    +0.332 C 
ATOM     38  O   LIG A   1      -4.452  -5.017 136.635  0.00  0.00    -0.246 OA
BRANCH  37  39
ATOM     39  C   LIG A   1      -6.803  -4.653 136.586  0.00  0.00    +0.092 C 
ATOM     40  C   LIG A   1      -7.731  -5.568 136.261  0.00  0.00    +0.015 C 
BRANCH  40  41
ATOM     41  C   LIG A   1      -9.041  -5.530 136.887  0.00  0.00    -0.025 A 
ATOM     42  C   LIG A   1      -9.862  -6.662 136.869  0.00  0.00    +0.011 A 
ATOM     43  C   LIG A   1     -11.137  -6.603 137.426  0.00  0.00    +0.046 A 
ATOM     44  C   LIG A   1     -11.580  -5.411 137.997  0.00  0.00    +0.117 A 
ATOM     45  C   LIG A   1     -10.770  -4.281 138.021  0.00  0.00    +0.046 A 
ATOM     46  C   LIG A   1      -9.495  -4.340 137.464  0.00  0.00    +0.011 A 
BRANCH  44  47
ATOM     47  O   LIG A   1     -12.822  -5.312 138.548  0.00  0.00    -0.507 OA
ATOM     48  H   LIG A   1     -13.454  -5.096 137.842  0.00  0.00    +0.292 HD
ENDBRANCH  44  47
ENDBRANCH  40  41
ENDBRANCH  37  39
ENDBRANCH  36  37
ENDBRANCH   9  36
TORSDOF 8
ENDMDL
MODEL 6
REMARK VINA RESULT:      -9.6      7.001      9.181
REMARK  Name = NuBBE_388
REMARK  15 active torsions:
REMARK  status: ('A' for Active; 'I' for Inactive)
REMARK    1  A    between atoms: C_1  and  C_2
REMARK    2  A    between atoms: C_3  and  C_47
REMARK    3  A    between atoms: C_7  and  C_8
REMARK    4  A    between atoms: C_7  and  C_46
REMARK    5  A    between atoms: C_9  and  O_34
REMARK    6  A    between atoms: C_11  and  O_33
REMARK    7  A    between atoms: C_14  and  C_32
REMARK    8  A    between atoms: C_20  and  C_21
REMARK    9  A    between atoms: C_21  and  O_22
REMARK   10  A    between atoms: C_28  and  C_29
REMARK   11  A    between atoms: C_28  and  C_31
REMARK   12  A    between atoms: O_34  and  C_35
REMARK   13  A    between atoms: C_35  and  C_36
REMARK   14  A    between atoms: C_37  and  C_38
REMARK   15  A    between atoms: C_41  and  O_44
REMARK                            x       y       z     vdW  Elec       q    Type
REMARK                         _______ _______ _______ _____ _____    ______ ____
ROOT
ATOM      1  C   LIG A   1      -7.140   0.540 128.735  0.00  0.00    +0.016 C 
ATOM      2  C   LIG A   1      -6.508  -0.643 127.930  0.00  0.00    -0.005 C 
ATOM      3  C   LIG A   1      -5.710  -1.694 128.883  0.00  0.00    -0.019 C 
ATOM      4  C   LIG A   1      -4.545  -0.992 129.626  0.00  0.00    +0.008 C 
ATOM      5  C   LIG A   1      -3.961  -1.779 130.795  0.00  0.00    +0.005 C 
ATOM      6  C   LIG A   1      -5.054  -2.130 131.823  0.00  0.00    +0.004 C 
ATOM      7  C   LIG A   1      -4.488  -2.583 133.219  0.00  0.00    +0.008 C 
ATOM      8  C   LIG A   1      -3.355  -3.633 133.088  0.00  0.00    +0.015 C 
ATOM      9  C   LIG A   1      -5.645  -3.034 134.183  0.00  0.00    +0.211 C 
ATOM     10  C   LIG A   1      -7.069  -2.812 133.641  0.00  0.00    +0.156 C 
ATOM     11  C   LIG A   1      -7.322  -3.271 132.204  0.00  0.00    +0.042 C 
ATOM     12  C   LIG A   1      -6.154  -3.050 131.182  0.00  0.00    -0.023 C 
ATOM     13  C   LIG A   1      -6.740  -2.278 129.918  0.00  0.00    +0.006 C 
ATOM     14  C   LIG A   1      -7.897  -2.993 129.182  0.00  0.00    +0.031 C 
ATOM     15  C   LIG A   1      -8.317  -2.359 127.883  0.00  0.00    -0.026 C 
ATOM     16  C   LIG A   1      -7.703  -1.339 127.243  0.00  0.00    -0.063 C 
ATOM     17  C   LIG A   1      -8.260  -0.725 125.937  0.00  0.00    +0.033 C 
ATOM     18  C   LIG A   1      -7.192  -0.082 124.994  0.00  0.00    +0.074 C 
ATOM     19  C   LIG A   1      -6.181   0.769 125.791  0.00  0.00    +0.019 C 
ATOM     20  C   LIG A   1      -5.517  -0.008 126.916  0.00  0.00    +0.012 C 
ATOM     21  C   LIG A   1      -6.448  -1.178 124.191  0.00  0.00    +0.019 C 
ATOM     22  C   LIG A   1      -7.371  -2.086 123.378  0.00  0.00    +0.007 C 
ATOM     23  C   LIG A   1      -8.508  -2.715 124.205  0.00  0.00    -0.034 C 
ATOM     24  C   LIG A   1      -9.562  -3.292 123.234  0.00  0.00    +0.011 C 
ATOM     25  C   LIG A   1      -9.197  -1.642 125.088  0.00  0.00    +0.015 C 
ATOM     26  C   LIG A   1      -7.959  -3.899 125.019  0.00  0.00    +0.011 C 
ATOM     27  C   LIG A   1      -5.608  -4.444 130.794  0.00  0.00    +0.012 C 
ATOM     28  C   LIG A   1      -3.820  -1.350 133.900  0.00  0.00    +0.015 C 
ATOM     29  C   LIG A   1      -5.084  -2.830 128.010  0.00  0.00    +0.012 C 
ENDROOT
BRANCH  18  30
ATOM     30  C   LIG A   1      -7.887   0.916 124.052  0.00  0.00    +0.311 C 
ATOM     31  O   LIG A   1      -9.017   1.360 124.168  0.00  0.00    -0.250 OA
BRANCH  30  32
ATOM     32  O   LIG A   1      -7.108   1.361 123.046  0.00  0.00    -0.480 OA
ATOM     33  H   LIG A   1      -6.586   2.086 123.450  0.00  0.00    +0.295 HD
ENDBRANCH  30  32
ENDBRANCH  18  30
BRANCH  10  34
ATOM     34  O   LIG A   1      -7.390  -1.410 133.697  0.00  0.00    -0.388 OA
ATOM     35  H   LIG A   1      -6.841  -1.007 134.390  0.00  0.00    +0.210 HD
ENDBRANCH  10  34
BRANCH   9  36
ATOM     36  O   LIG A   1      -5.453  -4.394 134.618  0.00  0.00    -0.455 OA
BRANCH  36  37
ATOM     37  C   LIG A   1      -5.479  -4.549 135.965  0.00  0.00    +0.332 C 
ATOM     38  O   LIG A   1      -6.450  -4.902 136.645  0.00  0.00    -0.246 OA
BRANCH  37  39
ATOM     39  C   LIG A   1      -4.196  -4.149 136.536  0.00  0.00    +0.092 C 
ATOM     40  C   LIG A   1      -3.109  -4.894 136.274  0.00  0.00    +0.015 C 
BRANCH  40  41
ATOM     41  C   LIG A   1      -1.809  -4.485 136.777  0.00  0.00    -0.025 A 
ATOM     42  C   LIG A   1      -0.909  -3.819 135.940  0.00  0.00    +0.011 A 
ATOM     43  C   LIG A   1       0.356  -3.476 136.414  0.00  0.00    +0.046 A 
ATOM     44  C   LIG A   1       0.707  -3.803 137.722  0.00  0.00    +0.117 A 
ATOM     45  C   LIG A   1      -0.182  -4.463 138.562  0.00  0.00    +0.046 A 
ATOM     46  C   LIG A   1      -1.446  -4.806 138.089  0.00  0.00    +0.011 A 
BRANCH  44  47
ATOM     47  O   LIG A   1       1.936  -3.488 138.220  0.00  0.00    -0.507 OA
ATOM     48  H   LIG A   1       2.001  -3.845 139.122  0.00  0.00    +0.292 HD
ENDBRANCH  44  47
ENDBRANCH  40  41
ENDBRANCH  37  39
ENDBRANCH  36  37
ENDBRANCH   9  36
TORSDOF 8
ENDMDL
MODEL 7
REMARK VINA RESULT:      -9.6      2.212      3.660
REMARK  Name = NuBBE_388
REMARK  15 active torsions:
REMARK  status: ('A' for Active; 'I' for Inactive)
REMARK    1  A    between atoms: C_1  and  C_2
REMARK    2  A    between atoms: C_3  and  C_47
REMARK    3  A    between atoms: C_7  and  C_8
REMARK    4  A    between atoms: C_7  and  C_46
REMARK    5  A    between atoms: C_9  and  O_34
REMARK    6  A    between atoms: C_11  and  O_33
REMARK    7  A    between atoms: C_14  and  C_32
REMARK    8  A    between atoms: C_20  and  C_21
REMARK    9  A    between atoms: C_21  and  O_22
REMARK   10  A    between atoms: C_28  and  C_29
REMARK   11  A    between atoms: C_28  and  C_31
REMARK   12  A    between atoms: O_34  and  C_35
REMARK   13  A    between atoms: C_35  and  C_36
REMARK   14  A    between atoms: C_37  and  C_38
REMARK   15  A    between atoms: C_41  and  O_44
REMARK                            x       y       z     vdW  Elec       q    Type
REMARK                         _______ _______ _______ _____ _____    ______ ____
ROOT
ATOM      1  C   LIG A   1      -8.334   4.311 126.012  0.00  0.00    +0.016 C 
ATOM      2  C   LIG A   1      -7.354   3.108 125.807  0.00  0.00    -0.005 C 
ATOM      3  C   LIG A   1      -5.940   3.313 126.587  0.00  0.00    -0.019 C 
ATOM      4  C   LIG A   1      -5.203   4.576 126.073  0.00  0.00    +0.008 C 
ATOM      5  C   LIG A   1      -4.059   5.058 126.961  0.00  0.00    +0.005 C 
ATOM      6  C   LIG A   1      -4.552   5.330 128.395  0.00  0.00    +0.004 C 
ATOM      7  C   LIG A   1      -3.553   6.188 129.255  0.00  0.00    +0.008 C 
ATOM      8  C   LIG A   1      -2.093   5.679 129.153  0.00  0.00    +0.015 C 
ATOM      9  C   LIG A   1      -4.059   6.334 130.737  0.00  0.00    +0.211 C 
ATOM     10  C   LIG A   1      -5.458   5.752 131.008  0.00  0.00    +0.156 C 
ATOM     11  C   LIG A   1      -5.723   4.350 130.459  0.00  0.00    +0.042 C 
ATOM     12  C   LIG A   1      -5.098   4.016 129.061  0.00  0.00    -0.023 C 
ATOM     13  C   LIG A   1      -6.256   3.454 128.121  0.00  0.00    +0.006 C 
ATOM     14  C   LIG A   1      -6.977   2.189 128.642  0.00  0.00    +0.031 C 
ATOM     15  C   LIG A   1      -7.933   1.552 127.669  0.00  0.00    -0.026 C 
ATOM     16  C   LIG A   1      -8.107   1.884 126.370  0.00  0.00    -0.063 C 
ATOM     17  C   LIG A   1      -9.165   1.196 125.475  0.00  0.00    +0.033 C 
ATOM     18  C   LIG A   1      -8.831   1.169 123.948  0.00  0.00    +0.074 C 
ATOM     19  C   LIG A   1      -8.288   2.531 123.469  0.00  0.00    +0.019 C 
ATOM     20  C   LIG A   1      -7.093   3.006 124.280  0.00  0.00    +0.012 C 
ATOM     21  C   LIG A   1      -7.805   0.049 123.639  0.00  0.00    +0.019 C 
ATOM     22  C   LIG A   1      -8.249  -1.342 124.092  0.00  0.00    +0.007 C 
ATOM     23  C   LIG A   1      -8.672  -1.406 125.572  0.00  0.00    -0.034 C 
ATOM     24  C   LIG A   1      -9.432  -2.729 125.810  0.00  0.00    +0.011 C 
ATOM     25  C   LIG A   1      -9.623  -0.230 125.918  0.00  0.00    +0.015 C 
ATOM     26  C   LIG A   1      -7.420  -1.446 126.465  0.00  0.00    +0.011 C 
ATOM     27  C   LIG A   1      -3.989   2.962 129.288  0.00  0.00    +0.012 C 
ATOM     28  C   LIG A   1      -3.520   7.633 128.671  0.00  0.00    +0.015 C 
ATOM     29  C   LIG A   1      -5.005   2.089 126.316  0.00  0.00    +0.012 C 
ENDROOT
BRANCH  18  30
ATOM     30  C   LIG A   1     -10.130   0.962 123.151  0.00  0.00    +0.311 C 
ATOM     31  O   LIG A   1     -10.244   0.385 122.082  0.00  0.00    -0.250 OA
BRANCH  30  32
ATOM     32  O   LIG A   1     -11.236   1.430 123.764  0.00  0.00    -0.480 OA
ATOM     33  H   LIG A   1     -10.893   1.881 124.564  0.00  0.00    +0.295 HD
ENDBRANCH  30  32
ENDBRANCH  18  30
BRANCH  10  34
ATOM     34  O   LIG A   1      -6.457   6.620 130.443  0.00  0.00    -0.388 OA
ATOM     35  H   LIG A   1      -7.259   6.545 130.988  0.00  0.00    +0.210 HD
ENDBRANCH  10  34
BRANCH   9  36
ATOM     36  O   LIG A   1      -3.085   5.821 131.667  0.00  0.00    -0.455 OA
BRANCH  36  37
ATOM     37  C   LIG A   1      -2.911   6.598 132.764  0.00  0.00    +0.332 C 
ATOM     38  O   LIG A   1      -1.925   7.299 133.020  0.00  0.00    -0.246 OA
BRANCH  37  39
ATOM     39  C   LIG A   1      -4.039   6.430 133.677  0.00  0.00    +0.092 C 
ATOM     40  C   LIG A   1      -3.927   6.878 134.938  0.00  0.00    +0.015 C 
BRANCH  40  41
ATOM     41  C   LIG A   1      -5.054   6.780 135.848  0.00  0.00    -0.025 A 
ATOM     42  C   LIG A   1      -6.073   5.853 135.609  0.00  0.00    +0.011 A 
ATOM     43  C   LIG A   1      -7.177   5.800 136.458  0.00  0.00    +0.046 A 
ATOM     44  C   LIG A   1      -7.250   6.676 137.539  0.00  0.00    +0.117 A 
ATOM     45  C   LIG A   1      -6.241   7.600 137.786  0.00  0.00    +0.046 A 
ATOM     46  C   LIG A   1      -5.138   7.653 136.938  0.00  0.00    +0.011 A 
BRANCH  44  47
ATOM     47  O   LIG A   1      -8.315   6.658 138.389  0.00  0.00    -0.507 OA
ATOM     48  H   LIG A   1      -7.980   6.704 139.300  0.00  0.00    +0.292 HD
ENDBRANCH  44  47
ENDBRANCH  40  41
ENDBRANCH  37  39
ENDBRANCH  36  37
ENDBRANCH   9  36
TORSDOF 8
ENDMDL
MODEL 8
REMARK VINA RESULT:      -9.3      3.569     11.165
REMARK  Name = NuBBE_388
REMARK  15 active torsions:
REMARK  status: ('A' for Active; 'I' for Inactive)
REMARK    1  A    between atoms: C_1  and  C_2
REMARK    2  A    between atoms: C_3  and  C_47
REMARK    3  A    between atoms: C_7  and  C_8
REMARK    4  A    between atoms: C_7  and  C_46
REMARK    5  A    between atoms: C_9  and  O_34
REMARK    6  A    between atoms: C_11  and  O_33
REMARK    7  A    between atoms: C_14  and  C_32
REMARK    8  A    between atoms: C_20  and  C_21
REMARK    9  A    between atoms: C_21  and  O_22
REMARK   10  A    between atoms: C_28  and  C_29
REMARK   11  A    between atoms: C_28  and  C_31
REMARK   12  A    between atoms: O_34  and  C_35
REMARK   13  A    between atoms: C_35  and  C_36
REMARK   14  A    between atoms: C_37  and  C_38
REMARK   15  A    between atoms: C_41  and  O_44
REMARK                            x       y       z     vdW  Elec       q    Type
REMARK                         _______ _______ _______ _____ _____    ______ ____
ROOT
ATOM      1  C   LIG A   1      -2.485   3.885 133.230  0.00  0.00    +0.016 C 
ATOM      2  C   LIG A   1      -3.525   5.054 133.195  0.00  0.00    -0.005 C 
ATOM      3  C   LIG A   1      -4.212   5.237 131.731  0.00  0.00    -0.019 C 
ATOM      4  C   LIG A   1      -3.144   5.564 130.656  0.00  0.00    +0.008 C 
ATOM      5  C   LIG A   1      -3.615   5.408 129.213  0.00  0.00    +0.005 C 
ATOM      6  C   LIG A   1      -4.145   3.985 128.958  0.00  0.00    +0.004 C 
ATOM      7  C   LIG A   1      -4.279   3.624 127.433  0.00  0.00    +0.008 C 
ATOM      8  C   LIG A   1      -4.984   4.738 126.618  0.00  0.00    +0.015 C 
ATOM      9  C   LIG A   1      -4.929   2.205 127.238  0.00  0.00    +0.211 C 
ATOM     10  C   LIG A   1      -5.164   1.413 128.537  0.00  0.00    +0.156 C 
ATOM     11  C   LIG A   1      -5.821   2.180 129.685  0.00  0.00    +0.042 C 
ATOM     12  C   LIG A   1      -5.393   3.678 129.861  0.00  0.00    -0.023 C 
ATOM     13  C   LIG A   1      -4.947   3.894 131.375  0.00  0.00    +0.006 C 
ATOM     14  C   LIG A   1      -6.025   3.571 132.436  0.00  0.00    +0.031 C 
ATOM     15  C   LIG A   1      -5.668   3.956 133.847  0.00  0.00    -0.026 C 
ATOM     16  C   LIG A   1      -4.589   4.668 134.245  0.00  0.00    -0.063 C 
ATOM     17  C   LIG A   1      -4.291   4.955 135.735  0.00  0.00    +0.033 C 
ATOM     18  C   LIG A   1      -3.479   6.262 136.012  0.00  0.00    +0.074 C 
ATOM     19  C   LIG A   1      -2.306   6.414 135.022  0.00  0.00    +0.019 C 
ATOM     20  C   LIG A   1      -2.750   6.346 133.570  0.00  0.00    +0.012 C 
ATOM     21  C   LIG A   1      -4.405   7.502 135.933  0.00  0.00    +0.019 C 
ATOM     22  C   LIG A   1      -5.611   7.437 136.871  0.00  0.00    +0.007 C 
ATOM     23  C   LIG A   1      -6.440   6.147 136.728  0.00  0.00    -0.034 C 
ATOM     24  C   LIG A   1      -7.381   6.028 137.946  0.00  0.00    +0.011 C 
ATOM     25  C   LIG A   1      -5.512   4.903 136.707  0.00  0.00    +0.015 C 
ATOM     26  C   LIG A   1      -7.336   6.246 135.482  0.00  0.00    +0.011 C 
ATOM     27  C   LIG A   1      -6.616   4.555 129.500  0.00  0.00    +0.012 C 
ATOM     28  C   LIG A   1      -2.847   3.524 126.825  0.00  0.00    +0.015 C 
ATOM     29  C   LIG A   1      -5.216   6.436 131.765  0.00  0.00    +0.012 C 
ENDROOT
BRANCH  18  30
ATOM     30  C   LIG A   1      -2.814   6.159 137.395  0.00  0.00    +0.311 C 
ATOM     31  O   LIG A   1      -2.684   7.058 138.209  0.00  0.00    -0.250 OA
BRANCH  30  32
ATOM     32  O   LIG A   1      -2.403   4.916 137.720  0.00  0.00    -0.480 OA
ATOM     33  H   LIG A   1      -1.666   5.065 138.349  0.00  0.00    +0.295 HD
ENDBRANCH  30  32
ENDBRANCH  18  30
BRANCH  10  34
ATOM     34  O   LIG A   1      -3.907   0.915 129.030  0.00  0.00    -0.388 OA
ATOM     35  H   LIG A   1      -3.894   1.045 129.994  0.00  0.00    +0.210 HD
ENDBRANCH  10  34
BRANCH   9  36
ATOM     36  O   LIG A   1      -6.132   2.293 126.450  0.00  0.00    -0.455 OA
BRANCH  36  37
ATOM     37  C   LIG A   1      -6.355   1.208 125.667  0.00  0.00    +0.332 C 
ATOM     38  O   LIG A   1      -6.189   0.025 125.986  0.00  0.00    -0.246 OA
BRANCH  37  39
ATOM     39  C   LIG A   1      -6.748   1.635 124.327  0.00  0.00    +0.092 C 
ATOM     40  C   LIG A   1      -6.517   2.906 123.956  0.00  0.00    +0.015 C 
BRANCH  40  41
ATOM     41  C   LIG A   1      -6.840   3.341 122.609  0.00  0.00    -0.025 A 
ATOM     42  C   LIG A   1      -8.163   3.306 122.157  0.00  0.00    +0.011 A 
ATOM     43  C   LIG A   1      -8.458   3.676 120.846  0.00  0.00    +0.046 A 
ATOM     44  C   LIG A   1      -7.426   4.078 120.000  0.00  0.00    +0.117 A 
ATOM     45  C   LIG A   1      -6.108   4.117 120.441  0.00  0.00    +0.046 A 
ATOM     46  C   LIG A   1      -5.812   3.747 121.751  0.00  0.00    +0.011 A 
BRANCH  44  47
ATOM     47  O   LIG A   1      -7.673   4.443 118.711  0.00  0.00    -0.507 OA
ATOM     48  H   LIG A   1      -6.825   4.635 118.278  0.00  0.00    +0.292 HD
ENDBRANCH  44  47
ENDBRANCH  40  41
ENDBRANCH  37  39
ENDBRANCH  36  37
ENDBRANCH   9  36
TORSDOF 8
ENDMDL
MODEL 9
REMARK VINA RESULT:      -9.1      2.473      4.660
REMARK  Name = NuBBE_388
REMARK  15 active torsions:
REMARK  status: ('A' for Active; 'I' for Inactive)
REMARK    1  A    between atoms: C_1  and  C_2
REMARK    2  A    between atoms: C_3  and  C_47
REMARK    3  A    between atoms: C_7  and  C_8
REMARK    4  A    between atoms: C_7  and  C_46
REMARK    5  A    between atoms: C_9  and  O_34
REMARK    6  A    between atoms: C_11  and  O_33
REMARK    7  A    between atoms: C_14  and  C_32
REMARK    8  A    between atoms: C_20  and  C_21
REMARK    9  A    between atoms: C_21  and  O_22
REMARK   10  A    between atoms: C_28  and  C_29
REMARK   11  A    between atoms: C_28  and  C_31
REMARK   12  A    between atoms: O_34  and  C_35
REMARK   13  A    between atoms: C_35  and  C_36
REMARK   14  A    between atoms: C_37  and  C_38
REMARK   15  A    between atoms: C_41  and  O_44
REMARK                            x       y       z     vdW  Elec       q    Type
REMARK                         _______ _______ _______ _____ _____    ______ ____
ROOT
ATOM      1  C   LIG A   1      -8.151   4.590 126.094  0.00  0.00    +0.016 C 
ATOM      2  C   LIG A   1      -7.171   3.382 125.931  0.00  0.00    -0.005 C 
ATOM      3  C   LIG A   1      -5.796   3.573 126.781  0.00  0.00    -0.019 C 
ATOM      4  C   LIG A   1      -5.026   4.833 126.310  0.00  0.00    +0.008 C 
ATOM      5  C   LIG A   1      -3.924   5.303 127.256  0.00  0.00    +0.005 C 
ATOM      6  C   LIG A   1      -4.485   5.571 128.664  0.00  0.00    +0.004 C 
ATOM      7  C   LIG A   1      -3.524   6.419 129.577  0.00  0.00    +0.008 C 
ATOM      8  C   LIG A   1      -2.064   5.900 129.545  0.00  0.00    +0.015 C 
ATOM      9  C   LIG A   1      -4.101   6.562 131.033  0.00  0.00    +0.211 C 
ATOM     10  C   LIG A   1      -5.515   5.988 131.233  0.00  0.00    +0.156 C 
ATOM     11  C   LIG A   1      -5.763   4.590 130.664  0.00  0.00    +0.042 C 
ATOM     12  C   LIG A   1      -5.072   4.259 129.296  0.00  0.00    -0.023 C 
ATOM     13  C   LIG A   1      -6.185   3.709 128.298  0.00  0.00    +0.006 C 
ATOM     14  C   LIG A   1      -6.940   2.447 128.776  0.00  0.00    +0.031 C 
ATOM     15  C   LIG A   1      -7.851   1.821 127.755  0.00  0.00    -0.026 C 
ATOM     16  C   LIG A   1      -7.959   2.160 126.450  0.00  0.00    -0.063 C 
ATOM     17  C   LIG A   1      -8.977   1.484 125.501  0.00  0.00    +0.033 C 
ATOM     18  C   LIG A   1      -8.568   1.462 123.992  0.00  0.00    +0.074 C 
ATOM     19  C   LIG A   1      -7.993   2.822 123.547  0.00  0.00    +0.019 C 
ATOM     20  C   LIG A   1      -6.836   3.285 124.418  0.00  0.00    +0.012 C 
ATOM     21  C   LIG A   1      -7.536   0.336 123.728  0.00  0.00    +0.019 C 
ATOM     22  C   LIG A   1      -8.011  -1.054 124.152  0.00  0.00    +0.007 C 
ATOM     23  C   LIG A   1      -8.507  -1.122 125.609  0.00  0.00    -0.034 C 
ATOM     24  C   LIG A   1      -9.287  -2.440 125.803  0.00  0.00    +0.011 C 
ATOM     25  C   LIG A   1      -9.466   0.060 125.914  0.00  0.00    +0.015 C 
ATOM     26  C   LIG A   1      -7.301  -1.174 126.563  0.00  0.00    +0.011 C 
ATOM     27  C   LIG A   1      -3.983   3.195 129.573  0.00  0.00    +0.012 C 
ATOM     28  C   LIG A   1      -3.451   7.866 129.003  0.00  0.00    +0.015 C 
ATOM     29  C   LIG A   1      -4.857   2.344 126.550  0.00  0.00    +0.012 C 
ENDROOT
BRANCH  18  30
ATOM     30  C   LIG A   1      -9.828   1.268 123.131  0.00  0.00    +0.311 C 
ATOM     31  O   LIG A   1     -10.898   0.813 123.500  0.00  0.00    -0.250 OA
BRANCH  30  32
ATOM     32  O   LIG A   1      -9.707   1.717 121.866  0.00  0.00    -0.480 OA
ATOM     33  H   LIG A   1     -10.193   1.054 121.330  0.00  0.00    +0.295 HD
ENDBRANCH  30  32
ENDBRANCH  18  30
BRANCH  10  34
ATOM     34  O   LIG A   1      -6.479   6.866 130.623  0.00  0.00    -0.388 OA
ATOM     35  H   LIG A   1      -7.142   6.313 130.175  0.00  0.00    +0.210 HD
ENDBRANCH  10  34
BRANCH   9  36
ATOM     36  O   LIG A   1      -3.178   6.037 132.007  0.00  0.00    -0.455 OA
BRANCH  36  37
ATOM     37  C   LIG A   1      -3.575   6.215 133.292  0.00  0.00    +0.332 C 
ATOM     38  O   LIG A   1      -3.719   7.297 133.873  0.00  0.00    -0.246 OA
BRANCH  37  39
ATOM     39  C   LIG A   1      -3.733   4.919 133.947  0.00  0.00    +0.092 C 
ATOM     40  C   LIG A   1      -3.346   3.811 133.295  0.00  0.00    +0.015 C 
BRANCH  40  41
ATOM     41  C   LIG A   1      -3.434   2.515 133.946  0.00  0.00    -0.025 A 
ATOM     42  C   LIG A   1      -3.048   1.358 133.263  0.00  0.00    +0.011 A 
ATOM     43  C   LIG A   1      -3.184   0.114 133.876  0.00  0.00    +0.046 A 
ATOM     44  C   LIG A   1      -3.703   0.040 135.167  0.00  0.00    +0.117 A 
ATOM     45  C   LIG A   1      -4.087   1.186 135.854  0.00  0.00    +0.046 A 
ATOM     46  C   LIG A   1      -3.952   2.430 135.242  0.00  0.00    +0.011 A 
BRANCH  44  47
ATOM     47  O   LIG A   1      -3.854  -1.158 135.799  0.00  0.00    -0.507 OA
ATOM     48  H   LIG A   1      -3.387  -1.837 135.284  0.00  0.00    +0.292 HD
ENDBRANCH  44  47
ENDBRANCH  40  41
ENDBRANCH  37  39
ENDBRANCH  36  37
ENDBRANCH   9  36
TORSDOF 8
ENDMDL
