MODEL 1
REMARK VINA RESULT:      -9.7      0.000      0.000
REMARK  Name = NuBBE_1321
REMARK  3 active torsions:
REMARK  status: ('A' for Active; 'I' for Inactive)
REMARK    1  A    between atoms: C_4  and  C_5
REMARK    2  A    between atoms: C_20  and  C_21
REMARK    3  A    between atoms: C_20  and  C_22
REMARK                            x       y       z     vdW  Elec       q    Type
REMARK                         _______ _______ _______ _____ _____    ______ ____
ROOT
ATOM      1  O   LIG A   1      -8.728   5.220 133.925  0.00  0.00    -0.287 OA
ATOM      2  C   LIG A   1      -8.574   5.723 132.821  0.00  0.00    +0.193 A 
ATOM      3  C   LIG A   1      -7.236   5.823 132.218  0.00  0.00    +0.098 A 
ATOM      4  C   LIG A   1      -7.109   6.370 131.002  0.00  0.00    +0.139 A 
ATOM      5  O   LIG A   1      -8.164   6.874 130.259  0.00  0.00    -0.454 OA
ATOM      6  C   LIG A   1      -9.695   6.252 132.031  0.00  0.00    +0.065 A 
ATOM      7  C   LIG A   1      -9.438   6.809 130.777  0.00  0.00    +0.150 A 
ATOM      8  C   LIG A   1     -10.495   7.323 130.006  0.00  0.00    +0.059 A 
ATOM      9  C   LIG A   1     -10.279   7.908 128.687  0.00  0.00    +0.015 C 
ATOM     10  C   LIG A   1     -11.330   8.417 128.040  0.00  0.00    +0.020 C 
ATOM     11  C   LIG A   1     -12.732   8.417 128.600  0.00  0.00    +0.123 C 
ATOM     12  C   LIG A   1     -13.193   9.862 128.822  0.00  0.00    +0.060 C 
ATOM     13  C   LIG A   1     -13.673   7.722 127.608  0.00  0.00    +0.060 C 
ATOM     14  O   LIG A   1     -12.901   7.731 129.858  0.00  0.00    -0.481 OA
ATOM     15  C   LIG A   1     -11.797   7.269 130.518  0.00  0.00    +0.132 A 
ATOM     16  C   LIG A   1     -12.047   6.706 131.773  0.00  0.00    +0.047 A 
ATOM     17  C   LIG A   1     -10.997   6.197 132.534  0.00  0.00    +0.019 A 
ENDROOT
BRANCH   4  18
ATOM     18  C   LIG A   1      -5.794   6.510 130.345  0.00  0.00    +0.021 A 
ATOM     19  C   LIG A   1      -5.288   5.454 129.569  0.00  0.00    +0.061 A 
ATOM     20  C   LIG A   1      -4.050   5.606 128.979  0.00  0.00    +0.167 A 
ATOM     21  C   LIG A   1      -3.308   6.752 129.136  0.00  0.00    +0.166 A 
ATOM     22  O   LIG A   1      -2.122   6.698 128.474  0.00  0.00    -0.453 OA
ATOM     23  C   LIG A   1      -2.202   5.385 127.881  0.00  0.00    +0.466 C 
ATOM     24  O   LIG A   1      -3.423   4.686 128.199  0.00  0.00    -0.453 OA
ATOM     25  C   LIG A   1      -3.761   7.808 129.894  0.00  0.00    +0.050 A 
ATOM     26  C   LIG A   1      -5.013   7.682 130.506  0.00  0.00    +0.015 A 
ENDBRANCH   4  18
TORSDOF 1
ENDMDL
MODEL 2
REMARK VINA RESULT:      -9.1      8.429     10.106
REMARK  Name = NuBBE_1321
REMARK  3 active torsions:
REMARK  status: ('A' for Active; 'I' for Inactive)
REMARK    1  A    between atoms: C_4  and  C_5
REMARK    2  A    between atoms: C_20  and  C_21
REMARK    3  A    between atoms: C_20  and  C_22
REMARK                            x       y       z     vdW  Elec       q    Type
REMARK                         _______ _______ _______ _____ _____    ______ ____
ROOT
ATOM      1  O   LIG A   1      -8.159   3.792 126.750  0.00  0.00    -0.287 OA
ATOM      2  C   LIG A   1      -7.878   3.173 125.733  0.00  0.00    +0.193 A 
ATOM      3  C   LIG A   1      -7.358   3.869 124.547  0.00  0.00    +0.098 A 
ATOM      4  C   LIG A   1      -7.051   3.155 123.455  0.00  0.00    +0.139 A 
ATOM      5  O   LIG A   1      -7.206   1.782 123.352  0.00  0.00    -0.454 OA
ATOM      6  C   LIG A   1      -8.037   1.715 125.627  0.00  0.00    +0.065 A 
ATOM      7  C   LIG A   1      -7.692   1.080 124.432  0.00  0.00    +0.150 A 
ATOM      8  C   LIG A   1      -7.839  -0.311 124.308  0.00  0.00    +0.059 A 
ATOM      9  C   LIG A   1      -7.485  -1.022 123.084  0.00  0.00    +0.015 C 
ATOM     10  C   LIG A   1      -7.699  -2.339 123.031  0.00  0.00    +0.020 C 
ATOM     11  C   LIG A   1      -8.285  -3.133 124.174  0.00  0.00    +0.123 C 
ATOM     12  C   LIG A   1      -9.639  -3.714 123.750  0.00  0.00    +0.060 C 
ATOM     13  C   LIG A   1      -7.327  -4.273 124.541  0.00  0.00    +0.060 C 
ATOM     14  O   LIG A   1      -8.514  -2.397 125.392  0.00  0.00    -0.481 OA
ATOM     15  C   LIG A   1      -8.335  -1.041 125.395  0.00  0.00    +0.132 A 
ATOM     16  C   LIG A   1      -8.675  -0.399 126.590  0.00  0.00    +0.047 A 
ATOM     17  C   LIG A   1      -8.528   0.981 126.709  0.00  0.00    +0.019 A 
ENDROOT
BRANCH   4  18
ATOM     18  C   LIG A   1      -6.535   3.793 122.228  0.00  0.00    +0.021 A 
ATOM     19  C   LIG A   1      -7.321   3.799 121.064  0.00  0.00    +0.061 A 
ATOM     20  C   LIG A   1      -6.808   4.390 119.927  0.00  0.00    +0.167 A 
ATOM     21  C   LIG A   1      -5.559   4.962 119.908  0.00  0.00    +0.166 A 
ATOM     22  O   LIG A   1      -5.245   5.486 118.694  0.00  0.00    -0.453 OA
ATOM     23  C   LIG A   1      -6.442   5.180 117.949  0.00  0.00    +0.466 C 
ATOM     24  O   LIG A   1      -7.438   4.483 118.726  0.00  0.00    -0.453 OA
ATOM     25  C   LIG A   1      -4.751   4.971 121.023  0.00  0.00    +0.050 A 
ATOM     26  C   LIG A   1      -5.244   4.378 122.191  0.00  0.00    +0.015 A 
ENDBRANCH   4  18
TORSDOF 1
ENDMDL
MODEL 3
REMARK VINA RESULT:      -9.0      8.141     10.236
REMARK  Name = NuBBE_1321
REMARK  3 active torsions:
REMARK  status: ('A' for Active; 'I' for Inactive)
REMARK    1  A    between atoms: C_4  and  C_5
REMARK    2  A    between atoms: C_20  and  C_21
REMARK    3  A    between atoms: C_20  and  C_22
REMARK                            x       y       z     vdW  Elec       q    Type
REMARK                         _______ _______ _______ _____ _____    ______ ____
ROOT
ATOM      1  O   LIG A   1      -9.809  -2.339 123.255  0.00  0.00    -0.287 OA
ATOM      2  C   LIG A   1      -9.048  -1.686 123.956  0.00  0.00    +0.193 A 
ATOM      3  C   LIG A   1      -8.434  -0.448 123.453  0.00  0.00    +0.098 A 
ATOM      4  C   LIG A   1      -7.615   0.246 124.255  0.00  0.00    +0.139 A 
ATOM      5  O   LIG A   1      -7.282  -0.133 125.544  0.00  0.00    -0.454 OA
ATOM      6  C   LIG A   1      -8.699  -2.086 125.328  0.00  0.00    +0.065 A 
ATOM      7  C   LIG A   1      -7.824  -1.286 126.065  0.00  0.00    +0.150 A 
ATOM      8  C   LIG A   1      -7.475  -1.651 127.377  0.00  0.00    +0.059 A 
ATOM      9  C   LIG A   1      -6.572  -0.844 128.191  0.00  0.00    +0.015 C 
ATOM     10  C   LIG A   1      -6.254  -1.285 129.411  0.00  0.00    +0.020 C 
ATOM     11  C   LIG A   1      -6.783  -2.574 129.993  0.00  0.00    +0.123 C 
ATOM     12  C   LIG A   1      -5.619  -3.546 130.221  0.00  0.00    +0.060 C 
ATOM     13  C   LIG A   1      -7.476  -2.278 131.329  0.00  0.00    +0.060 C 
ATOM     14  O   LIG A   1      -7.753  -3.272 129.186  0.00  0.00    -0.481 OA
ATOM     15  C   LIG A   1      -8.015  -2.822 127.922  0.00  0.00    +0.132 A 
ATOM     16  C   LIG A   1      -8.893  -3.615 127.179  0.00  0.00    +0.047 A 
ATOM     17  C   LIG A   1      -9.237  -3.251 125.878  0.00  0.00    +0.019 A 
ENDROOT
BRANCH   4  18
ATOM     18  C   LIG A   1      -6.960   1.491 123.807  0.00  0.00    +0.021 A 
ATOM     19  C   LIG A   1      -6.816   1.746 122.433  0.00  0.00    +0.061 A 
ATOM     20  C   LIG A   1      -6.187   2.910 122.043  0.00  0.00    +0.167 A 
ATOM     21  C   LIG A   1      -5.699   3.812 122.957  0.00  0.00    +0.166 A 
ATOM     22  O   LIG A   1      -5.117   4.889 122.366  0.00  0.00    -0.453 OA
ATOM     23  C   LIG A   1      -5.294   4.562 120.972  0.00  0.00    +0.466 C 
ATOM     24  O   LIG A   1      -5.972   3.306 120.760  0.00  0.00    -0.453 OA
ATOM     25  C   LIG A   1      -5.810   3.599 124.313  0.00  0.00    +0.050 A 
ATOM     26  C   LIG A   1      -6.444   2.426 124.739  0.00  0.00    +0.015 A 
ENDBRANCH   4  18
TORSDOF 1
ENDMDL
MODEL 4
REMARK VINA RESULT:      -8.7      2.034      7.209
REMARK  Name = NuBBE_1321
REMARK  3 active torsions:
REMARK  status: ('A' for Active; 'I' for Inactive)
REMARK    1  A    between atoms: C_4  and  C_5
REMARK    2  A    between atoms: C_20  and  C_21
REMARK    3  A    between atoms: C_20  and  C_22
REMARK                            x       y       z     vdW  Elec       q    Type
REMARK                         _______ _______ _______ _____ _____    ______ ____
ROOT
ATOM      1  O   LIG A   1      -9.017   4.116 134.604  0.00  0.00    -0.287 OA
ATOM      2  C   LIG A   1      -8.721   4.802 133.635  0.00  0.00    +0.193 A 
ATOM      3  C   LIG A   1      -9.740   5.205 132.655  0.00  0.00    +0.098 A 
ATOM      4  C   LIG A   1      -9.378   5.966 131.614  0.00  0.00    +0.139 A 
ATOM      5  O   LIG A   1      -8.084   6.398 131.376  0.00  0.00    -0.454 OA
ATOM      6  C   LIG A   1      -7.347   5.265 133.387  0.00  0.00    +0.065 A 
ATOM      7  C   LIG A   1      -7.088   6.047 132.260  0.00  0.00    +0.150 A 
ATOM      8  C   LIG A   1      -5.782   6.497 132.002  0.00  0.00    +0.059 A 
ATOM      9  C   LIG A   1      -5.462   7.324 130.843  0.00  0.00    +0.015 C 
ATOM     10  C   LIG A   1      -4.188   7.671 130.644  0.00  0.00    +0.020 C 
ATOM     11  C   LIG A   1      -3.061   7.256 131.559  0.00  0.00    +0.123 C 
ATOM     12  C   LIG A   1      -2.089   6.352 130.792  0.00  0.00    +0.060 C 
ATOM     13  C   LIG A   1      -2.322   8.507 132.050  0.00  0.00    +0.060 C 
ATOM     14  O   LIG A   1      -3.452   6.532 132.743  0.00  0.00    -0.481 OA
ATOM     15  C   LIG A   1      -4.756   6.148 132.888  0.00  0.00    +0.132 A 
ATOM     16  C   LIG A   1      -5.024   5.368 134.017  0.00  0.00    +0.047 A 
ATOM     17  C   LIG A   1      -6.320   4.922 134.270  0.00  0.00    +0.019 A 
ENDROOT
BRANCH   4  18
ATOM     18  C   LIG A   1     -10.351   6.396 130.589  0.00  0.00    +0.021 A 
ATOM     19  C   LIG A   1      -9.984   6.382 129.233  0.00  0.00    +0.061 A 
ATOM     20  C   LIG A   1     -10.908   6.802 128.298  0.00  0.00    +0.167 A 
ATOM     21  C   LIG A   1     -12.161   7.234 128.661  0.00  0.00    +0.166 A 
ATOM     22  O   LIG A   1     -12.913   7.604 127.590  0.00  0.00    -0.453 OA
ATOM     23  C   LIG A   1     -11.990   7.354 126.511  0.00  0.00    +0.466 C 
ATOM     24  O   LIG A   1     -10.714   6.846 126.953  0.00  0.00    -0.453 OA
ATOM     25  C   LIG A   1     -12.560   7.273 129.978  0.00  0.00    +0.050 A 
ATOM     26  C   LIG A   1     -11.643   6.853 130.949  0.00  0.00    +0.015 A 
ENDBRANCH   4  18
TORSDOF 1
ENDMDL
MODEL 5
REMARK VINA RESULT:      -8.7      6.871      8.907
REMARK  Name = NuBBE_1321
REMARK  3 active torsions:
REMARK  status: ('A' for Active; 'I' for Inactive)
REMARK    1  A    between atoms: C_4  and  C_5
REMARK    2  A    between atoms: C_20  and  C_21
REMARK    3  A    between atoms: C_20  and  C_22
REMARK                            x       y       z     vdW  Elec       q    Type
REMARK                         _______ _______ _______ _____ _____    ______ ____
ROOT
ATOM      1  O   LIG A   1      -8.292   3.724 122.296  0.00  0.00    -0.287 OA
ATOM      2  C   LIG A   1      -7.774   3.107 123.216  0.00  0.00    +0.193 A 
ATOM      3  C   LIG A   1      -6.717   3.718 124.035  0.00  0.00    +0.098 A 
ATOM      4  C   LIG A   1      -6.182   3.014 125.041  0.00  0.00    +0.139 A 
ATOM      5  O   LIG A   1      -6.546   1.717 125.365  0.00  0.00    -0.454 OA
ATOM      6  C   LIG A   1      -8.166   1.732 123.563  0.00  0.00    +0.065 A 
ATOM      7  C   LIG A   1      -7.529   1.094 124.629  0.00  0.00    +0.150 A 
ATOM      8  C   LIG A   1      -7.885  -0.220 124.975  0.00  0.00    +0.059 A 
ATOM      9  C   LIG A   1      -7.255  -0.927 126.085  0.00  0.00    +0.015 C 
ATOM     10  C   LIG A   1      -7.618  -2.191 126.320  0.00  0.00    +0.020 C 
ATOM     11  C   LIG A   1      -8.649  -2.926 125.498  0.00  0.00    +0.123 C 
ATOM     12  C   LIG A   1      -7.981  -4.103 124.777  0.00  0.00    +0.060 C 
ATOM     13  C   LIG A   1      -9.754  -3.448 126.424  0.00  0.00    +0.060 C 
ATOM     14  O   LIG A   1      -9.313  -2.144 124.485  0.00  0.00    -0.481 OA
ATOM     15  C   LIG A   1      -8.881  -0.871 124.236  0.00  0.00    +0.132 A 
ATOM     16  C   LIG A   1      -9.516  -0.224 123.173  0.00  0.00    +0.047 A 
ATOM     17  C   LIG A   1      -9.161   1.079 122.831  0.00  0.00    +0.019 A 
ENDROOT
BRANCH   4  18
ATOM     18  C   LIG A   1      -5.111   3.566 125.894  0.00  0.00    +0.021 A 
ATOM     19  C   LIG A   1      -5.206   4.887 126.363  0.00  0.00    +0.061 A 
ATOM     20  C   LIG A   1      -4.184   5.382 127.146  0.00  0.00    +0.167 A 
ATOM     21  C   LIG A   1      -3.086   4.622 127.469  0.00  0.00    +0.166 A 
ATOM     22  O   LIG A   1      -2.198   5.297 128.247  0.00  0.00    -0.453 OA
ATOM     23  C   LIG A   1      -2.864   6.570 128.377  0.00  0.00    +0.466 C 
ATOM     24  O   LIG A   1      -4.125   6.631 127.680  0.00  0.00    -0.453 OA
ATOM     25  C   LIG A   1      -2.946   3.327 127.025  0.00  0.00    +0.050 A 
ATOM     26  C   LIG A   1      -3.967   2.798 126.227  0.00  0.00    +0.015 A 
ENDBRANCH   4  18
TORSDOF 1
ENDMDL
MODEL 6
REMARK VINA RESULT:      -8.4      2.753      3.303
REMARK  Name = NuBBE_1321
REMARK  3 active torsions:
REMARK  status: ('A' for Active; 'I' for Inactive)
REMARK    1  A    between atoms: C_4  and  C_5
REMARK    2  A    between atoms: C_20  and  C_21
REMARK    3  A    between atoms: C_20  and  C_22
REMARK                            x       y       z     vdW  Elec       q    Type
REMARK                         _______ _______ _______ _____ _____    ______ ____
ROOT
ATOM      1  O   LIG A   1      -7.141   1.893 132.043  0.00  0.00    -0.287 OA
ATOM      2  C   LIG A   1      -7.195   3.086 131.776  0.00  0.00    +0.193 A 
ATOM      3  C   LIG A   1      -6.035   3.961 131.994  0.00  0.00    +0.098 A 
ATOM      4  C   LIG A   1      -6.129   5.260 131.679  0.00  0.00    +0.139 A 
ATOM      5  O   LIG A   1      -7.270   5.857 131.168  0.00  0.00    -0.454 OA
ATOM      6  C   LIG A   1      -8.405   3.717 131.228  0.00  0.00    +0.065 A 
ATOM      7  C   LIG A   1      -8.388   5.085 130.947  0.00  0.00    +0.150 A 
ATOM      8  C   LIG A   1      -9.534   5.709 130.425  0.00  0.00    +0.059 A 
ATOM      9  C   LIG A   1      -9.564   7.133 130.107  0.00  0.00    +0.015 C 
ATOM     10  C   LIG A   1     -10.707   7.658 129.659  0.00  0.00    +0.020 C 
ATOM     11  C   LIG A   1     -11.970   6.855 129.460  0.00  0.00    +0.123 C 
ATOM     12  C   LIG A   1     -13.054   7.363 130.418  0.00  0.00    +0.060 C 
ATOM     13  C   LIG A   1     -12.447   7.013 128.011  0.00  0.00    +0.060 C 
ATOM     14  O   LIG A   1     -11.849   5.436 129.688  0.00  0.00    -0.481 OA
ATOM     15  C   LIG A   1     -10.682   4.940 130.197  0.00  0.00    +0.132 A 
ATOM     16  C   LIG A   1     -10.689   3.571 130.477  0.00  0.00    +0.047 A 
ATOM     17  C   LIG A   1      -9.552   2.954 130.995  0.00  0.00    +0.019 A 
ENDROOT
BRANCH   4  18
ATOM     18  C   LIG A   1      -5.004   6.195 131.883  0.00  0.00    +0.021 A 
ATOM     19  C   LIG A   1      -4.345   6.229 133.123  0.00  0.00    +0.061 A 
ATOM     20  C   LIG A   1      -3.306   7.122 133.290  0.00  0.00    +0.167 A 
ATOM     21  C   LIG A   1      -2.911   7.970 132.285  0.00  0.00    +0.166 A 
ATOM     22  O   LIG A   1      -1.873   8.767 132.655  0.00  0.00    -0.453 OA
ATOM     23  C   LIG A   1      -1.660   8.322 134.010  0.00  0.00    +0.466 C 
ATOM     24  O   LIG A   1      -2.567   7.278 134.421  0.00  0.00    -0.453 OA
ATOM     25  C   LIG A   1      -3.533   7.977 131.057  0.00  0.00    +0.050 A 
ATOM     26  C   LIG A   1      -4.591   7.082 130.858  0.00  0.00    +0.015 A 
ENDBRANCH   4  18
TORSDOF 1
ENDMDL
MODEL 7
REMARK VINA RESULT:      -8.2      3.472      7.864
REMARK  Name = NuBBE_1321
REMARK  3 active torsions:
REMARK  status: ('A' for Active; 'I' for Inactive)
REMARK    1  A    between atoms: C_4  and  C_5
REMARK    2  A    between atoms: C_20  and  C_21
REMARK    3  A    between atoms: C_20  and  C_22
REMARK                            x       y       z     vdW  Elec       q    Type
REMARK                         _______ _______ _______ _____ _____    ______ ____
ROOT
ATOM      1  O   LIG A   1      -5.603   3.258 132.054  0.00  0.00    -0.287 OA
ATOM      2  C   LIG A   1      -6.381   4.048 132.569  0.00  0.00    +0.193 A 
ATOM      3  C   LIG A   1      -7.455   4.671 131.781  0.00  0.00    +0.098 A 
ATOM      4  C   LIG A   1      -8.295   5.524 132.384  0.00  0.00    +0.139 A 
ATOM      5  O   LIG A   1      -8.216   5.882 133.719  0.00  0.00    -0.454 OA
ATOM      6  C   LIG A   1      -6.300   4.424 133.988  0.00  0.00    +0.065 A 
ATOM      7  C   LIG A   1      -7.228   5.331 134.503  0.00  0.00    +0.150 A 
ATOM      8  C   LIG A   1      -7.167   5.707 135.856  0.00  0.00    +0.059 A 
ATOM      9  C   LIG A   1      -8.117   6.645 136.444  0.00  0.00    +0.015 C 
ATOM     10  C   LIG A   1      -7.962   6.985 137.726  0.00  0.00    +0.020 C 
ATOM     11  C   LIG A   1      -6.855   6.447 138.601  0.00  0.00    +0.123 C 
ATOM     12  C   LIG A   1      -5.935   7.598 139.023  0.00  0.00    +0.060 C 
ATOM     13  C   LIG A   1      -7.468   5.794 139.845  0.00  0.00    +0.060 C 
ATOM     14  O   LIG A   1      -6.014   5.445 137.996  0.00  0.00    -0.481 OA
ATOM     15  C   LIG A   1      -6.166   5.159 136.668  0.00  0.00    +0.132 A 
ATOM     16  C   LIG A   1      -5.244   4.248 136.146  0.00  0.00    +0.047 A 
ATOM     17  C   LIG A   1      -5.307   3.878 134.804  0.00  0.00    +0.019 A 
ENDROOT
BRANCH   4  18
ATOM     18  C   LIG A   1      -9.387   6.191 131.647  0.00  0.00    +0.021 A 
ATOM     19  C   LIG A   1      -9.105   6.870 130.450  0.00  0.00    +0.061 A 
ATOM     20  C   LIG A   1     -10.142   7.497 129.790  0.00  0.00    +0.167 A 
ATOM     21  C   LIG A   1     -11.428   7.476 130.275  0.00  0.00    +0.166 A 
ATOM     22  O   LIG A   1     -12.295   8.152 129.476  0.00  0.00    -0.453 OA
ATOM     23  C   LIG A   1     -11.408   8.601 128.431  0.00  0.00    +0.466 C 
ATOM     24  O   LIG A   1     -10.039   8.190 128.625  0.00  0.00    -0.453 OA
ATOM     25  C   LIG A   1     -11.748   6.830 131.448  0.00  0.00    +0.050 A 
ATOM     26  C   LIG A   1     -10.716   6.186 132.140  0.00  0.00    +0.015 A 
ENDBRANCH   4  18
TORSDOF 1
ENDMDL
MODEL 8
REMARK VINA RESULT:      -8.2      7.642      9.456
REMARK  Name = NuBBE_1321
REMARK  3 active torsions:
REMARK  status: ('A' for Active; 'I' for Inactive)
REMARK    1  A    between atoms: C_4  and  C_5
REMARK    2  A    between atoms: C_20  and  C_21
REMARK    3  A    between atoms: C_20  and  C_22
REMARK                            x       y       z     vdW  Elec       q    Type
REMARK                         _______ _______ _______ _____ _____    ______ ____
ROOT
ATOM      1  O   LIG A   1      -6.380  -4.323 130.664  0.00  0.00    -0.287 OA
ATOM      2  C   LIG A   1      -6.877  -3.320 130.170  0.00  0.00    +0.193 A 
ATOM      3  C   LIG A   1      -7.303  -3.305 128.763  0.00  0.00    +0.098 A 
ATOM      4  C   LIG A   1      -7.855  -2.192 128.260  0.00  0.00    +0.139 A 
ATOM      5  O   LIG A   1      -8.042  -1.022 128.979  0.00  0.00    -0.454 OA
ATOM      6  C   LIG A   1      -7.082  -2.081 130.935  0.00  0.00    +0.065 A 
ATOM      7  C   LIG A   1      -7.659  -0.979 130.300  0.00  0.00    +0.150 A 
ATOM      8  C   LIG A   1      -7.860   0.215 131.011  0.00  0.00    +0.059 A 
ATOM      9  C   LIG A   1      -8.466   1.391 130.396  0.00  0.00    +0.015 C 
ATOM     10  C   LIG A   1      -8.580   2.502 131.127  0.00  0.00    +0.020 C 
ATOM     11  C   LIG A   1      -8.116   2.605 132.561  0.00  0.00    +0.123 C 
ATOM     12  C   LIG A   1      -6.978   3.627 132.656  0.00  0.00    +0.060 C 
ATOM     13  C   LIG A   1      -9.289   3.057 133.439  0.00  0.00    +0.060 C 
ATOM     14  O   LIG A   1      -7.625   1.383 133.147  0.00  0.00    -0.481 OA
ATOM     15  C   LIG A   1      -7.473   0.279 132.356  0.00  0.00    +0.132 A 
ATOM     16  C   LIG A   1      -6.900  -0.830 132.985  0.00  0.00    +0.047 A 
ATOM     17  C   LIG A   1      -6.701  -2.013 132.277  0.00  0.00    +0.019 A 
ENDROOT
BRANCH   4  18
ATOM     18  C   LIG A   1      -8.294  -2.108 126.853  0.00  0.00    +0.021 A 
ATOM     19  C   LIG A   1      -8.422  -0.851 126.239  0.00  0.00    +0.061 A 
ATOM     20  C   LIG A   1      -8.848  -0.801 124.927  0.00  0.00    +0.167 A 
ATOM     21  C   LIG A   1      -9.150  -1.939 124.219  0.00  0.00    +0.166 A 
ATOM     22  O   LIG A   1      -9.550  -1.670 122.948  0.00  0.00    -0.453 OA
ATOM     23  C   LIG A   1      -9.464  -0.230 122.936  0.00  0.00    +0.466 C 
ATOM     24  O   LIG A   1      -9.021   0.329 124.190  0.00  0.00    -0.453 OA
ATOM     25  C   LIG A   1      -9.047  -3.191 124.783  0.00  0.00    +0.050 A 
ATOM     26  C   LIG A   1      -8.618  -3.273 126.113  0.00  0.00    +0.015 A 
ENDBRANCH   4  18
TORSDOF 1
ENDMDL
MODEL 9
REMARK VINA RESULT:      -8.2      6.163      8.694
REMARK  Name = NuBBE_1321
REMARK  3 active torsions:
REMARK  status: ('A' for Active; 'I' for Inactive)
REMARK    1  A    between atoms: C_4  and  C_5
REMARK    2  A    between atoms: C_20  and  C_21
REMARK    3  A    between atoms: C_20  and  C_22
REMARK                            x       y       z     vdW  Elec       q    Type
REMARK                         _______ _______ _______ _____ _____    ______ ____
ROOT
ATOM      1  O   LIG A   1      -8.057  -1.332 133.111  0.00  0.00    -0.287 OA
ATOM      2  C   LIG A   1      -8.150  -0.654 132.097  0.00  0.00    +0.193 A 
ATOM      3  C   LIG A   1      -8.546   0.760 132.169  0.00  0.00    +0.098 A 
ATOM      4  C   LIG A   1      -8.626   1.473 131.038  0.00  0.00    +0.139 A 
ATOM      5  O   LIG A   1      -8.374   0.962 129.775  0.00  0.00    -0.454 OA
ATOM      6  C   LIG A   1      -7.877  -1.196 130.758  0.00  0.00    +0.065 A 
ATOM      7  C   LIG A   1      -8.003  -0.357 129.648  0.00  0.00    +0.150 A 
ATOM      8  C   LIG A   1      -7.750  -0.855 128.359  0.00  0.00    +0.059 A 
ATOM      9  C   LIG A   1      -7.860  -0.018 127.169  0.00  0.00    +0.015 C 
ATOM     10  C   LIG A   1      -7.649  -0.580 125.977  0.00  0.00    +0.020 C 
ATOM     11  C   LIG A   1      -7.298  -2.037 125.794  0.00  0.00    +0.123 C 
ATOM     12  C   LIG A   1      -8.422  -2.739 125.023  0.00  0.00    +0.060 C 
ATOM     13  C   LIG A   1      -5.986  -2.146 125.007  0.00  0.00    +0.060 C 
ATOM     14  O   LIG A   1      -7.098  -2.787 127.009  0.00  0.00    -0.481 OA
ATOM     15  C   LIG A   1      -7.375  -2.196 128.211  0.00  0.00    +0.132 A 
ATOM     16  C   LIG A   1      -7.246  -3.028 129.326  0.00  0.00    +0.047 A 
ATOM     17  C   LIG A   1      -7.498  -2.532 130.604  0.00  0.00    +0.019 A 
ENDROOT
BRANCH   4  18
ATOM     18  C   LIG A   1      -9.027   2.894 131.040  0.00  0.00    +0.021 A 
ATOM     19  C   LIG A   1     -10.201   3.286 130.375  0.00  0.00    +0.061 A 
ATOM     20  C   LIG A   1     -10.544   4.623 130.381  0.00  0.00    +0.167 A 
ATOM     21  C   LIG A   1      -9.771   5.567 131.012  0.00  0.00    +0.166 A 
ATOM     22  O   LIG A   1     -10.286   6.820 130.899  0.00  0.00    -0.453 OA
ATOM     23  C   LIG A   1     -11.474   6.556 130.124  0.00  0.00    +0.466 C 
ATOM     24  O   LIG A   1     -11.644   5.163 129.791  0.00  0.00    -0.453 OA
ATOM     25  C   LIG A   1      -8.610   5.229 131.669  0.00  0.00    +0.050 A 
ATOM     26  C   LIG A   1      -8.235   3.881 131.679  0.00  0.00    +0.015 A 
ENDBRANCH   4  18
TORSDOF 1
ENDMDL
