MODEL 1
REMARK VINA RESULT:      -7.2      0.000      0.000
REMARK  Name = NuBBE_2520
REMARK  9 active torsions:
REMARK  status: ('A' for Active; 'I' for Inactive)
REMARK    1  A    between atoms: C_1  and  C_2
REMARK    2  A    between atoms: C_1  and  C_4
REMARK    3  A    between atoms: C_5  and  C_6
REMARK    4  A    between atoms: C_7  and  C_17
REMARK    5  A    between atoms: C_13  and  O_15
REMARK    6  A    between atoms: O_15  and  C_16
REMARK    7  A    between atoms: C_19  and  O_20
REMARK    8  A    between atoms: O_20  and  C_21
REMARK    9  A    between atoms: C_22  and  O_25
REMARK                            x       y       z     vdW  Elec       q    Type
REMARK                         _______ _______ _______ _____ _____    ______ ____
ROOT
ATOM      1  C   LIG A   1      -7.466   4.258 131.503  0.00  0.00    +0.039 C 
ATOM      2  C   LIG A   1      -8.556   4.987 132.360  0.00  0.00    +0.008 C 
ATOM      3  C   LIG A   1      -8.309   5.054 133.868  0.00  0.00    +0.009 C 
ATOM      4  C   LIG A   1      -8.663   6.456 131.765  0.00  0.00    +0.040 C 
ATOM      5  C   LIG A   1      -7.388   6.624 130.876  0.00  0.00    +0.132 C 
ATOM      6  C   LIG A   1      -7.572   5.210 130.348  0.00  0.00    +0.151 C 
ATOM      7  O   LIG A   1      -7.739   4.921 129.163  0.00  0.00    -0.296 OA
ATOM      8  C   LIG A   1      -5.852   6.650 130.728  0.00  0.00    +0.172 C 
ATOM      9  O   LIG A   1      -5.263   7.667 130.364  0.00  0.00    -0.294 OA
ATOM     10  C   LIG A   1      -5.095   5.330 131.092  0.00  0.00    +0.185 C 
ATOM     11  C   LIG A   1      -5.983   4.411 131.991  0.00  0.00    +0.054 C 
ENDROOT
BRANCH   4  12
ATOM     12  C   LIG A   1      -9.957   6.781 131.012  0.00  0.00    -0.039 A 
ATOM     13  C   LIG A   1      -9.915   7.532 129.819  0.00  0.00    +0.053 A 
ATOM     14  C   LIG A   1     -11.085   7.841 129.123  0.00  0.00    +0.162 A 
ATOM     15  C   LIG A   1     -12.308   7.391 129.621  0.00  0.00    +0.159 A 
ATOM     16  C   LIG A   1     -12.385   6.705 130.821  0.00  0.00    +0.049 A 
ATOM     17  C   LIG A   1     -11.214   6.421 131.525  0.00  0.00    +0.008 A 
BRANCH  14  18
ATOM     18  O   LIG A   1     -11.142   8.534 127.940  0.00  0.00    -0.491 OA
ATOM     19  C   LIG A   1     -10.830   7.774 126.775  0.00  0.00    +0.277 C 
ENDBRANCH  14  18
BRANCH  15  20
ATOM     20  O   LIG A   1     -13.468   7.644 128.942  0.00  0.00    -0.503 OA
ATOM     21  H   LIG A   1     -14.180   7.404 129.566  0.00  0.00    +0.292 HD
ENDBRANCH  15  20
ENDBRANCH   4  12
BRANCH  10  22
ATOM     22  O   LIG A   1      -4.710   4.554 129.965  0.00  0.00    -0.372 OA
ATOM     23  C   LIG A   1      -4.071   3.330 130.313  0.00  0.00    +0.195 C 
ENDBRANCH  10  22
BRANCH   1  24
ATOM     24  C   LIG A   1      -7.830   2.822 131.089  0.00  0.00    +0.041 C 
BRANCH  24  25
ATOM     25  C   LIG A   1      -9.296   2.484 131.168  0.00  0.00    -0.034 C 
ATOM     26  C   LIG A   1      -9.822   1.549 131.969  0.00  0.00    +0.004 C 
ENDBRANCH  24  25
ENDBRANCH   1  24
TORSDOF 6
ENDMDL
MODEL 2
REMARK VINA RESULT:      -7.2      7.606      9.414
REMARK  Name = NuBBE_2520
REMARK  9 active torsions:
REMARK  status: ('A' for Active; 'I' for Inactive)
REMARK    1  A    between atoms: C_1  and  C_2
REMARK    2  A    between atoms: C_1  and  C_4
REMARK    3  A    between atoms: C_5  and  C_6
REMARK    4  A    between atoms: C_7  and  C_17
REMARK    5  A    between atoms: C_13  and  O_15
REMARK    6  A    between atoms: O_15  and  C_16
REMARK    7  A    between atoms: C_19  and  O_20
REMARK    8  A    between atoms: O_20  and  C_21
REMARK    9  A    between atoms: C_22  and  O_25
REMARK                            x       y       z     vdW  Elec       q    Type
REMARK                         _______ _______ _______ _____ _____    ______ ____
ROOT
ATOM      1  C   LIG A   1      -6.720  -1.550 124.396  0.00  0.00    +0.039 C 
ATOM      2  C   LIG A   1      -7.560  -0.601 123.474  0.00  0.00    +0.008 C 
ATOM      3  C   LIG A   1      -8.930  -1.117 123.029  0.00  0.00    +0.009 C 
ATOM      4  C   LIG A   1      -7.731   0.752 124.287  0.00  0.00    +0.040 C 
ATOM      5  C   LIG A   1      -7.332   0.392 125.755  0.00  0.00    +0.132 C 
ATOM      6  C   LIG A   1      -6.168  -0.435 125.235  0.00  0.00    +0.151 C 
ATOM      7  O   LIG A   1      -4.985  -0.227 125.503  0.00  0.00    -0.296 OA
ATOM      8  C   LIG A   1      -7.553  -0.435 127.039  0.00  0.00    +0.172 C 
ATOM      9  O   LIG A   1      -7.857   0.106 128.103  0.00  0.00    -0.294 OA
ATOM     10  C   LIG A   1      -7.399  -1.985 126.903  0.00  0.00    +0.185 C 
ATOM     11  C   LIG A   1      -7.532  -2.427 125.411  0.00  0.00    +0.054 C 
ENDROOT
BRANCH   4  12
ATOM     12  C   LIG A   1      -6.962   1.961 123.744  0.00  0.00    -0.039 A 
ATOM     13  C   LIG A   1      -6.808   2.140 122.354  0.00  0.00    +0.053 A 
ATOM     14  C   LIG A   1      -6.105   3.233 121.843  0.00  0.00    +0.162 A 
ATOM     15  C   LIG A   1      -5.556   4.159 122.730  0.00  0.00    +0.159 A 
ATOM     16  C   LIG A   1      -5.640   3.977 124.101  0.00  0.00    +0.049 A 
ATOM     17  C   LIG A   1      -6.322   2.868 124.605  0.00  0.00    +0.008 A 
BRANCH  14  18
ATOM     18  O   LIG A   1      -5.932   3.510 120.511  0.00  0.00    -0.491 OA
ATOM     19  C   LIG A   1      -7.054   4.102 119.863  0.00  0.00    +0.277 C 
ENDBRANCH  14  18
BRANCH  15  20
ATOM     20  O   LIG A   1      -4.896   5.261 122.261  0.00  0.00    -0.503 OA
ATOM     21  H   LIG A   1      -4.771   5.090 121.307  0.00  0.00    +0.292 HD
ENDBRANCH  15  20
ENDBRANCH   4  12
BRANCH  10  22
ATOM     22  O   LIG A   1      -6.153  -2.486 127.371  0.00  0.00    -0.372 OA
ATOM     23  C   LIG A   1      -6.131  -2.727 128.774  0.00  0.00    +0.195 C 
ENDBRANCH  10  22
BRANCH   1  24
ATOM     24  C   LIG A   1      -5.603  -2.323 123.674  0.00  0.00    +0.041 C 
BRANCH  24  25
ATOM     25  C   LIG A   1      -5.378  -3.730 124.162  0.00  0.00    -0.034 C 
ATOM     26  C   LIG A   1      -4.435  -4.559 123.698  0.00  0.00    +0.004 C 
ENDBRANCH  24  25
ENDBRANCH   1  24
TORSDOF 6
ENDMDL
MODEL 3
REMARK VINA RESULT:      -7.0      2.613      4.753
REMARK  Name = NuBBE_2520
REMARK  9 active torsions:
REMARK  status: ('A' for Active; 'I' for Inactive)
REMARK    1  A    between atoms: C_1  and  C_2
REMARK    2  A    between atoms: C_1  and  C_4
REMARK    3  A    between atoms: C_5  and  C_6
REMARK    4  A    between atoms: C_7  and  C_17
REMARK    5  A    between atoms: C_13  and  O_15
REMARK    6  A    between atoms: O_15  and  C_16
REMARK    7  A    between atoms: C_19  and  O_20
REMARK    8  A    between atoms: O_20  and  C_21
REMARK    9  A    between atoms: C_22  and  O_25
REMARK                            x       y       z     vdW  Elec       q    Type
REMARK                         _______ _______ _______ _____ _____    ______ ____
ROOT
ATOM      1  C   LIG A   1      -2.906   5.600 130.861  0.00  0.00    +0.039 C 
ATOM      2  C   LIG A   1      -3.661   6.788 131.550  0.00  0.00    +0.008 C 
ATOM      3  C   LIG A   1      -2.930   8.132 131.588  0.00  0.00    +0.009 C 
ATOM      4  C   LIG A   1      -5.032   6.942 130.765  0.00  0.00    +0.040 C 
ATOM      5  C   LIG A   1      -4.837   6.119 129.449  0.00  0.00    +0.132 C 
ATOM      6  C   LIG A   1      -4.143   5.022 130.240  0.00  0.00    +0.151 C 
ATOM      7  O   LIG A   1      -4.531   3.856 130.310  0.00  0.00    -0.296 OA
ATOM      8  C   LIG A   1      -4.082   5.864 128.128  0.00  0.00    +0.172 C 
ATOM      9  O   LIG A   1      -4.651   5.955 127.040  0.00  0.00    -0.294 OA
ATOM     10  C   LIG A   1      -2.562   5.517 128.251  0.00  0.00    +0.185 C 
ATOM     11  C   LIG A   1      -1.999   5.971 129.636  0.00  0.00    +0.054 C 
ENDROOT
BRANCH   4  12
ATOM     12  C   LIG A   1      -6.293   6.537 131.534  0.00  0.00    -0.039 A 
ATOM     13  C   LIG A   1      -7.569   6.864 131.031  0.00  0.00    +0.053 A 
ATOM     14  C   LIG A   1      -8.728   6.508 131.723  0.00  0.00    +0.162 A 
ATOM     15  C   LIG A   1      -8.612   5.813 132.927  0.00  0.00    +0.159 A 
ATOM     16  C   LIG A   1      -7.371   5.532 133.475  0.00  0.00    +0.049 A 
ATOM     17  C   LIG A   1      -6.216   5.914 132.791  0.00  0.00    +0.008 A 
BRANCH  14  18
ATOM     18  O   LIG A   1     -10.010   6.750 131.297  0.00  0.00    -0.491 OA
ATOM     19  C   LIG A   1     -10.416   6.019 130.144  0.00  0.00    +0.277 C 
ENDBRANCH  14  18
BRANCH  15  20
ATOM     20  O   LIG A   1      -9.728   5.415 133.608  0.00  0.00    -0.503 OA
ATOM     21  H   LIG A   1     -10.362   6.150 133.498  0.00  0.00    +0.292 HD
ENDBRANCH  15  20
ENDBRANCH   4  12
BRANCH  10  22
ATOM     22  O   LIG A   1      -2.272   4.131 128.124  0.00  0.00    -0.372 OA
ATOM     23  C   LIG A   1      -2.089   3.712 126.776  0.00  0.00    +0.195 C 
ENDBRANCH  10  22
BRANCH   1  24
ATOM     24  C   LIG A   1      -2.244   4.610 131.835  0.00  0.00    +0.041 C 
BRANCH  24  25
ATOM     25  C   LIG A   1      -2.668   4.746 133.274  0.00  0.00    -0.034 C 
ATOM     26  C   LIG A   1      -3.364   3.829 133.956  0.00  0.00    +0.004 C 
ENDBRANCH  24  25
ENDBRANCH   1  24
TORSDOF 6
ENDMDL
MODEL 4
REMARK VINA RESULT:      -6.9      7.288     10.223
REMARK  Name = NuBBE_2520
REMARK  9 active torsions:
REMARK  status: ('A' for Active; 'I' for Inactive)
REMARK    1  A    between atoms: C_1  and  C_2
REMARK    2  A    between atoms: C_1  and  C_4
REMARK    3  A    between atoms: C_5  and  C_6
REMARK    4  A    between atoms: C_7  and  C_17
REMARK    5  A    between atoms: C_13  and  O_15
REMARK    6  A    between atoms: O_15  and  C_16
REMARK    7  A    between atoms: C_19  and  O_20
REMARK    8  A    between atoms: O_20  and  C_21
REMARK    9  A    between atoms: C_22  and  O_25
REMARK                            x       y       z     vdW  Elec       q    Type
REMARK                         _______ _______ _______ _____ _____    ______ ____
ROOT
ATOM      1  C   LIG A   1      -7.860  -2.362 124.746  0.00  0.00    +0.039 C 
ATOM      2  C   LIG A   1      -6.389  -2.681 125.183  0.00  0.00    +0.008 C 
ATOM      3  C   LIG A   1      -5.527  -3.444 124.176  0.00  0.00    +0.009 C 
ATOM      4  C   LIG A   1      -5.721  -1.278 125.511  0.00  0.00    +0.040 C 
ATOM      5  C   LIG A   1      -6.687  -0.218 124.888  0.00  0.00    +0.132 C 
ATOM      6  C   LIG A   1      -7.882  -1.009 125.395  0.00  0.00    +0.151 C 
ATOM      7  O   LIG A   1      -8.729  -0.576 126.175  0.00  0.00    -0.296 OA
ATOM      8  C   LIG A   1      -7.405   0.384 123.661  0.00  0.00    +0.172 C 
ATOM      9  O   LIG A   1      -7.191   1.541 123.300  0.00  0.00    -0.294 OA
ATOM     10  C   LIG A   1      -8.386  -0.564 122.896  0.00  0.00    +0.185 C 
ATOM     11  C   LIG A   1      -8.081  -2.061 123.224  0.00  0.00    +0.054 C 
ENDROOT
BRANCH   4  12
ATOM     12  C   LIG A   1      -5.421  -1.008 126.989  0.00  0.00    -0.039 A 
ATOM     13  C   LIG A   1      -5.264  -2.082 127.890  0.00  0.00    +0.053 A 
ATOM     14  C   LIG A   1      -4.996  -1.853 129.241  0.00  0.00    +0.162 A 
ATOM     15  C   LIG A   1      -4.877  -0.539 129.695  0.00  0.00    +0.159 A 
ATOM     16  C   LIG A   1      -5.087   0.535 128.845  0.00  0.00    +0.049 A 
ATOM     17  C   LIG A   1      -5.380   0.299 127.501  0.00  0.00    +0.008 A 
BRANCH  14  18
ATOM     18  O   LIG A   1      -4.792  -2.829 130.183  0.00  0.00    -0.491 OA
ATOM     19  C   LIG A   1      -5.845  -3.781 130.310  0.00  0.00    +0.277 C 
ENDBRANCH  14  18
BRANCH  15  20
ATOM     20  O   LIG A   1      -4.576  -0.283 131.003  0.00  0.00    -0.503 OA
ATOM     21  H   LIG A   1      -3.979   0.490 130.976  0.00  0.00    +0.292 HD
ENDBRANCH  15  20
ENDBRANCH   4  12
BRANCH  10  22
ATOM     22  O   LIG A   1      -9.758  -0.347 123.202  0.00  0.00    -0.372 OA
ATOM     23  C   LIG A   1     -10.328   0.750 122.495  0.00  0.00    +0.195 C 
ENDBRANCH  10  22
BRANCH   1  24
ATOM     24  C   LIG A   1      -8.925  -3.296 125.348  0.00  0.00    +0.041 C 
BRANCH  24  25
ATOM     25  C   LIG A   1      -8.509  -4.018 126.603  0.00  0.00    -0.034 C 
ATOM     26  C   LIG A   1      -8.880  -3.673 127.842  0.00  0.00    +0.004 C 
ENDBRANCH  24  25
ENDBRANCH   1  24
TORSDOF 6
ENDMDL
MODEL 5
REMARK VINA RESULT:      -6.9      7.650     10.503
REMARK  Name = NuBBE_2520
REMARK  9 active torsions:
REMARK  status: ('A' for Active; 'I' for Inactive)
REMARK    1  A    between atoms: C_1  and  C_2
REMARK    2  A    between atoms: C_1  and  C_4
REMARK    3  A    between atoms: C_5  and  C_6
REMARK    4  A    between atoms: C_7  and  C_17
REMARK    5  A    between atoms: C_13  and  O_15
REMARK    6  A    between atoms: O_15  and  C_16
REMARK    7  A    between atoms: C_19  and  O_20
REMARK    8  A    between atoms: O_20  and  C_21
REMARK    9  A    between atoms: C_22  and  O_25
REMARK                            x       y       z     vdW  Elec       q    Type
REMARK                         _______ _______ _______ _____ _____    ______ ____
ROOT
ATOM      1  C   LIG A   1      -6.646  -1.060 124.695  0.00  0.00    +0.039 C 
ATOM      2  C   LIG A   1      -5.691  -0.738 125.894  0.00  0.00    +0.008 C 
ATOM      3  C   LIG A   1      -4.819   0.512 125.757  0.00  0.00    +0.009 C 
ATOM      4  C   LIG A   1      -6.627  -0.604 127.169  0.00  0.00    +0.040 C 
ATOM      5  C   LIG A   1      -8.075  -0.470 126.592  0.00  0.00    +0.132 C 
ATOM      6  C   LIG A   1      -7.765  -1.548 125.567  0.00  0.00    +0.151 C 
ATOM      7  O   LIG A   1      -8.371  -2.614 125.466  0.00  0.00    -0.296 OA
ATOM      8  C   LIG A   1      -9.107   0.282 125.726  0.00  0.00    +0.172 C 
ATOM      9  O   LIG A   1     -10.120   0.775 126.223  0.00  0.00    -0.294 OA
ATOM     10  C   LIG A   1      -8.778   0.404 124.202  0.00  0.00    +0.185 C 
ATOM     11  C   LIG A   1      -7.255   0.173 123.942  0.00  0.00    +0.054 C 
ENDROOT
BRANCH   4  12
ATOM     12  C   LIG A   1      -6.507  -1.723 128.209  0.00  0.00    -0.039 A 
ATOM     13  C   LIG A   1      -5.249  -2.292 128.498  0.00  0.00    +0.053 A 
ATOM     14  C   LIG A   1      -5.123  -3.317 129.438  0.00  0.00    +0.162 A 
ATOM     15  C   LIG A   1      -6.264  -3.773 130.100  0.00  0.00    +0.159 A 
ATOM     16  C   LIG A   1      -7.519  -3.274 129.792  0.00  0.00    +0.049 A 
ATOM     17  C   LIG A   1      -7.641  -2.268 128.833  0.00  0.00    +0.008 A 
BRANCH  14  18
ATOM     18  O   LIG A   1      -3.943  -3.907 129.812  0.00  0.00    -0.491 OA
ATOM     19  C   LIG A   1      -2.845  -3.682 128.931  0.00  0.00    +0.277 C 
ENDBRANCH  14  18
BRANCH  15  20
ATOM     20  O   LIG A   1      -6.167  -4.747 131.055  0.00  0.00    -0.503 OA
ATOM     21  H   LIG A   1      -6.705  -4.418 131.802  0.00  0.00    +0.292 HD
ENDBRANCH  15  20
ENDBRANCH   4  12
BRANCH  10  22
ATOM     22  O   LIG A   1      -9.480  -0.521 123.382  0.00  0.00    -0.372 OA
ATOM     23  C   LIG A   1     -10.153   0.090 122.286  0.00  0.00    +0.195 C 
ENDBRANCH  10  22
BRANCH   1  24
ATOM     24  C   LIG A   1      -6.140  -2.165 123.751  0.00  0.00    +0.041 C 
BRANCH  24  25
ATOM     25  C   LIG A   1      -5.165  -3.136 124.365  0.00  0.00    -0.034 C 
ATOM     26  C   LIG A   1      -4.449  -4.037 123.681  0.00  0.00    +0.004 C 
ENDBRANCH  24  25
ENDBRANCH   1  24
TORSDOF 6
ENDMDL
MODEL 6
REMARK VINA RESULT:      -6.9      6.505      8.223
REMARK  Name = NuBBE_2520
REMARK  9 active torsions:
REMARK  status: ('A' for Active; 'I' for Inactive)
REMARK    1  A    between atoms: C_1  and  C_2
REMARK    2  A    between atoms: C_1  and  C_4
REMARK    3  A    between atoms: C_5  and  C_6
REMARK    4  A    between atoms: C_7  and  C_17
REMARK    5  A    between atoms: C_13  and  O_15
REMARK    6  A    between atoms: O_15  and  C_16
REMARK    7  A    between atoms: C_19  and  O_20
REMARK    8  A    between atoms: O_20  and  C_21
REMARK    9  A    between atoms: C_22  and  O_25
REMARK                            x       y       z     vdW  Elec       q    Type
REMARK                         _______ _______ _______ _____ _____    ______ ____
ROOT
ATOM      1  C   LIG A   1      -6.707  -2.215 126.428  0.00  0.00    +0.039 C 
ATOM      2  C   LIG A   1      -8.135  -1.977 125.830  0.00  0.00    +0.008 C 
ATOM      3  C   LIG A   1      -9.204  -3.014 126.181  0.00  0.00    +0.009 C 
ATOM      4  C   LIG A   1      -8.586  -0.543 126.342  0.00  0.00    +0.040 C 
ATOM      5  C   LIG A   1      -7.591  -0.199 127.499  0.00  0.00    +0.132 C 
ATOM      6  C   LIG A   1      -6.442  -0.759 126.675  0.00  0.00    +0.151 C 
ATOM      7  O   LIG A   1      -5.456  -0.115 126.320  0.00  0.00    -0.296 OA
ATOM      8  C   LIG A   1      -6.973  -0.523 128.875  0.00  0.00    +0.172 C 
ATOM      9  O   LIG A   1      -7.094   0.249 129.827  0.00  0.00    -0.294 OA
ATOM     10  C   LIG A   1      -6.218  -1.887 128.995  0.00  0.00    +0.185 C 
ATOM     11  C   LIG A   1      -6.651  -2.863 127.854  0.00  0.00    +0.054 C 
ENDROOT
BRANCH   4  12
ATOM     12  C   LIG A   1      -8.659   0.556 125.277  0.00  0.00    -0.039 A 
ATOM     13  C   LIG A   1      -8.637   1.914 125.655  0.00  0.00    +0.053 A 
ATOM     14  C   LIG A   1      -8.709   2.928 124.697  0.00  0.00    +0.162 A 
ATOM     15  C   LIG A   1      -8.797   2.581 123.349  0.00  0.00    +0.159 A 
ATOM     16  C   LIG A   1      -8.881   1.256 122.954  0.00  0.00    +0.049 A 
ATOM     17  C   LIG A   1      -8.835   0.248 123.918  0.00  0.00    +0.008 A 
BRANCH  14  18
ATOM     18  O   LIG A   1      -8.660   4.273 124.964  0.00  0.00    -0.491 OA
ATOM     19  C   LIG A   1      -7.868   4.641 126.089  0.00  0.00    +0.277 C 
ENDBRANCH  14  18
BRANCH  15  20
ATOM     20  O   LIG A   1      -8.828   3.550 122.385  0.00  0.00    -0.503 OA
ATOM     21  H   LIG A   1      -9.748   3.879 122.392  0.00  0.00    +0.292 HD
ENDBRANCH  15  20
ENDBRANCH   4  12
BRANCH  10  22
ATOM     22  O   LIG A   1      -4.802  -1.773 128.923  0.00  0.00    -0.372 OA
ATOM     23  C   LIG A   1      -4.128  -3.024 129.022  0.00  0.00    +0.195 C 
ENDBRANCH  10  22
BRANCH   1  24
ATOM     24  C   LIG A   1      -5.690  -2.815 125.441  0.00  0.00    +0.041 C 
BRANCH  24  25
ATOM     25  C   LIG A   1      -6.185  -2.973 124.027  0.00  0.00    -0.034 C 
ATOM     26  C   LIG A   1      -5.927  -2.121 123.027  0.00  0.00    +0.004 C 
ENDBRANCH  24  25
ENDBRANCH   1  24
TORSDOF 6
ENDMDL
MODEL 7
REMARK VINA RESULT:      -6.7      7.054      9.958
REMARK  Name = NuBBE_2520
REMARK  9 active torsions:
REMARK  status: ('A' for Active; 'I' for Inactive)
REMARK    1  A    between atoms: C_1  and  C_2
REMARK    2  A    between atoms: C_1  and  C_4
REMARK    3  A    between atoms: C_5  and  C_6
REMARK    4  A    between atoms: C_7  and  C_17
REMARK    5  A    between atoms: C_13  and  O_15
REMARK    6  A    between atoms: O_15  and  C_16
REMARK    7  A    between atoms: C_19  and  O_20
REMARK    8  A    between atoms: O_20  and  C_21
REMARK    9  A    between atoms: C_22  and  O_25
REMARK                            x       y       z     vdW  Elec       q    Type
REMARK                         _______ _______ _______ _____ _____    ______ ____
ROOT
ATOM      1  C   LIG A   1      -6.876  -1.922 125.132  0.00  0.00    +0.039 C 
ATOM      2  C   LIG A   1      -6.003  -1.263 126.254  0.00  0.00    +0.008 C 
ATOM      3  C   LIG A   1      -5.023  -0.177 125.809  0.00  0.00    +0.009 C 
ATOM      4  C   LIG A   1      -7.031  -0.665 127.307  0.00  0.00    +0.040 C 
ATOM      5  C   LIG A   1      -8.408  -0.660 126.565  0.00  0.00    +0.132 C 
ATOM      6  C   LIG A   1      -8.102  -2.034 125.991  0.00  0.00    +0.151 C 
ATOM      7  O   LIG A   1      -8.783  -3.041 126.181  0.00  0.00    -0.296 OA
ATOM      8  C   LIG A   1      -9.298  -0.193 125.394  0.00  0.00    +0.172 C 
ATOM      9  O   LIG A   1     -10.306   0.487 125.590  0.00  0.00    -0.294 OA
ATOM     10  C   LIG A   1      -8.832  -0.604 123.959  0.00  0.00    +0.185 C 
ATOM     11  C   LIG A   1      -7.316  -0.984 123.955  0.00  0.00    +0.054 C 
ENDROOT
BRANCH   4  12
ATOM     12  C   LIG A   1      -7.091  -1.375 128.662  0.00  0.00    -0.039 A 
ATOM     13  C   LIG A   1      -7.699  -0.745 129.768  0.00  0.00    +0.053 A 
ATOM     14  C   LIG A   1      -7.757  -1.377 131.012  0.00  0.00    +0.162 A 
ATOM     15  C   LIG A   1      -7.207  -2.651 131.151  0.00  0.00    +0.159 A 
ATOM     16  C   LIG A   1      -6.551  -3.267 130.099  0.00  0.00    +0.049 A 
ATOM     17  C   LIG A   1      -6.473  -2.620 128.865  0.00  0.00    +0.008 A 
BRANCH  14  18
ATOM     18  O   LIG A   1      -8.357  -0.861 132.134  0.00  0.00    -0.491 OA
ATOM     19  C   LIG A   1      -9.103   0.335 131.929  0.00  0.00    +0.277 C 
ENDBRANCH  14  18
BRANCH  15  20
ATOM     20  O   LIG A   1      -7.283  -3.312 132.346  0.00  0.00    -0.503 OA
ATOM     21  H   LIG A   1      -6.949  -2.673 133.006  0.00  0.00    +0.292 HD
ENDBRANCH  15  20
ENDBRANCH   4  12
BRANCH  10  22
ATOM     22  O   LIG A   1      -9.535  -1.716 123.419  0.00  0.00    -0.372 OA
ATOM     23  C   LIG A   1      -8.896  -2.292 122.284  0.00  0.00    +0.195 C 
ENDBRANCH  10  22
BRANCH   1  24
ATOM     24  C   LIG A   1      -6.385  -3.303 124.664  0.00  0.00    +0.041 C 
BRANCH  24  25
ATOM     25  C   LIG A   1      -5.201  -3.280 123.732  0.00  0.00    -0.034 C 
ATOM     26  C   LIG A   1      -4.257  -4.227 123.672  0.00  0.00    +0.004 C 
ENDBRANCH  24  25
ENDBRANCH   1  24
TORSDOF 6
ENDMDL
MODEL 8
REMARK VINA RESULT:      -6.7      1.918      2.657
REMARK  Name = NuBBE_2520
REMARK  9 active torsions:
REMARK  status: ('A' for Active; 'I' for Inactive)
REMARK    1  A    between atoms: C_1  and  C_2
REMARK    2  A    between atoms: C_1  and  C_4
REMARK    3  A    between atoms: C_5  and  C_6
REMARK    4  A    between atoms: C_7  and  C_17
REMARK    5  A    between atoms: C_13  and  O_15
REMARK    6  A    between atoms: O_15  and  C_16
REMARK    7  A    between atoms: C_19  and  O_20
REMARK    8  A    between atoms: O_20  and  C_21
REMARK    9  A    between atoms: C_22  and  O_25
REMARK                            x       y       z     vdW  Elec       q    Type
REMARK                         _______ _______ _______ _____ _____    ______ ____
ROOT
ATOM      1  C   LIG A   1      -8.044   4.636 130.618  0.00  0.00    +0.039 C 
ATOM      2  C   LIG A   1      -9.573   4.406 130.364  0.00  0.00    +0.008 C 
ATOM      3  C   LIG A   1     -10.106   2.996 130.629  0.00  0.00    +0.009 C 
ATOM      4  C   LIG A   1     -10.328   5.451 131.291  0.00  0.00    +0.040 C 
ATOM      5  C   LIG A   1      -9.242   5.951 132.300  0.00  0.00    +0.132 C 
ATOM      6  C   LIG A   1      -8.226   6.019 131.171  0.00  0.00    +0.151 C 
ATOM      7  O   LIG A   1      -7.639   7.040 130.817  0.00  0.00    -0.296 OA
ATOM      8  C   LIG A   1      -8.218   5.662 133.418  0.00  0.00    +0.172 C 
ATOM      9  O   LIG A   1      -8.340   6.158 134.538  0.00  0.00    -0.294 OA
ATOM     10  C   LIG A   1      -7.047   4.691 133.055  0.00  0.00    +0.185 C 
ATOM     11  C   LIG A   1      -7.409   3.829 131.803  0.00  0.00    +0.054 C 
ENDROOT
BRANCH   4  12
ATOM     12  C   LIG A   1     -11.035   6.600 130.566  0.00  0.00    -0.039 A 
ATOM     13  C   LIG A   1     -10.564   7.049 129.315  0.00  0.00    +0.053 A 
ATOM     14  C   LIG A   1     -11.194   8.099 128.644  0.00  0.00    +0.162 A 
ATOM     15  C   LIG A   1     -12.309   8.703 129.226  0.00  0.00    +0.159 A 
ATOM     16  C   LIG A   1     -12.756   8.323 130.480  0.00  0.00    +0.049 A 
ATOM     17  C   LIG A   1     -12.107   7.290 131.157  0.00  0.00    +0.008 A 
BRANCH  14  18
ATOM     18  O   LIG A   1     -10.831   8.581 127.412  0.00  0.00    -0.491 OA
ATOM     19  C   LIG A   1     -10.975   7.661 126.333  0.00  0.00    +0.277 C 
ENDBRANCH  14  18
BRANCH  15  20
ATOM     20  O   LIG A   1     -12.971   9.707 128.576  0.00  0.00    -0.503 OA
ATOM     21  H   LIG A   1     -12.840  10.496 129.136  0.00  0.00    +0.292 HD
ENDBRANCH  15  20
ENDBRANCH   4  12
BRANCH  10  22
ATOM     22  O   LIG A   1      -5.820   5.348 132.762  0.00  0.00    -0.372 OA
ATOM     23  C   LIG A   1      -4.784   4.457 132.361  0.00  0.00    +0.195 C 
ENDBRANCH  10  22
BRANCH   1  24
ATOM     24  C   LIG A   1      -7.177   4.644 129.347  0.00  0.00    +0.041 C 
BRANCH  24  25
ATOM     25  C   LIG A   1      -7.886   4.230 128.084  0.00  0.00    -0.034 C 
ATOM     26  C   LIG A   1      -7.627   3.114 127.392  0.00  0.00    +0.004 C 
ENDBRANCH  24  25
ENDBRANCH   1  24
TORSDOF 6
ENDMDL
MODEL 9
REMARK VINA RESULT:      -6.7      1.495      1.762
REMARK  Name = NuBBE_2520
REMARK  9 active torsions:
REMARK  status: ('A' for Active; 'I' for Inactive)
REMARK    1  A    between atoms: C_1  and  C_2
REMARK    2  A    between atoms: C_1  and  C_4
REMARK    3  A    between atoms: C_5  and  C_6
REMARK    4  A    between atoms: C_7  and  C_17
REMARK    5  A    between atoms: C_13  and  O_15
REMARK    6  A    between atoms: O_15  and  C_16
REMARK    7  A    between atoms: C_19  and  O_20
REMARK    8  A    between atoms: O_20  and  C_21
REMARK    9  A    between atoms: C_22  and  O_25
REMARK                            x       y       z     vdW  Elec       q    Type
REMARK                         _______ _______ _______ _____ _____    ______ ____
ROOT
ATOM      1  C   LIG A   1      -5.796   4.738 131.685  0.00  0.00    +0.039 C 
ATOM      2  C   LIG A   1      -7.031   5.232 132.514  0.00  0.00    +0.008 C 
ATOM      3  C   LIG A   1      -6.774   5.577 133.982  0.00  0.00    +0.009 C 
ATOM      4  C   LIG A   1      -7.583   6.509 131.749  0.00  0.00    +0.040 C 
ATOM      5  C   LIG A   1      -6.439   6.913 130.763  0.00  0.00    +0.132 C 
ATOM      6  C   LIG A   1      -6.211   5.448 130.429  0.00  0.00    +0.151 C 
ATOM      7  O   LIG A   1      -6.316   4.961 129.304  0.00  0.00    -0.296 OA
ATOM      8  C   LIG A   1      -4.984   7.362 130.511  0.00  0.00    +0.172 C 
ATOM      9  O   LIG A   1      -4.733   8.446 129.983  0.00  0.00    -0.294 OA
ATOM     10  C   LIG A   1      -3.861   6.383 130.986  0.00  0.00    +0.185 C 
ATOM     11  C   LIG A   1      -4.413   5.380 132.050  0.00  0.00    +0.054 C 
ENDROOT
BRANCH   4  12
ATOM     12  C   LIG A   1      -8.935   6.337 131.049  0.00  0.00    -0.039 A 
ATOM     13  C   LIG A   1      -9.453   7.369 130.240  0.00  0.00    +0.053 A 
ATOM     14  C   LIG A   1     -10.686   7.230 129.599  0.00  0.00    +0.162 A 
ATOM     15  C   LIG A   1     -11.405   6.046 129.764  0.00  0.00    +0.159 A 
ATOM     16  C   LIG A   1     -10.949   5.041 130.600  0.00  0.00    +0.049 A 
ATOM     17  C   LIG A   1      -9.728   5.196 131.258  0.00  0.00    +0.008 A 
BRANCH  14  18
ATOM     18  O   LIG A   1     -11.254   8.161 128.767  0.00  0.00    -0.491 OA
ATOM     19  C   LIG A   1     -10.721   8.203 127.447  0.00  0.00    +0.277 C 
ENDBRANCH  14  18
BRANCH  15  20
ATOM     20  O   LIG A   1     -12.596   5.864 129.118  0.00  0.00    -0.503 OA
ATOM     21  H   LIG A   1     -12.403   6.053 128.179  0.00  0.00    +0.292 HD
ENDBRANCH  15  20
ENDBRANCH   4  12
BRANCH  10  22
ATOM     22  O   LIG A   1      -3.293   5.602 129.942  0.00  0.00    -0.372 OA
ATOM     23  C   LIG A   1      -2.214   6.249 129.276  0.00  0.00    +0.195 C 
ENDBRANCH  10  22
BRANCH   1  24
ATOM     24  C   LIG A   1      -5.730   3.215 131.479  0.00  0.00    +0.041 C 
BRANCH  24  25
ATOM     25  C   LIG A   1      -6.955   2.455 131.914  0.00  0.00    -0.034 C 
ATOM     26  C   LIG A   1      -7.009   1.628 132.965  0.00  0.00    +0.004 C 
ENDBRANCH  24  25
ENDBRANCH   1  24
TORSDOF 6
ENDMDL
