MODEL 1
REMARK VINA RESULT:      -7.7      0.000      0.000
REMARK  Name = NuBBE_534
REMARK  10 active torsions:
REMARK  status: ('A' for Active; 'I' for Inactive)
REMARK    1  A    between atoms: O_1  and  C_2
REMARK    2  A    between atoms: C_4  and  O_5
REMARK    3  A    between atoms: C_8  and  O_9
REMARK    4  A    between atoms: O_9  and  C_10
REMARK    5  A    between atoms: C_14  and  O_19
REMARK    6  A    between atoms: C_16  and  O_18
REMARK    7  A    between atoms: C_20  and  O_22
REMARK    8  A    between atoms: C_23  and  C_27
REMARK    9  A    between atoms: C_29  and  O_30
REMARK   10  A    between atoms: C_31  and  O_34
REMARK                            x       y       z     vdW  Elec       q    Type
REMARK                         _______ _______ _______ _____ _____    ______ ____
ROOT
ATOM      1  C   LIG A   1      -5.200   2.059 126.308  0.00  0.00    +0.124 A 
ATOM      2  C   LIG A   1      -5.945   2.440 125.197  0.00  0.00    +0.091 A 
ATOM      3  C   LIG A   1      -7.013   3.322 125.369  0.00  0.00    +0.135 A 
ATOM      4  C   LIG A   1      -7.318   3.830 126.641  0.00  0.00    +0.109 A 
ATOM      5  C   LIG A   1      -8.376   4.828 126.874  0.00  0.00    +0.238 A 
ATOM      6  C   LIG A   1      -8.832   5.026 128.287  0.00  0.00    +0.214 A 
ATOM      7  C   LIG A   1      -8.019   4.561 129.261  0.00  0.00    +0.181 A 
ATOM      8  O   LIG A   1      -6.854   3.836 129.018  0.00  0.00    -0.451 OA
ATOM      9  C   LIG A   1      -6.589   3.408 127.744  0.00  0.00    +0.146 A 
ATOM     10  C   LIG A   1      -5.523   2.521 127.581  0.00  0.00    +0.092 A 
ATOM     11  O   LIG A   1      -8.880   5.443 125.946  0.00  0.00    -0.283 OA
ENDROOT
BRANCH   7  12
ATOM     12  C   LIG A   1      -8.251   4.777 130.721  0.00  0.00    +0.025 A 
ATOM     13  C   LIG A   1      -8.977   3.829 131.471  0.00  0.00    +0.060 A 
ATOM     14  C   LIG A   1      -9.127   3.985 132.848  0.00  0.00    +0.159 A 
ATOM     15  C   LIG A   1      -8.564   5.075 133.501  0.00  0.00    +0.158 A 
ATOM     16  C   LIG A   1      -7.849   6.024 132.793  0.00  0.00    +0.050 A 
ATOM     17  C   LIG A   1      -7.684   5.867 131.413  0.00  0.00    +0.015 A 
BRANCH  14  18
ATOM     18  O   LIG A   1      -9.813   3.079 133.612  0.00  0.00    -0.503 OA
ATOM     19  H   LIG A   1     -10.642   2.857 133.154  0.00  0.00    +0.292 HD
ENDBRANCH  14  18
BRANCH  15  20
ATOM     20  O   LIG A   1      -8.701   5.214 134.852  0.00  0.00    -0.503 OA
ATOM     21  H   LIG A   1      -9.523   5.732 134.964  0.00  0.00    +0.292 HD
ENDBRANCH  15  20
ENDBRANCH   7  12
BRANCH   1  22
ATOM     22  O   LIG A   1      -4.133   1.220 126.192  0.00  0.00    -0.506 OA
ATOM     23  H   LIG A   1      -4.237   0.671 125.396  0.00  0.00    +0.292 HD
ENDBRANCH   1  22
BRANCH   3  24
ATOM     24  O   LIG A   1      -7.778   3.652 124.285  0.00  0.00    -0.506 OA
ATOM     25  H   LIG A   1      -7.607   3.041 123.549  0.00  0.00    +0.292 HD
ENDBRANCH   3  24
BRANCH   6  26
ATOM     26  O   LIG A   1     -10.021   5.674 128.588  0.00  0.00    -0.453 OA
BRANCH  26  27
ATOM     27  C   LIG A   1     -10.188   7.074 128.319  0.00  0.00    +0.339 C 
ATOM     28  O   LIG A   1     -10.217   7.793 129.570  0.00  0.00    -0.337 OA
ATOM     29  C   LIG A   1     -11.344   7.483 130.398  0.00  0.00    +0.198 C 
ATOM     30  C   LIG A   1     -12.687   7.691 129.693  0.00  0.00    +0.171 C 
ATOM     31  C   LIG A   1     -12.695   7.000 128.333  0.00  0.00    +0.180 C 
ATOM     32  C   LIG A   1     -11.469   7.418 127.518  0.00  0.00    +0.214 C 
BRANCH  31  33
ATOM     33  O   LIG A   1     -13.887   7.374 127.618  0.00  0.00    -0.386 OA
ATOM     34  H   LIG A   1     -14.529   7.607 128.322  0.00  0.00    +0.210 HD
ENDBRANCH  31  33
BRANCH  30  35
ATOM     35  O   LIG A   1     -12.923   9.094 129.496  0.00  0.00    -0.387 OA
ATOM     36  H   LIG A   1     -13.567   9.138 128.759  0.00  0.00    +0.210 HD
ENDBRANCH  30  35
BRANCH  32  37
ATOM     37  O   LIG A   1     -11.576   6.812 126.220  0.00  0.00    -0.383 OA
ATOM     38  H   LIG A   1     -11.554   5.841 126.374  0.00  0.00    +0.210 HD
ENDBRANCH  32  37
ENDBRANCH  26  27
ENDBRANCH   6  26
TORSDOF 10
ENDMDL
MODEL 2
REMARK VINA RESULT:      -7.6      5.309      8.849
REMARK  Name = NuBBE_534
REMARK  10 active torsions:
REMARK  status: ('A' for Active; 'I' for Inactive)
REMARK    1  A    between atoms: O_1  and  C_2
REMARK    2  A    between atoms: C_4  and  O_5
REMARK    3  A    between atoms: C_8  and  O_9
REMARK    4  A    between atoms: O_9  and  C_10
REMARK    5  A    between atoms: C_14  and  O_19
REMARK    6  A    between atoms: C_16  and  O_18
REMARK    7  A    between atoms: C_20  and  O_22
REMARK    8  A    between atoms: C_23  and  C_27
REMARK    9  A    between atoms: C_29  and  O_30
REMARK   10  A    between atoms: C_31  and  O_34
REMARK                            x       y       z     vdW  Elec       q    Type
REMARK                         _______ _______ _______ _____ _____    ______ ____
ROOT
ATOM      1  C   LIG A   1      -4.494   5.482 127.994  0.00  0.00    +0.124 A 
ATOM      2  C   LIG A   1      -4.696   4.359 128.789  0.00  0.00    +0.091 A 
ATOM      3  C   LIG A   1      -5.126   3.174 128.188  0.00  0.00    +0.135 A 
ATOM      4  C   LIG A   1      -5.332   3.114 126.801  0.00  0.00    +0.109 A 
ATOM      5  C   LIG A   1      -5.701   1.873 126.099  0.00  0.00    +0.238 A 
ATOM      6  C   LIG A   1      -6.225   2.008 124.702  0.00  0.00    +0.214 A 
ATOM      7  C   LIG A   1      -5.988   3.179 124.071  0.00  0.00    +0.181 A 
ATOM      8  O   LIG A   1      -5.381   4.277 124.678  0.00  0.00    -0.451 OA
ATOM      9  C   LIG A   1      -5.164   4.256 126.030  0.00  0.00    +0.146 A 
ATOM     10  C   LIG A   1      -4.741   5.446 126.624  0.00  0.00    +0.092 A 
ATOM     11  O   LIG A   1      -5.612   0.785 126.648  0.00  0.00    -0.283 OA
ENDROOT
BRANCH   7  12
ATOM     12  C   LIG A   1      -6.326   3.445 122.641  0.00  0.00    +0.025 A 
ATOM     13  C   LIG A   1      -7.662   3.353 122.200  0.00  0.00    +0.060 A 
ATOM     14  C   LIG A   1      -7.996   3.679 120.886  0.00  0.00    +0.159 A 
ATOM     15  C   LIG A   1      -7.017   4.098 119.993  0.00  0.00    +0.158 A 
ATOM     16  C   LIG A   1      -5.697   4.195 120.393  0.00  0.00    +0.050 A 
ATOM     17  C   LIG A   1      -5.358   3.882 121.713  0.00  0.00    +0.015 A 
BRANCH  14  18
ATOM     18  O   LIG A   1      -9.283   3.615 120.425  0.00  0.00    -0.503 OA
ATOM     19  H   LIG A   1      -9.550   4.503 120.135  0.00  0.00    +0.292 HD
ENDBRANCH  14  18
BRANCH  15  20
ATOM     20  O   LIG A   1      -7.351   4.430 118.712  0.00  0.00    -0.503 OA
ATOM     21  H   LIG A   1      -6.611   4.094 118.169  0.00  0.00    +0.292 HD
ENDBRANCH  15  20
ENDBRANCH   7  12
BRANCH   1  22
ATOM     22  O   LIG A   1      -4.053   6.656 128.527  0.00  0.00    -0.506 OA
ATOM     23  H   LIG A   1      -3.320   6.480 129.141  0.00  0.00    +0.292 HD
ENDBRANCH   1  22
BRANCH   3  24
ATOM     24  O   LIG A   1      -5.377   2.086 128.979  0.00  0.00    -0.506 OA
ATOM     25  H   LIG A   1      -4.956   1.293 128.609  0.00  0.00    +0.292 HD
ENDBRANCH   3  24
BRANCH   6  26
ATOM     26  O   LIG A   1      -6.903   0.975 124.072  0.00  0.00    -0.453 OA
BRANCH  26  27
ATOM     27  C   LIG A   1      -7.858   0.174 124.785  0.00  0.00    +0.339 C 
ATOM     28  O   LIG A   1      -7.531  -1.220 124.602  0.00  0.00    -0.337 OA
ATOM     29  C   LIG A   1      -7.664  -1.680 123.252  0.00  0.00    +0.198 C 
ATOM     30  C   LIG A   1      -9.054  -1.431 122.662  0.00  0.00    +0.171 C 
ATOM     31  C   LIG A   1      -9.480   0.019 122.878  0.00  0.00    +0.180 C 
ATOM     32  C   LIG A   1      -9.328   0.401 124.352  0.00  0.00    +0.214 C 
BRANCH  31  33
ATOM     33  O   LIG A   1     -10.857   0.171 122.490  0.00  0.00    -0.386 OA
ATOM     34  H   LIG A   1     -10.822   0.321 121.522  0.00  0.00    +0.210 HD
ENDBRANCH  31  33
BRANCH  30  35
ATOM     35  O   LIG A   1     -10.015  -2.290 123.295  0.00  0.00    -0.387 OA
ATOM     36  H   LIG A   1      -9.613  -2.523 124.158  0.00  0.00    +0.210 HD
ENDBRANCH  30  35
BRANCH  32  37
ATOM     37  O   LIG A   1      -9.826   1.739 124.512  0.00  0.00    -0.383 OA
ATOM     38  H   LIG A   1     -10.110   2.030 123.617  0.00  0.00    +0.210 HD
ENDBRANCH  32  37
ENDBRANCH  26  27
ENDBRANCH   6  26
TORSDOF 10
ENDMDL
MODEL 3
REMARK VINA RESULT:      -7.3      2.119      6.422
REMARK  Name = NuBBE_534
REMARK  10 active torsions:
REMARK  status: ('A' for Active; 'I' for Inactive)
REMARK    1  A    between atoms: O_1  and  C_2
REMARK    2  A    between atoms: C_4  and  O_5
REMARK    3  A    between atoms: C_8  and  O_9
REMARK    4  A    between atoms: O_9  and  C_10
REMARK    5  A    between atoms: C_14  and  O_19
REMARK    6  A    between atoms: C_16  and  O_18
REMARK    7  A    between atoms: C_20  and  O_22
REMARK    8  A    between atoms: C_23  and  C_27
REMARK    9  A    between atoms: C_29  and  O_30
REMARK   10  A    between atoms: C_31  and  O_34
REMARK                            x       y       z     vdW  Elec       q    Type
REMARK                         _______ _______ _______ _____ _____    ______ ____
ROOT
ATOM      1  C   LIG A   1     -12.646   7.645 131.266  0.00  0.00    +0.124 A 
ATOM      2  C   LIG A   1     -12.440   8.384 130.107  0.00  0.00    +0.091 A 
ATOM      3  C   LIG A   1     -11.485   7.947 129.187  0.00  0.00    +0.135 A 
ATOM      4  C   LIG A   1     -10.757   6.770 129.423  0.00  0.00    +0.109 A 
ATOM      5  C   LIG A   1      -9.799   6.212 128.453  0.00  0.00    +0.238 A 
ATOM      6  C   LIG A   1      -8.847   5.170 128.954  0.00  0.00    +0.214 A 
ATOM      7  C   LIG A   1      -9.161   4.568 130.123  0.00  0.00    +0.181 A 
ATOM      8  O   LIG A   1     -10.248   4.931 130.914  0.00  0.00    -0.451 OA
ATOM      9  C   LIG A   1     -10.948   6.068 130.605  0.00  0.00    +0.146 A 
ATOM     10  C   LIG A   1     -11.897   6.502 131.532  0.00  0.00    +0.092 A 
ATOM     11  O   LIG A   1      -9.765   6.609 127.298  0.00  0.00    -0.283 OA
ENDROOT
BRANCH   7  12
ATOM     12  C   LIG A   1      -8.397   3.426 130.710  0.00  0.00    +0.025 A 
ATOM     13  C   LIG A   1      -8.868   2.106 130.555  0.00  0.00    +0.060 A 
ATOM     14  C   LIG A   1      -8.119   1.030 131.030  0.00  0.00    +0.159 A 
ATOM     15  C   LIG A   1      -6.900   1.243 131.663  0.00  0.00    +0.158 A 
ATOM     16  C   LIG A   1      -6.414   2.526 131.834  0.00  0.00    +0.050 A 
ATOM     17  C   LIG A   1      -7.153   3.609 131.348  0.00  0.00    +0.015 A 
BRANCH  14  18
ATOM     18  O   LIG A   1      -8.536  -0.266 130.887  0.00  0.00    -0.503 OA
ATOM     19  H   LIG A   1      -8.277  -0.762 131.682  0.00  0.00    +0.292 HD
ENDBRANCH  14  18
BRANCH  15  20
ATOM     20  O   LIG A   1      -6.164   0.186 132.112  0.00  0.00    -0.503 OA
ATOM     21  H   LIG A   1      -5.686   0.531 132.892  0.00  0.00    +0.292 HD
ENDBRANCH  15  20
ENDBRANCH   7  12
BRANCH   1  22
ATOM     22  O   LIG A   1     -13.583   8.015 132.185  0.00  0.00    -0.506 OA
ATOM     23  H   LIG A   1     -13.271   8.797 132.671  0.00  0.00    +0.292 HD
ENDBRANCH   1  22
BRANCH   3  24
ATOM     24  O   LIG A   1     -11.245   8.704 128.074  0.00  0.00    -0.506 OA
ATOM     25  H   LIG A   1     -11.953   9.357 127.947  0.00  0.00    +0.292 HD
ENDBRANCH   3  24
BRANCH   6  26
ATOM     26  O   LIG A   1      -7.707   4.819 128.246  0.00  0.00    -0.453 OA
BRANCH  26  27
ATOM     27  C   LIG A   1      -7.713   3.704 127.342  0.00  0.00    +0.339 C 
ATOM     28  O   LIG A   1      -6.604   2.836 127.660  0.00  0.00    -0.337 OA
ATOM     29  C   LIG A   1      -5.317   3.427 127.441  0.00  0.00    +0.198 C 
ATOM     30  C   LIG A   1      -5.126   3.949 126.015  0.00  0.00    +0.171 C 
ATOM     31  C   LIG A   1      -6.302   4.829 125.600  0.00  0.00    +0.180 C 
ATOM     32  C   LIG A   1      -7.623   4.098 125.846  0.00  0.00    +0.214 C 
BRANCH  31  33
ATOM     33  O   LIG A   1      -6.189   5.143 124.200  0.00  0.00    -0.386 OA
ATOM     34  H   LIG A   1      -5.276   5.487 124.101  0.00  0.00    +0.210 HD
ENDBRANCH  31  33
BRANCH  30  35
ATOM     35  O   LIG A   1      -5.033   2.847 125.099  0.00  0.00    -0.387 OA
ATOM     36  H   LIG A   1      -4.636   2.120 125.622  0.00  0.00    +0.210 HD
ENDBRANCH  30  35
BRANCH  32  37
ATOM     37  O   LIG A   1      -8.685   4.933 125.356  0.00  0.00    -0.383 OA
ATOM     38  H   LIG A   1      -8.280   5.811 125.185  0.00  0.00    +0.210 HD
ENDBRANCH  32  37
ENDBRANCH  26  27
ENDBRANCH   6  26
TORSDOF 10
ENDMDL
MODEL 4
REMARK VINA RESULT:      -7.3      4.347      8.550
REMARK  Name = NuBBE_534
REMARK  10 active torsions:
REMARK  status: ('A' for Active; 'I' for Inactive)
REMARK    1  A    between atoms: O_1  and  C_2
REMARK    2  A    between atoms: C_4  and  O_5
REMARK    3  A    between atoms: C_8  and  O_9
REMARK    4  A    between atoms: O_9  and  C_10
REMARK    5  A    between atoms: C_14  and  O_19
REMARK    6  A    between atoms: C_16  and  O_18
REMARK    7  A    between atoms: C_20  and  O_22
REMARK    8  A    between atoms: C_23  and  C_27
REMARK    9  A    between atoms: C_29  and  O_30
REMARK   10  A    between atoms: C_31  and  O_34
REMARK                            x       y       z     vdW  Elec       q    Type
REMARK                         _______ _______ _______ _____ _____    ______ ____
ROOT
ATOM      1  C   LIG A   1      -7.206   0.261 132.487  0.00  0.00    +0.124 A 
ATOM      2  C   LIG A   1      -7.474  -1.099 132.379  0.00  0.00    +0.091 A 
ATOM      3  C   LIG A   1      -7.476  -1.689 131.114  0.00  0.00    +0.135 A 
ATOM      4  C   LIG A   1      -7.195  -0.925 129.971  0.00  0.00    +0.109 A 
ATOM      5  C   LIG A   1      -7.097  -1.505 128.621  0.00  0.00    +0.238 A 
ATOM      6  C   LIG A   1      -7.139  -0.556 127.463  0.00  0.00    +0.214 A 
ATOM      7  C   LIG A   1      -6.901   0.747 127.733  0.00  0.00    +0.181 A 
ATOM      8  O   LIG A   1      -6.722   1.251 129.020  0.00  0.00    -0.451 OA
ATOM      9  C   LIG A   1      -6.969   0.440 130.095  0.00  0.00    +0.146 A 
ATOM     10  C   LIG A   1      -6.971   1.038 131.356  0.00  0.00    +0.092 A 
ATOM     11  O   LIG A   1      -7.019  -2.714 128.457  0.00  0.00    -0.283 OA
ENDROOT
BRANCH   7  12
ATOM     12  C   LIG A   1      -6.781   1.811 126.692  0.00  0.00    +0.025 A 
ATOM     13  C   LIG A   1      -7.896   2.610 126.364  0.00  0.00    +0.060 A 
ATOM     14  C   LIG A   1      -7.769   3.657 125.452  0.00  0.00    +0.159 A 
ATOM     15  C   LIG A   1      -6.544   3.927 124.853  0.00  0.00    +0.158 A 
ATOM     16  C   LIG A   1      -5.434   3.159 125.151  0.00  0.00    +0.050 A 
ATOM     17  C   LIG A   1      -5.551   2.116 126.074  0.00  0.00    +0.015 A 
BRANCH  14  18
ATOM     18  O   LIG A   1      -8.824   4.463 125.119  0.00  0.00    -0.503 OA
ATOM     19  H   LIG A   1      -9.626   4.110 125.542  0.00  0.00    +0.292 HD
ENDBRANCH  14  18
BRANCH  15  20
ATOM     20  O   LIG A   1      -6.422   4.963 123.973  0.00  0.00    -0.503 OA
ATOM     21  H   LIG A   1      -7.112   4.797 123.300  0.00  0.00    +0.292 HD
ENDBRANCH  15  20
ENDBRANCH   7  12
BRANCH   1  22
ATOM     22  O   LIG A   1      -7.168   0.882 133.700  0.00  0.00    -0.506 OA
ATOM     23  H   LIG A   1      -8.004   0.723 134.172  0.00  0.00    +0.292 HD
ENDBRANCH   1  22
BRANCH   3  24
ATOM     24  O   LIG A   1      -7.794  -3.015 131.005  0.00  0.00    -0.506 OA
ATOM     25  H   LIG A   1      -7.509  -3.499 131.797  0.00  0.00    +0.292 HD
ENDBRANCH   3  24
BRANCH   6  26
ATOM     26  O   LIG A   1      -7.388  -0.990 126.170  0.00  0.00    -0.453 OA
BRANCH  26  27
ATOM     27  C   LIG A   1      -8.701  -0.896 125.599  0.00  0.00    +0.339 C 
ATOM     28  O   LIG A   1      -9.472  -2.048 126.002  0.00  0.00    -0.337 OA
ATOM     29  C   LIG A   1      -8.981  -3.291 125.487  0.00  0.00    +0.198 C 
ATOM     30  C   LIG A   1      -8.856  -3.307 123.962  0.00  0.00    +0.171 C 
ATOM     31  C   LIG A   1      -8.098  -2.077 123.470  0.00  0.00    +0.180 C 
ATOM     32  C   LIG A   1      -8.717  -0.805 124.052  0.00  0.00    +0.214 C 
BRANCH  31  33
ATOM     33  O   LIG A   1      -8.166  -2.022 122.033  0.00  0.00    -0.386 OA
ATOM     34  H   LIG A   1      -9.098  -1.781 121.843  0.00  0.00    +0.210 HD
ENDBRANCH  31  33
BRANCH  30  35
ATOM     35  O   LIG A   1     -10.163  -3.309 123.365  0.00  0.00    -0.387 OA
ATOM     36  H   LIG A   1     -10.667  -3.979 123.870  0.00  0.00    +0.210 HD
ENDBRANCH  30  35
BRANCH  32  37
ATOM     37  O   LIG A   1      -8.024   0.319 123.486  0.00  0.00    -0.383 OA
ATOM     38  H   LIG A   1      -7.862   0.939 124.231  0.00  0.00    +0.210 HD
ENDBRANCH  32  37
ENDBRANCH  26  27
ENDBRANCH   6  26
TORSDOF 10
ENDMDL
MODEL 5
REMARK VINA RESULT:      -7.2      3.669      5.620
REMARK  Name = NuBBE_534
REMARK  10 active torsions:
REMARK  status: ('A' for Active; 'I' for Inactive)
REMARK    1  A    between atoms: O_1  and  C_2
REMARK    2  A    between atoms: C_4  and  O_5
REMARK    3  A    between atoms: C_8  and  O_9
REMARK    4  A    between atoms: O_9  and  C_10
REMARK    5  A    between atoms: C_14  and  O_19
REMARK    6  A    between atoms: C_16  and  O_18
REMARK    7  A    between atoms: C_20  and  O_22
REMARK    8  A    between atoms: C_23  and  C_27
REMARK    9  A    between atoms: C_29  and  O_30
REMARK   10  A    between atoms: C_31  and  O_34
REMARK                            x       y       z     vdW  Elec       q    Type
REMARK                         _______ _______ _______ _____ _____    ______ ____
ROOT
ATOM      1  C   LIG A   1      -1.862   6.086 131.352  0.00  0.00    +0.124 A 
ATOM      2  C   LIG A   1      -1.576   6.480 130.049  0.00  0.00    +0.091 A 
ATOM      3  C   LIG A   1      -2.453   6.119 129.025  0.00  0.00    +0.135 A 
ATOM      4  C   LIG A   1      -3.616   5.386 129.310  0.00  0.00    +0.109 A 
ATOM      5  C   LIG A   1      -4.622   5.049 128.289  0.00  0.00    +0.238 A 
ATOM      6  C   LIG A   1      -5.620   3.987 128.635  0.00  0.00    +0.214 A 
ATOM      7  C   LIG A   1      -5.755   3.680 129.945  0.00  0.00    +0.181 A 
ATOM      8  O   LIG A   1      -4.960   4.221 130.953  0.00  0.00    -0.451 OA
ATOM      9  C   LIG A   1      -3.864   4.967 130.610  0.00  0.00    +0.146 A 
ATOM     10  C   LIG A   1      -2.988   5.319 131.638  0.00  0.00    +0.092 A 
ATOM     11  O   LIG A   1      -4.619   5.594 127.195  0.00  0.00    -0.283 OA
ENDROOT
BRANCH   7  12
ATOM     12  C   LIG A   1      -6.783   2.740 130.484  0.00  0.00    +0.025 A 
ATOM     13  C   LIG A   1      -7.974   3.241 131.049  0.00  0.00    +0.060 A 
ATOM     14  C   LIG A   1      -8.971   2.367 131.480  0.00  0.00    +0.159 A 
ATOM     15  C   LIG A   1      -8.806   0.992 131.360  0.00  0.00    +0.158 A 
ATOM     16  C   LIG A   1      -7.647   0.470 130.815  0.00  0.00    +0.050 A 
ATOM     17  C   LIG A   1      -6.648   1.341 130.368  0.00  0.00    +0.015 A 
BRANCH  14  18
ATOM     18  O   LIG A   1     -10.146   2.815 132.021  0.00  0.00    -0.503 OA
ATOM     19  H   LIG A   1     -10.080   2.760 132.989  0.00  0.00    +0.292 HD
ENDBRANCH  14  18
BRANCH  15  20
ATOM     20  O   LIG A   1      -9.791   0.142 131.770  0.00  0.00    -0.503 OA
ATOM     21  H   LIG A   1     -10.107   0.519 132.615  0.00  0.00    +0.292 HD
ENDBRANCH  15  20
ENDBRANCH   7  12
BRANCH   1  22
ATOM     22  O   LIG A   1      -1.051   6.432 132.391  0.00  0.00    -0.506 OA
ATOM     23  H   LIG A   1      -1.569   6.905 133.064  0.00  0.00    +0.292 HD
ENDBRANCH   1  22
BRANCH   3  24
ATOM     24  O   LIG A   1      -2.142   6.460 127.738  0.00  0.00    -0.506 OA
ATOM     25  H   LIG A   1      -1.248   6.157 127.513  0.00  0.00    +0.292 HD
ENDBRANCH   3  24
BRANCH   6  26
ATOM     26  O   LIG A   1      -6.388   3.360 127.665  0.00  0.00    -0.453 OA
BRANCH  26  27
ATOM     27  C   LIG A   1      -7.723   3.802 127.380  0.00  0.00    +0.339 C 
ATOM     28  O   LIG A   1      -8.628   2.687 127.528  0.00  0.00    -0.337 OA
ATOM     29  C   LIG A   1      -8.422   1.635 126.578  0.00  0.00    +0.198 C 
ATOM     30  C   LIG A   1      -8.482   2.113 125.125  0.00  0.00    +0.171 C 
ATOM     31  C   LIG A   1      -7.587   3.331 124.920  0.00  0.00    +0.180 C 
ATOM     32  C   LIG A   1      -7.905   4.404 125.964  0.00  0.00    +0.214 C 
BRANCH  31  33
ATOM     33  O   LIG A   1      -7.813   3.870 123.604  0.00  0.00    -0.386 OA
ATOM     34  H   LIG A   1      -7.389   4.754 123.628  0.00  0.00    +0.210 HD
ENDBRANCH  31  33
BRANCH  30  35
ATOM     35  O   LIG A   1      -9.831   2.472 124.784  0.00  0.00    -0.387 OA
ATOM     36  H   LIG A   1     -10.221   2.799 125.620  0.00  0.00    +0.210 HD
ENDBRANCH  30  35
BRANCH  32  37
ATOM     37  O   LIG A   1      -7.100   5.557 125.668  0.00  0.00    -0.383 OA
ATOM     38  H   LIG A   1      -6.215   5.211 125.417  0.00  0.00    +0.210 HD
ENDBRANCH  32  37
ENDBRANCH  26  27
ENDBRANCH   6  26
TORSDOF 10
ENDMDL
MODEL 6
REMARK VINA RESULT:      -7.2      5.597      7.347
REMARK  Name = NuBBE_534
REMARK  10 active torsions:
REMARK  status: ('A' for Active; 'I' for Inactive)
REMARK    1  A    between atoms: O_1  and  C_2
REMARK    2  A    between atoms: C_4  and  O_5
REMARK    3  A    between atoms: C_8  and  O_9
REMARK    4  A    between atoms: O_9  and  C_10
REMARK    5  A    between atoms: C_14  and  O_19
REMARK    6  A    between atoms: C_16  and  O_18
REMARK    7  A    between atoms: C_20  and  O_22
REMARK    8  A    between atoms: C_23  and  C_27
REMARK    9  A    between atoms: C_29  and  O_30
REMARK   10  A    between atoms: C_31  and  O_34
REMARK                            x       y       z     vdW  Elec       q    Type
REMARK                         _______ _______ _______ _____ _____    ______ ____
ROOT
ATOM      1  C   LIG A   1      -7.189  -2.567 130.130  0.00  0.00    +0.124 A 
ATOM      2  C   LIG A   1      -7.971  -3.008 129.069  0.00  0.00    +0.091 A 
ATOM      3  C   LIG A   1      -7.863  -2.364 127.836  0.00  0.00    +0.135 A 
ATOM      4  C   LIG A   1      -6.964  -1.299 127.665  0.00  0.00    +0.109 A 
ATOM      5  C   LIG A   1      -6.742  -0.636 126.369  0.00  0.00    +0.238 A 
ATOM      6  C   LIG A   1      -6.036   0.684 126.388  0.00  0.00    +0.214 A 
ATOM      7  C   LIG A   1      -5.350   0.994 127.511  0.00  0.00    +0.181 A 
ATOM      8  O   LIG A   1      -5.350   0.207 128.660  0.00  0.00    -0.451 OA
ATOM      9  C   LIG A   1      -6.220  -0.847 128.747  0.00  0.00    +0.146 A 
ATOM     10  C   LIG A   1      -6.328  -1.483 129.985  0.00  0.00    +0.092 A 
ATOM     11  O   LIG A   1      -7.147  -1.132 125.328  0.00  0.00    -0.283 OA
ENDROOT
BRANCH   7  12
ATOM     12  C   LIG A   1      -4.490   2.206 127.661  0.00  0.00    +0.025 A 
ATOM     13  C   LIG A   1      -3.298   2.325 126.917  0.00  0.00    +0.060 A 
ATOM     14  C   LIG A   1      -2.533   3.489 126.992  0.00  0.00    +0.159 A 
ATOM     15  C   LIG A   1      -2.934   4.546 127.801  0.00  0.00    +0.158 A 
ATOM     16  C   LIG A   1      -4.095   4.458 128.546  0.00  0.00    +0.050 A 
ATOM     17  C   LIG A   1      -4.874   3.299 128.465  0.00  0.00    +0.015 A 
BRANCH  14  18
ATOM     18  O   LIG A   1      -1.378   3.646 126.275  0.00  0.00    -0.503 OA
ATOM     19  H   LIG A   1      -0.800   2.884 126.451  0.00  0.00    +0.292 HD
ENDBRANCH  14  18
BRANCH  15  20
ATOM     20  O   LIG A   1      -2.190   5.688 127.859  0.00  0.00    -0.503 OA
ATOM     21  H   LIG A   1      -1.563   5.537 128.594  0.00  0.00    +0.292 HD
ENDBRANCH  15  20
ENDBRANCH   7  12
BRANCH   1  22
ATOM     22  O   LIG A   1      -7.239  -3.176 131.349  0.00  0.00    -0.506 OA
ATOM     23  H   LIG A   1      -8.152  -3.158 131.684  0.00  0.00    +0.292 HD
ENDBRANCH   1  22
BRANCH   3  24
ATOM     24  O   LIG A   1      -8.673  -2.763 126.809  0.00  0.00    -0.506 OA
ATOM     25  H   LIG A   1      -9.509  -2.268 126.822  0.00  0.00    +0.292 HD
ENDBRANCH   3  24
BRANCH   6  26
ATOM     26  O   LIG A   1      -6.063   1.544 125.300  0.00  0.00    -0.453 OA
BRANCH  26  27
ATOM     27  C   LIG A   1      -7.033   2.599 125.216  0.00  0.00    +0.339 C 
ATOM     28  O   LIG A   1      -8.227   2.089 124.585  0.00  0.00    -0.337 OA
ATOM     29  C   LIG A   1      -8.048   1.701 123.218  0.00  0.00    +0.198 C 
ATOM     30  C   LIG A   1      -7.482   2.821 122.341  0.00  0.00    +0.171 C 
ATOM     31  C   LIG A   1      -6.246   3.440 122.988  0.00  0.00    +0.180 C 
ATOM     32  C   LIG A   1      -6.550   3.845 124.431  0.00  0.00    +0.214 C 
BRANCH  31  33
ATOM     33  O   LIG A   1      -5.856   4.608 122.241  0.00  0.00    -0.386 OA
ATOM     34  H   LIG A   1      -6.271   5.354 122.723  0.00  0.00    +0.210 HD
ENDBRANCH  31  33
BRANCH  30  35
ATOM     35  O   LIG A   1      -8.470   3.848 122.162  0.00  0.00    -0.387 OA
ATOM     36  H   LIG A   1      -9.326   3.373 122.150  0.00  0.00    +0.210 HD
ENDBRANCH  30  35
BRANCH  32  37
ATOM     37  O   LIG A   1      -5.385   4.501 124.958  0.00  0.00    -0.383 OA
ATOM     38  H   LIG A   1      -4.623   4.145 124.451  0.00  0.00    +0.210 HD
ENDBRANCH  32  37
ENDBRANCH  26  27
ENDBRANCH   6  26
TORSDOF 10
ENDMDL
MODEL 7
REMARK VINA RESULT:      -7.2      3.408      5.504
REMARK  Name = NuBBE_534
REMARK  10 active torsions:
REMARK  status: ('A' for Active; 'I' for Inactive)
REMARK    1  A    between atoms: O_1  and  C_2
REMARK    2  A    between atoms: C_4  and  O_5
REMARK    3  A    between atoms: C_8  and  O_9
REMARK    4  A    between atoms: O_9  and  C_10
REMARK    5  A    between atoms: C_14  and  O_19
REMARK    6  A    between atoms: C_16  and  O_18
REMARK    7  A    between atoms: C_20  and  O_22
REMARK    8  A    between atoms: C_23  and  C_27
REMARK    9  A    between atoms: C_29  and  O_30
REMARK   10  A    between atoms: C_31  and  O_34
REMARK                            x       y       z     vdW  Elec       q    Type
REMARK                         _______ _______ _______ _____ _____    ______ ____
ROOT
ATOM      1  C   LIG A   1      -9.879   1.403 123.325  0.00  0.00    +0.124 A 
ATOM      2  C   LIG A   1      -9.001   2.226 122.629  0.00  0.00    +0.091 A 
ATOM      3  C   LIG A   1      -8.036   2.941 123.341  0.00  0.00    +0.135 A 
ATOM      4  C   LIG A   1      -7.943   2.816 124.736  0.00  0.00    +0.109 A 
ATOM      5  C   LIG A   1      -6.895   3.476 125.532  0.00  0.00    +0.238 A 
ATOM      6  C   LIG A   1      -7.105   3.549 127.013  0.00  0.00    +0.214 A 
ATOM      7  C   LIG A   1      -8.028   2.714 127.541  0.00  0.00    +0.181 A 
ATOM      8  O   LIG A   1      -8.843   1.879 126.779  0.00  0.00    -0.451 OA
ATOM      9  C   LIG A   1      -8.854   2.020 125.417  0.00  0.00    +0.146 A 
ATOM     10  C   LIG A   1      -9.825   1.307 124.713  0.00  0.00    +0.092 A 
ATOM     11  O   LIG A   1      -5.912   3.969 124.999  0.00  0.00    -0.283 OA
ENDROOT
BRANCH   7  12
ATOM     12  C   LIG A   1      -8.282   2.563 129.005  0.00  0.00    +0.025 A 
ATOM     13  C   LIG A   1      -9.106   3.487 129.680  0.00  0.00    +0.060 A 
ATOM     14  C   LIG A   1      -9.412   3.305 131.028  0.00  0.00    +0.159 A 
ATOM     15  C   LIG A   1      -8.910   2.212 131.725  0.00  0.00    +0.158 A 
ATOM     16  C   LIG A   1      -8.096   1.291 131.092  0.00  0.00    +0.050 A 
ATOM     17  C   LIG A   1      -7.795   1.460 129.737  0.00  0.00    +0.015 A 
BRANCH  14  18
ATOM     18  O   LIG A   1     -10.218   4.173 131.714  0.00  0.00    -0.503 OA
ATOM     19  H   LIG A   1     -10.254   5.012 131.224  0.00  0.00    +0.292 HD
ENDBRANCH  14  18
BRANCH  15  20
ATOM     20  O   LIG A   1      -9.225   2.031 133.040  0.00  0.00    -0.503 OA
ATOM     21  H   LIG A   1      -8.379   2.150 133.516  0.00  0.00    +0.292 HD
ENDBRANCH  15  20
ENDBRANCH   7  12
BRANCH   1  22
ATOM     22  O   LIG A   1     -10.823   0.665 122.676  0.00  0.00    -0.506 OA
ATOM     23  H   LIG A   1     -11.709   0.979 122.927  0.00  0.00    +0.292 HD
ENDBRANCH   1  22
BRANCH   3  24
ATOM     24  O   LIG A   1      -7.209   3.792 122.660  0.00  0.00    -0.506 OA
ATOM     25  H   LIG A   1      -6.450   4.041 123.212  0.00  0.00    +0.292 HD
ENDBRANCH   3  24
BRANCH   6  26
ATOM     26  O   LIG A   1      -6.375   4.415 127.814  0.00  0.00    -0.453 OA
BRANCH  26  27
ATOM     27  C   LIG A   1      -5.198   3.969 128.504  0.00  0.00    +0.339 C 
ATOM     28  O   LIG A   1      -5.352   4.234 129.914  0.00  0.00    -0.337 OA
ATOM     29  C   LIG A   1      -5.417   5.626 130.246  0.00  0.00    +0.198 C 
ATOM     30  C   LIG A   1      -4.216   6.425 129.736  0.00  0.00    +0.171 C 
ATOM     31  C   LIG A   1      -3.966   6.140 128.257  0.00  0.00    +0.180 C 
ATOM     32  C   LIG A   1      -3.886   4.632 128.015  0.00  0.00    +0.214 C 
BRANCH  31  33
ATOM     33  O   LIG A   1      -2.724   6.750 127.860  0.00  0.00    -0.386 OA
ATOM     34  H   LIG A   1      -2.676   6.595 126.893  0.00  0.00    +0.210 HD
ENDBRANCH  31  33
BRANCH  30  35
ATOM     35  O   LIG A   1      -3.039   6.066 130.477  0.00  0.00    -0.387 OA
ATOM     36  H   LIG A   1      -3.305   5.285 131.005  0.00  0.00    +0.210 HD
ENDBRANCH  30  35
BRANCH  32  37
ATOM     37  O   LIG A   1      -3.561   4.426 126.630  0.00  0.00    -0.383 OA
ATOM     38  H   LIG A   1      -3.158   5.267 126.320  0.00  0.00    +0.210 HD
ENDBRANCH  32  37
ENDBRANCH  26  27
ENDBRANCH   6  26
TORSDOF 10
ENDMDL
MODEL 8
REMARK VINA RESULT:      -7.1      2.584      3.764
REMARK  Name = NuBBE_534
REMARK  10 active torsions:
REMARK  status: ('A' for Active; 'I' for Inactive)
REMARK    1  A    between atoms: O_1  and  C_2
REMARK    2  A    between atoms: C_4  and  O_5
REMARK    3  A    between atoms: C_8  and  O_9
REMARK    4  A    between atoms: O_9  and  C_10
REMARK    5  A    between atoms: C_14  and  O_19
REMARK    6  A    between atoms: C_16  and  O_18
REMARK    7  A    between atoms: C_20  and  O_22
REMARK    8  A    between atoms: C_23  and  C_27
REMARK    9  A    between atoms: C_29  and  O_30
REMARK   10  A    between atoms: C_31  and  O_34
REMARK                            x       y       z     vdW  Elec       q    Type
REMARK                         _______ _______ _______ _____ _____    ______ ____
ROOT
ATOM      1  C   LIG A   1      -7.149   0.836 124.601  0.00  0.00    +0.124 A 
ATOM      2  C   LIG A   1      -7.753   2.004 124.150  0.00  0.00    +0.091 A 
ATOM      3  C   LIG A   1      -8.076   2.999 125.075  0.00  0.00    +0.135 A 
ATOM      4  C   LIG A   1      -7.778   2.829 126.436  0.00  0.00    +0.109 A 
ATOM      5  C   LIG A   1      -8.014   3.875 127.445  0.00  0.00    +0.238 A 
ATOM      6  C   LIG A   1      -7.984   3.458 128.883  0.00  0.00    +0.214 A 
ATOM      7  C   LIG A   1      -7.400   2.271 129.162  0.00  0.00    +0.181 A 
ATOM      8  O   LIG A   1      -6.925   1.394 128.190  0.00  0.00    -0.451 OA
ATOM      9  C   LIG A   1      -7.211   1.640 126.873  0.00  0.00    +0.146 A 
ATOM     10  C   LIG A   1      -6.891   0.638 125.955  0.00  0.00    +0.092 A 
ATOM     11  O   LIG A   1      -8.257   5.027 127.117  0.00  0.00    -0.283 OA
ENDROOT
BRANCH   7  12
ATOM     12  C   LIG A   1      -7.170   1.753 130.545  0.00  0.00    +0.025 A 
ATOM     13  C   LIG A   1      -7.941   0.679 131.036  0.00  0.00    +0.060 A 
ATOM     14  C   LIG A   1      -7.676   0.139 132.294  0.00  0.00    +0.159 A 
ATOM     15  C   LIG A   1      -6.652   0.652 133.081  0.00  0.00    +0.158 A 
ATOM     16  C   LIG A   1      -5.882   1.708 132.629  0.00  0.00    +0.050 A 
ATOM     17  C   LIG A   1      -6.133   2.246 131.363  0.00  0.00    +0.015 A 
BRANCH  14  18
ATOM     18  O   LIG A   1      -8.393  -0.911 132.799  0.00  0.00    -0.503 OA
ATOM     19  H   LIG A   1      -8.992  -1.236 132.106  0.00  0.00    +0.292 HD
ENDBRANCH  14  18
BRANCH  15  20
ATOM     20  O   LIG A   1      -6.388   0.110 134.305  0.00  0.00    -0.503 OA
ATOM     21  H   LIG A   1      -5.667   0.662 134.669  0.00  0.00    +0.292 HD
ENDBRANCH  15  20
ENDBRANCH   7  12
BRANCH   1  22
ATOM     22  O   LIG A   1      -6.792  -0.156 123.738  0.00  0.00    -0.506 OA
ATOM     23  H   LIG A   1      -6.165  -0.758 124.175  0.00  0.00    +0.292 HD
ENDBRANCH   1  22
BRANCH   3  24
ATOM     24  O   LIG A   1      -8.719   4.124 124.637  0.00  0.00    -0.506 OA
ATOM     25  H   LIG A   1      -8.114   4.684 124.124  0.00  0.00    +0.292 HD
ENDBRANCH   3  24
BRANCH   6  26
ATOM     26  O   LIG A   1      -8.509   4.256 129.888  0.00  0.00    -0.453 OA
BRANCH  26  27
ATOM     27  C   LIG A   1      -9.725   3.895 130.560  0.00  0.00    +0.339 C 
ATOM     28  O   LIG A   1     -10.844   4.444 129.832  0.00  0.00    -0.337 OA
ATOM     29  C   LIG A   1     -10.891   5.875 129.822  0.00  0.00    +0.198 C 
ATOM     30  C   LIG A   1     -10.880   6.491 131.223  0.00  0.00    +0.171 C 
ATOM     31  C   LIG A   1      -9.749   5.903 132.062  0.00  0.00    +0.180 C 
ATOM     32  C   LIG A   1      -9.805   4.375 132.031  0.00  0.00    +0.214 C 
BRANCH  31  33
ATOM     33  O   LIG A   1      -9.885   6.354 133.423  0.00  0.00    -0.386 OA
ATOM     34  H   LIG A   1      -9.026   6.130 133.839  0.00  0.00    +0.210 HD
ENDBRANCH  31  33
BRANCH  30  35
ATOM     35  O   LIG A   1     -12.128   6.224 131.884  0.00  0.00    -0.387 OA
ATOM     36  H   LIG A   1     -11.987   5.373 132.349  0.00  0.00    +0.210 HD
ENDBRANCH  30  35
BRANCH  32  37
ATOM     37  O   LIG A   1      -8.779   3.880 132.906  0.00  0.00    -0.383 OA
ATOM     38  H   LIG A   1      -8.985   4.242 133.796  0.00  0.00    +0.210 HD
ENDBRANCH  32  37
ENDBRANCH  26  27
ENDBRANCH   6  26
TORSDOF 10
ENDMDL
MODEL 9
REMARK VINA RESULT:      -7.0      4.962      8.471
REMARK  Name = NuBBE_534
REMARK  10 active torsions:
REMARK  status: ('A' for Active; 'I' for Inactive)
REMARK    1  A    between atoms: O_1  and  C_2
REMARK    2  A    between atoms: C_4  and  O_5
REMARK    3  A    between atoms: C_8  and  O_9
REMARK    4  A    between atoms: O_9  and  C_10
REMARK    5  A    between atoms: C_14  and  O_19
REMARK    6  A    between atoms: C_16  and  O_18
REMARK    7  A    between atoms: C_20  and  O_22
REMARK    8  A    between atoms: C_23  and  C_27
REMARK    9  A    between atoms: C_29  and  O_30
REMARK   10  A    between atoms: C_31  and  O_34
REMARK                            x       y       z     vdW  Elec       q    Type
REMARK                         _______ _______ _______ _____ _____    ______ ____
ROOT
ATOM      1  C   LIG A   1      -5.622  -4.253 131.669  0.00  0.00    +0.124 A 
ATOM      2  C   LIG A   1      -5.529  -3.095 132.432  0.00  0.00    +0.091 A 
ATOM      3  C   LIG A   1      -5.885  -1.874 131.855  0.00  0.00    +0.135 A 
ATOM      4  C   LIG A   1      -6.348  -1.822 130.531  0.00  0.00    +0.109 A 
ATOM      5  C   LIG A   1      -6.819  -0.580 129.894  0.00  0.00    +0.238 A 
ATOM      6  C   LIG A   1      -6.954  -0.584 128.403  0.00  0.00    +0.214 A 
ATOM      7  C   LIG A   1      -6.986  -1.791 127.796  0.00  0.00    +0.181 A 
ATOM      8  O   LIG A   1      -6.805  -2.999 128.465  0.00  0.00    -0.451 OA
ATOM      9  C   LIG A   1      -6.396  -2.983 129.772  0.00  0.00    +0.146 A 
ATOM     10  C   LIG A   1      -6.036  -4.206 130.340  0.00  0.00    +0.092 A 
ATOM     11  O   LIG A   1      -7.058   0.419 130.557  0.00  0.00    -0.283 OA
ENDROOT
BRANCH   7  12
ATOM     12  C   LIG A   1      -7.238  -1.990 126.337  0.00  0.00    +0.025 A 
ATOM     13  C   LIG A   1      -8.491  -2.459 125.892  0.00  0.00    +0.060 A 
ATOM     14  C   LIG A   1      -8.759  -2.569 124.528  0.00  0.00    +0.159 A 
ATOM     15  C   LIG A   1      -7.795  -2.220 123.589  0.00  0.00    +0.158 A 
ATOM     16  C   LIG A   1      -6.555  -1.762 123.994  0.00  0.00    +0.050 A 
ATOM     17  C   LIG A   1      -6.285  -1.636 125.360  0.00  0.00    +0.015 A 
BRANCH  14  18
ATOM     18  O   LIG A   1      -9.967  -3.007 124.058  0.00  0.00    -0.503 OA
ATOM     19  H   LIG A   1     -10.621  -2.934 124.774  0.00  0.00    +0.292 HD
ENDBRANCH  14  18
BRANCH  15  20
ATOM     20  O   LIG A   1      -8.068  -2.316 122.255  0.00  0.00    -0.503 OA
ATOM     21  H   LIG A   1      -9.014  -2.080 122.179  0.00  0.00    +0.292 HD
ENDBRANCH  15  20
ENDBRANCH   7  12
BRANCH   1  22
ATOM     22  O   LIG A   1      -5.309  -5.472 132.191  0.00  0.00    -0.506 OA
ATOM     23  H   LIG A   1      -6.094  -6.046 132.170  0.00  0.00    +0.292 HD
ENDBRANCH   1  22
BRANCH   3  24
ATOM     24  O   LIG A   1      -5.741  -0.729 132.589  0.00  0.00    -0.506 OA
ATOM     25  H   LIG A   1      -5.102  -0.133 132.166  0.00  0.00    +0.292 HD
ENDBRANCH   3  24
BRANCH   6  26
ATOM     26  O   LIG A   1      -7.063   0.592 127.675  0.00  0.00    -0.453 OA
BRANCH  26  27
ATOM     27  C   LIG A   1      -8.296   1.325 127.636  0.00  0.00    +0.339 C 
ATOM     28  O   LIG A   1      -8.909   1.144 126.342  0.00  0.00    -0.337 OA
ATOM     29  C   LIG A   1      -8.162   1.704 125.255  0.00  0.00    +0.198 C 
ATOM     30  C   LIG A   1      -7.855   3.192 125.437  0.00  0.00    +0.171 C 
ATOM     31  C   LIG A   1      -7.256   3.455 126.815  0.00  0.00    +0.180 C 
ATOM     32  C   LIG A   1      -8.141   2.844 127.903  0.00  0.00    +0.214 C 
BRANCH  31  33
ATOM     33  O   LIG A   1      -7.160   4.876 127.027  0.00  0.00    -0.386 OA
ATOM     34  H   LIG A   1      -6.197   5.060 127.007  0.00  0.00    +0.210 HD
ENDBRANCH  31  33
BRANCH  30  35
ATOM     35  O   LIG A   1      -9.062   3.960 125.307  0.00  0.00    -0.387 OA
ATOM     36  H   LIG A   1      -9.633   3.429 124.714  0.00  0.00    +0.210 HD
ENDBRANCH  30  35
BRANCH  32  37
ATOM     37  O   LIG A   1      -7.580   3.199 129.177  0.00  0.00    -0.383 OA
ATOM     38  H   LIG A   1      -8.344   3.385 129.766  0.00  0.00    +0.210 HD
ENDBRANCH  32  37
ENDBRANCH  26  27
ENDBRANCH   6  26
TORSDOF 10
ENDMDL
