MODEL 1
REMARK VINA RESULT:      -6.9      0.000      0.000
REMARK  Name = NuBBE_935
REMARK  7 active torsions:
REMARK  status: ('A' for Active; 'I' for Inactive)
REMARK    1  A    between atoms: O_1  and  C_2
REMARK    2  A    between atoms: O_1  and  C_3
REMARK    3  A    between atoms: C_14  and  C_19
REMARK    4  A    between atoms: C_16  and  O_18
REMARK    5  A    between atoms: C_19  and  C_20
REMARK    6  A    between atoms: C_19  and  C_21
REMARK    7  A    between atoms: C_19  and  O_22
REMARK                            x       y       z     vdW  Elec       q    Type
REMARK                         _______ _______ _______ _____ _____    ______ ____
ROOT
ATOM      1  C   LIG A   1     -11.536   6.462 130.564  0.00  0.00    +0.140 A 
ATOM      2  C   LIG A   1     -10.358   5.962 131.085  0.00  0.00    +0.088 A 
ATOM      3  C   LIG A   1      -9.281   5.833 130.233  0.00  0.00    +0.225 A 
ATOM      4  N   LIG A   1      -9.250   6.153 128.936  0.00  0.00    -0.212 NA
ATOM      5  C   LIG A   1     -10.384   6.648 128.425  0.00  0.00    +0.078 A 
ATOM      6  C   LIG A   1     -11.569   6.817 129.191  0.00  0.00    +0.043 A 
ATOM      7  C   LIG A   1     -12.722   7.325 128.552  0.00  0.00    +0.013 A 
ATOM      8  C   LIG A   1     -12.713   7.662 127.200  0.00  0.00    +0.001 A 
ATOM      9  C   LIG A   1     -11.550   7.493 126.460  0.00  0.00    +0.002 A 
ATOM     10  C   LIG A   1     -10.404   6.990 127.079  0.00  0.00    +0.028 A 
ATOM     11  O   LIG A   1      -8.188   5.188 130.787  0.00  0.00    -0.467 OA
ATOM     12  C   LIG A   1      -8.694   4.657 132.035  0.00  0.00    +0.239 C 
ATOM     13  C   LIG A   1      -9.974   5.435 132.410  0.00  0.00    +0.197 C 
ENDROOT
BRANCH  12  14
ATOM     14  C   LIG A   1      -8.905   3.117 131.947  0.00  0.00    +0.100 C 
ATOM     15  C   LIG A   1      -8.352   2.479 130.666  0.00  0.00    +0.045 C 
ATOM     16  C   LIG A   1      -8.281   2.424 133.164  0.00  0.00    +0.045 C 
BRANCH  14  17
ATOM     17  O   LIG A   1     -10.320   2.867 131.986  0.00  0.00    -0.385 OA
ATOM     18  H   LIG A   1     -10.474   2.111 132.581  0.00  0.00    +0.210 HD
ENDBRANCH  14  17
ENDBRANCH  12  14
BRANCH   1  19
ATOM     19  O   LIG A   1     -12.729   6.534 131.237  0.00  0.00    -0.494 OA
ATOM     20  C   LIG A   1     -13.041   7.775 131.858  0.00  0.00    +0.277 C 
ENDBRANCH   1  19
BRANCH  13  21
ATOM     21  O   LIG A   1      -9.682   6.541 133.264  0.00  0.00    -0.383 OA
ATOM     22  H   LIG A   1     -10.534   6.901 133.568  0.00  0.00    +0.210 HD
ENDBRANCH  13  21
TORSDOF 4
ENDMDL
MODEL 2
REMARK VINA RESULT:      -6.8      1.961      5.800
REMARK  Name = NuBBE_935
REMARK  7 active torsions:
REMARK  status: ('A' for Active; 'I' for Inactive)
REMARK    1  A    between atoms: O_1  and  C_2
REMARK    2  A    between atoms: O_1  and  C_3
REMARK    3  A    between atoms: C_14  and  C_19
REMARK    4  A    between atoms: C_16  and  O_18
REMARK    5  A    between atoms: C_19  and  C_20
REMARK    6  A    between atoms: C_19  and  C_21
REMARK    7  A    between atoms: C_19  and  O_22
REMARK                            x       y       z     vdW  Elec       q    Type
REMARK                         _______ _______ _______ _____ _____    ______ ____
ROOT
ATOM      1  C   LIG A   1      -9.579   4.395 130.327  0.00  0.00    +0.140 A 
ATOM      2  C   LIG A   1      -9.680   5.613 129.685  0.00  0.00    +0.088 A 
ATOM      3  C   LIG A   1      -9.359   6.747 130.401  0.00  0.00    +0.225 A 
ATOM      4  N   LIG A   1      -8.946   6.795 131.671  0.00  0.00    -0.212 NA
ATOM      5  C   LIG A   1      -8.835   5.618 132.299  0.00  0.00    +0.078 A 
ATOM      6  C   LIG A   1      -9.150   4.378 131.679  0.00  0.00    +0.043 A 
ATOM      7  C   LIG A   1      -9.023   3.190 132.434  0.00  0.00    +0.013 A 
ATOM      8  C   LIG A   1      -8.598   3.218 133.761  0.00  0.00    +0.001 A 
ATOM      9  C   LIG A   1      -8.294   4.434 134.358  0.00  0.00    +0.002 A 
ATOM     10  C   LIG A   1      -8.416   5.615 133.622  0.00  0.00    +0.028 A 
ATOM     11  O   LIG A   1      -9.627   7.935 129.743  0.00  0.00    -0.467 OA
ATOM     12  C   LIG A   1     -10.399   7.525 128.588  0.00  0.00    +0.239 C 
ATOM     13  C   LIG A   1     -10.144   6.022 128.344  0.00  0.00    +0.197 C 
ENDROOT
BRANCH  12  14
ATOM     14  C   LIG A   1     -11.904   7.883 128.761  0.00  0.00    +0.100 C 
ATOM     15  C   LIG A   1     -12.865   6.896 128.085  0.00  0.00    +0.045 C 
ATOM     16  C   LIG A   1     -12.258   7.991 130.249  0.00  0.00    +0.045 C 
BRANCH  14  17
ATOM     17  O   LIG A   1     -12.116   9.176 128.172  0.00  0.00    -0.385 OA
ATOM     18  H   LIG A   1     -12.063   9.075 127.203  0.00  0.00    +0.210 HD
ENDBRANCH  14  17
ENDBRANCH  12  14
BRANCH   1  19
ATOM     19  O   LIG A   1      -9.979   3.191 129.804  0.00  0.00    -0.494 OA
ATOM     20  C   LIG A   1      -9.006   2.454 129.075  0.00  0.00    +0.277 C 
ENDBRANCH   1  19
BRANCH  13  21
ATOM     21  O   LIG A   1      -9.078   5.815 127.418  0.00  0.00    -0.383 OA
ATOM     22  H   LIG A   1      -8.481   5.154 127.811  0.00  0.00    +0.210 HD
ENDBRANCH  13  21
TORSDOF 4
ENDMDL
MODEL 3
REMARK VINA RESULT:      -6.6      7.221      9.651
REMARK  Name = NuBBE_935
REMARK  7 active torsions:
REMARK  status: ('A' for Active; 'I' for Inactive)
REMARK    1  A    between atoms: O_1  and  C_2
REMARK    2  A    between atoms: O_1  and  C_3
REMARK    3  A    between atoms: C_14  and  C_19
REMARK    4  A    between atoms: C_16  and  O_18
REMARK    5  A    between atoms: C_19  and  C_20
REMARK    6  A    between atoms: C_19  and  C_21
REMARK    7  A    between atoms: C_19  and  O_22
REMARK                            x       y       z     vdW  Elec       q    Type
REMARK                         _______ _______ _______ _____ _____    ______ ____
ROOT
ATOM      1  C   LIG A   1      -8.170   0.419 125.405  0.00  0.00    +0.140 A 
ATOM      2  C   LIG A   1      -8.396   1.403 124.463  0.00  0.00    +0.088 A 
ATOM      3  C   LIG A   1      -8.909   1.019 123.242  0.00  0.00    +0.225 A 
ATOM      4  N   LIG A   1      -9.225  -0.225 122.867  0.00  0.00    -0.212 NA
ATOM      5  C   LIG A   1      -9.019  -1.184 123.778  0.00  0.00    +0.078 A 
ATOM      6  C   LIG A   1      -8.481  -0.923 125.067  0.00  0.00    +0.043 A 
ATOM      7  C   LIG A   1      -8.279  -2.008 125.950  0.00  0.00    +0.013 A 
ATOM      8  C   LIG A   1      -8.598  -3.313 125.578  0.00  0.00    +0.001 A 
ATOM      9  C   LIG A   1      -9.123  -3.557 124.316  0.00  0.00    +0.002 A 
ATOM     10  C   LIG A   1      -9.326  -2.493 123.434  0.00  0.00    +0.028 A 
ATOM     11  O   LIG A   1      -8.966   2.033 122.301  0.00  0.00    -0.467 OA
ATOM     12  C   LIG A   1      -8.212   3.111 122.905  0.00  0.00    +0.239 C 
ATOM     13  C   LIG A   1      -8.138   2.857 124.427  0.00  0.00    +0.197 C 
ENDROOT
BRANCH  12  14
ATOM     14  C   LIG A   1      -6.817   3.269 122.232  0.00  0.00    +0.100 C 
ATOM     15  C   LIG A   1      -6.864   3.887 120.829  0.00  0.00    +0.045 C 
ATOM     16  C   LIG A   1      -5.889   4.106 123.121  0.00  0.00    +0.045 C 
BRANCH  14  17
ATOM     17  O   LIG A   1      -6.238   1.959 122.115  0.00  0.00    -0.385 OA
ATOM     18  H   LIG A   1      -6.964   1.322 121.982  0.00  0.00    +0.210 HD
ENDBRANCH  14  17
ENDBRANCH  12  14
BRANCH   1  19
ATOM     19  O   LIG A   1      -7.550   0.611 126.614  0.00  0.00    -0.494 OA
ATOM     20  C   LIG A   1      -8.329   1.198 127.648  0.00  0.00    +0.277 C 
ENDBRANCH   1  19
BRANCH  13  21
ATOM     21  O   LIG A   1      -9.197   3.517 125.120  0.00  0.00    -0.383 OA
ATOM     22  H   LIG A   1      -8.925   3.595 126.051  0.00  0.00    +0.210 HD
ENDBRANCH  13  21
TORSDOF 4
ENDMDL
MODEL 4
REMARK VINA RESULT:      -6.6      6.922      9.921
REMARK  Name = NuBBE_935
REMARK  7 active torsions:
REMARK  status: ('A' for Active; 'I' for Inactive)
REMARK    1  A    between atoms: O_1  and  C_2
REMARK    2  A    between atoms: O_1  and  C_3
REMARK    3  A    between atoms: C_14  and  C_19
REMARK    4  A    between atoms: C_16  and  O_18
REMARK    5  A    between atoms: C_19  and  C_20
REMARK    6  A    between atoms: C_19  and  C_21
REMARK    7  A    between atoms: C_19  and  O_22
REMARK                            x       y       z     vdW  Elec       q    Type
REMARK                         _______ _______ _______ _____ _____    ______ ____
ROOT
ATOM      1  C   LIG A   1      -8.593  -1.810 125.220  0.00  0.00    +0.140 A 
ATOM      2  C   LIG A   1      -7.882  -0.676 124.883  0.00  0.00    +0.088 A 
ATOM      3  C   LIG A   1      -7.085  -0.103 125.853  0.00  0.00    +0.225 A 
ATOM      4  N   LIG A   1      -6.918  -0.541 127.105  0.00  0.00    -0.212 NA
ATOM      5  C   LIG A   1      -7.595  -1.646 127.437  0.00  0.00    +0.078 A 
ATOM      6  C   LIG A   1      -8.461  -2.323 126.537  0.00  0.00    +0.043 A 
ATOM      7  C   LIG A   1      -9.151  -3.470 126.991  0.00  0.00    +0.013 A 
ATOM      8  C   LIG A   1      -8.993  -3.941 128.293  0.00  0.00    +0.001 A 
ATOM      9  C   LIG A   1      -8.145  -3.272 129.166  0.00  0.00    +0.002 A 
ATOM     10  C   LIG A   1      -7.459  -2.137 128.729  0.00  0.00    +0.028 A 
ATOM     11  O   LIG A   1      -6.525   1.109 125.490  0.00  0.00    -0.467 OA
ATOM     12  C   LIG A   1      -7.205   1.453 124.260  0.00  0.00    +0.239 C 
ATOM     13  C   LIG A   1      -7.820   0.164 123.670  0.00  0.00    +0.197 C 
ENDROOT
BRANCH  12  14
ATOM     14  C   LIG A   1      -8.243   2.590 124.488  0.00  0.00    +0.100 C 
ATOM     15  C   LIG A   1      -9.705   2.126 124.434  0.00  0.00    +0.045 C 
ATOM     16  C   LIG A   1      -7.985   3.284 125.831  0.00  0.00    +0.045 C 
BRANCH  14  17
ATOM     17  O   LIG A   1      -8.054   3.568 123.453  0.00  0.00    -0.385 OA
ATOM     18  H   LIG A   1      -7.402   3.213 122.822  0.00  0.00    +0.210 HD
ENDBRANCH  14  17
ENDBRANCH  12  14
BRANCH   1  19
ATOM     19  O   LIG A   1      -9.522  -2.427 124.421  0.00  0.00    -0.494 OA
ATOM     20  C   LIG A   1      -9.025  -3.166 123.312  0.00  0.00    +0.277 C 
ENDBRANCH   1  19
BRANCH  13  21
ATOM     21  O   LIG A   1      -6.936  -0.458 122.738  0.00  0.00    -0.383 OA
ATOM     22  H   LIG A   1      -6.574  -1.251 123.173  0.00  0.00    +0.210 HD
ENDBRANCH  13  21
TORSDOF 4
ENDMDL
MODEL 5
REMARK VINA RESULT:      -6.6      1.879      2.584
REMARK  Name = NuBBE_935
REMARK  7 active torsions:
REMARK  status: ('A' for Active; 'I' for Inactive)
REMARK    1  A    between atoms: O_1  and  C_2
REMARK    2  A    between atoms: O_1  and  C_3
REMARK    3  A    between atoms: C_14  and  C_19
REMARK    4  A    between atoms: C_16  and  O_18
REMARK    5  A    between atoms: C_19  and  C_20
REMARK    6  A    between atoms: C_19  and  C_21
REMARK    7  A    between atoms: C_19  and  O_22
REMARK                            x       y       z     vdW  Elec       q    Type
REMARK                         _______ _______ _______ _____ _____    ______ ____
ROOT
ATOM      1  C   LIG A   1     -10.610   5.793 130.671  0.00  0.00    +0.140 A 
ATOM      2  C   LIG A   1      -9.346   6.089 131.143  0.00  0.00    +0.088 A 
ATOM      3  C   LIG A   1      -8.674   7.147 130.566  0.00  0.00    +0.225 A 
ATOM      4  N   LIG A   1      -9.125   7.935 129.585  0.00  0.00    -0.212 NA
ATOM      5  C   LIG A   1     -10.354   7.663 129.128  0.00  0.00    +0.078 A 
ATOM      6  C   LIG A   1     -11.144   6.592 129.627  0.00  0.00    +0.043 A 
ATOM      7  C   LIG A   1     -12.420   6.371 129.062  0.00  0.00    +0.013 A 
ATOM      8  C   LIG A   1     -12.908   7.179 128.037  0.00  0.00    +0.001 A 
ATOM      9  C   LIG A   1     -12.128   8.222 127.556  0.00  0.00    +0.002 A 
ATOM     10  C   LIG A   1     -10.865   8.450 128.106  0.00  0.00    +0.028 A 
ATOM     11  O   LIG A   1      -7.362   7.287 130.984  0.00  0.00    -0.467 OA
ATOM     12  C   LIG A   1      -7.103   6.074 131.729  0.00  0.00    +0.239 C 
ATOM     13  C   LIG A   1      -8.458   5.459 132.140  0.00  0.00    +0.197 C 
ENDROOT
BRANCH  12  14
ATOM     14  C   LIG A   1      -6.196   5.100 130.920  0.00  0.00    +0.100 C 
ATOM     15  C   LIG A   1      -4.775   4.954 131.480  0.00  0.00    +0.045 C 
ATOM     16  C   LIG A   1      -6.848   3.714 130.834  0.00  0.00    +0.045 C 
BRANCH  14  17
ATOM     17  O   LIG A   1      -6.091   5.611 129.581  0.00  0.00    -0.385 OA
ATOM     18  H   LIG A   1      -6.868   5.301 129.081  0.00  0.00    +0.210 HD
ENDBRANCH  14  17
ENDBRANCH  12  14
BRANCH   1  19
ATOM     19  O   LIG A   1     -11.357   4.705 131.044  0.00  0.00    -0.494 OA
ATOM     20  C   LIG A   1     -10.924   3.437 130.569  0.00  0.00    +0.277 C 
ENDBRANCH   1  19
BRANCH  13  21
ATOM     21  O   LIG A   1      -8.859   5.896 133.438  0.00  0.00    -0.383 OA
ATOM     22  H   LIG A   1      -8.080   6.300 133.858  0.00  0.00    +0.210 HD
ENDBRANCH  13  21
TORSDOF 4
ENDMDL
MODEL 6
REMARK VINA RESULT:      -6.5      7.348      9.995
REMARK  Name = NuBBE_935
REMARK  7 active torsions:
REMARK  status: ('A' for Active; 'I' for Inactive)
REMARK    1  A    between atoms: O_1  and  C_2
REMARK    2  A    between atoms: O_1  and  C_3
REMARK    3  A    between atoms: C_14  and  C_19
REMARK    4  A    between atoms: C_16  and  O_18
REMARK    5  A    between atoms: C_19  and  C_20
REMARK    6  A    between atoms: C_19  and  C_21
REMARK    7  A    between atoms: C_19  and  O_22
REMARK                            x       y       z     vdW  Elec       q    Type
REMARK                         _______ _______ _______ _____ _____    ______ ____
ROOT
ATOM      1  C   LIG A   1      -7.443  -1.262 125.617  0.00  0.00    +0.140 A 
ATOM      2  C   LIG A   1      -8.144  -0.185 125.111  0.00  0.00    +0.088 A 
ATOM      3  C   LIG A   1      -7.933   0.158 123.792  0.00  0.00    +0.225 A 
ATOM      4  N   LIG A   1      -7.112  -0.455 122.932  0.00  0.00    -0.212 NA
ATOM      5  C   LIG A   1      -6.437  -1.506 123.411  0.00  0.00    +0.078 A 
ATOM      6  C   LIG A   1      -6.553  -1.953 124.756  0.00  0.00    +0.043 A 
ATOM      7  C   LIG A   1      -5.778  -3.059 125.172  0.00  0.00    +0.013 A 
ATOM      8  C   LIG A   1      -4.915  -3.711 124.294  0.00  0.00    +0.001 A 
ATOM      9  C   LIG A   1      -4.808  -3.266 122.983  0.00  0.00    +0.002 A 
ATOM     10  C   LIG A   1      -5.567  -2.173 122.559  0.00  0.00    +0.028 A 
ATOM     11  O   LIG A   1      -8.552   1.332 123.400  0.00  0.00    -0.467 OA
ATOM     12  C   LIG A   1      -9.018   1.911 124.642  0.00  0.00    +0.239 C 
ATOM     13  C   LIG A   1      -9.079   0.792 125.705  0.00  0.00    +0.197 C 
ENDROOT
BRANCH  12  14
ATOM     14  C   LIG A   1      -8.138   3.124 125.064  0.00  0.00    +0.100 C 
ATOM     15  C   LIG A   1      -7.343   2.903 126.358  0.00  0.00    +0.045 C 
ATOM     16  C   LIG A   1      -7.170   3.497 123.935  0.00  0.00    +0.045 C 
BRANCH  14  17
ATOM     17  O   LIG A   1      -9.012   4.245 125.272  0.00  0.00    -0.385 OA
ATOM     18  H   LIG A   1      -9.023   4.772 124.452  0.00  0.00    +0.210 HD
ENDBRANCH  14  17
ENDBRANCH  12  14
BRANCH   1  19
ATOM     19  O   LIG A   1      -7.440  -1.654 126.932  0.00  0.00    -0.494 OA
ATOM     20  C   LIG A   1      -8.439  -2.587 127.325  0.00  0.00    +0.277 C 
ENDBRANCH   1  19
BRANCH  13  21
ATOM     21  O   LIG A   1     -10.374   0.195 125.763  0.00  0.00    -0.383 OA
ATOM     22  H   LIG A   1     -10.261  -0.753 125.573  0.00  0.00    +0.210 HD
ENDBRANCH  13  21
TORSDOF 4
ENDMDL
MODEL 7
REMARK VINA RESULT:      -6.4      1.920      5.410
REMARK  Name = NuBBE_935
REMARK  7 active torsions:
REMARK  status: ('A' for Active; 'I' for Inactive)
REMARK    1  A    between atoms: O_1  and  C_2
REMARK    2  A    between atoms: O_1  and  C_3
REMARK    3  A    between atoms: C_14  and  C_19
REMARK    4  A    between atoms: C_16  and  O_18
REMARK    5  A    between atoms: C_19  and  C_20
REMARK    6  A    between atoms: C_19  and  C_21
REMARK    7  A    between atoms: C_19  and  O_22
REMARK                            x       y       z     vdW  Elec       q    Type
REMARK                         _______ _______ _______ _____ _____    ______ ____
ROOT
ATOM      1  C   LIG A   1      -8.266   4.918 131.257  0.00  0.00    +0.140 A 
ATOM      2  C   LIG A   1      -9.594   5.249 131.078  0.00  0.00    +0.088 A 
ATOM      3  C   LIG A   1     -10.373   4.404 130.315  0.00  0.00    +0.225 A 
ATOM      4  N   LIG A   1      -9.974   3.273 129.725  0.00  0.00    -0.212 NA
ATOM      5  C   LIG A   1      -8.690   2.937 129.902  0.00  0.00    +0.078 A 
ATOM      6  C   LIG A   1      -7.780   3.730 130.653  0.00  0.00    +0.043 A 
ATOM      7  C   LIG A   1      -6.438   3.302 130.761  0.00  0.00    +0.013 A 
ATOM      8  C   LIG A   1      -6.000   2.128 130.151  0.00  0.00    +0.001 A 
ATOM      9  C   LIG A   1      -6.897   1.361 129.418  0.00  0.00    +0.002 A 
ATOM     10  C   LIG A   1      -8.226   1.774 129.303  0.00  0.00    +0.028 A 
ATOM     11  O   LIG A   1     -11.647   4.878 130.056  0.00  0.00    -0.467 OA
ATOM     12  C   LIG A   1     -11.605   6.253 130.507  0.00  0.00    +0.239 C 
ATOM     13  C   LIG A   1     -10.418   6.407 131.482  0.00  0.00    +0.197 C 
ENDROOT
BRANCH  12  14
ATOM     14  C   LIG A   1     -11.555   7.239 129.303  0.00  0.00    +0.100 C 
ATOM     15  C   LIG A   1     -12.619   8.343 129.350  0.00  0.00    +0.045 C 
ATOM     16  C   LIG A   1     -10.166   7.881 129.200  0.00  0.00    +0.045 C 
BRANCH  14  17
ATOM     17  O   LIG A   1     -11.767   6.475 128.104  0.00  0.00    -0.385 OA
ATOM     18  H   LIG A   1     -12.514   6.876 127.623  0.00  0.00    +0.210 HD
ENDBRANCH  14  17
ENDBRANCH  12  14
BRANCH   1  19
ATOM     19  O   LIG A   1      -7.331   5.708 131.877  0.00  0.00    -0.494 OA
ATOM     20  C   LIG A   1      -6.899   6.864 131.171  0.00  0.00    +0.277 C 
ENDBRANCH   1  19
BRANCH  13  21
ATOM     21  O   LIG A   1     -10.826   6.216 132.837  0.00  0.00    -0.383 OA
ATOM     22  H   LIG A   1     -11.662   5.718 132.817  0.00  0.00    +0.210 HD
ENDBRANCH  13  21
TORSDOF 4
ENDMDL
MODEL 8
REMARK VINA RESULT:      -6.4      6.615      9.027
REMARK  Name = NuBBE_935
REMARK  7 active torsions:
REMARK  status: ('A' for Active; 'I' for Inactive)
REMARK    1  A    between atoms: O_1  and  C_2
REMARK    2  A    between atoms: O_1  and  C_3
REMARK    3  A    between atoms: C_14  and  C_19
REMARK    4  A    between atoms: C_16  and  O_18
REMARK    5  A    between atoms: C_19  and  C_20
REMARK    6  A    between atoms: C_19  and  C_21
REMARK    7  A    between atoms: C_19  and  O_22
REMARK                            x       y       z     vdW  Elec       q    Type
REMARK                         _______ _______ _______ _____ _____    ______ ____
ROOT
ATOM      1  C   LIG A   1      -7.815  -0.070 126.052  0.00  0.00    +0.140 A 
ATOM      2  C   LIG A   1      -8.051   1.248 125.717  0.00  0.00    +0.088 A 
ATOM      3  C   LIG A   1      -8.670   1.505 124.511  0.00  0.00    +0.225 A 
ATOM      4  N   LIG A   1      -9.080   0.599 123.619  0.00  0.00    -0.212 NA
ATOM      5  C   LIG A   1      -8.865  -0.683 123.940  0.00  0.00    +0.078 A 
ATOM      6  C   LIG A   1      -8.224  -1.081 125.144  0.00  0.00    +0.043 A 
ATOM      7  C   LIG A   1      -8.021  -2.459 125.381  0.00  0.00    +0.013 A 
ATOM      8  C   LIG A   1      -8.439  -3.421 124.463  0.00  0.00    +0.001 A 
ATOM      9  C   LIG A   1      -9.063  -3.021 123.289  0.00  0.00    +0.002 A 
ATOM     10  C   LIG A   1      -9.268  -1.662 123.043  0.00  0.00    +0.028 A 
ATOM     11  O   LIG A   1      -8.736   2.847 124.176  0.00  0.00    -0.467 OA
ATOM     12  C   LIG A   1      -7.881   3.491 125.152  0.00  0.00    +0.239 C 
ATOM     13  C   LIG A   1      -7.715   2.537 126.355  0.00  0.00    +0.197 C 
ENDROOT
BRANCH  12  14
ATOM     14  C   LIG A   1      -6.531   3.931 124.514  0.00  0.00    +0.100 C 
ATOM     15  C   LIG A   1      -5.291   3.362 125.215  0.00  0.00    +0.045 C 
ATOM     16  C   LIG A   1      -6.492   3.545 123.031  0.00  0.00    +0.045 C 
BRANCH  14  17
ATOM     17  O   LIG A   1      -6.459   5.364 124.590  0.00  0.00    -0.385 OA
ATOM     18  H   LIG A   1      -5.965   5.596 125.398  0.00  0.00    +0.210 HD
ENDBRANCH  14  17
ENDBRANCH  12  14
BRANCH   1  19
ATOM     19  O   LIG A   1      -7.101  -0.491 127.146  0.00  0.00    -0.494 OA
ATOM     20  C   LIG A   1      -5.688  -0.347 127.084  0.00  0.00    +0.277 C 
ENDBRANCH   1  19
BRANCH  13  21
ATOM     21  O   LIG A   1      -8.684   2.801 127.369  0.00  0.00    -0.383 OA
ATOM     22  H   LIG A   1      -8.336   3.526 127.916  0.00  0.00    +0.210 HD
ENDBRANCH  13  21
TORSDOF 4
ENDMDL
MODEL 9
REMARK VINA RESULT:      -6.2      4.211      6.336
REMARK  Name = NuBBE_935
REMARK  7 active torsions:
REMARK  status: ('A' for Active; 'I' for Inactive)
REMARK    1  A    between atoms: O_1  and  C_2
REMARK    2  A    between atoms: O_1  and  C_3
REMARK    3  A    between atoms: C_14  and  C_19
REMARK    4  A    between atoms: C_16  and  O_18
REMARK    5  A    between atoms: C_19  and  C_20
REMARK    6  A    between atoms: C_19  and  C_21
REMARK    7  A    between atoms: C_19  and  O_22
REMARK                            x       y       z     vdW  Elec       q    Type
REMARK                         _______ _______ _______ _____ _____    ______ ____
ROOT
ATOM      1  C   LIG A   1      -5.877   5.735 132.695  0.00  0.00    +0.140 A 
ATOM      2  C   LIG A   1      -5.146   6.503 131.810  0.00  0.00    +0.088 A 
ATOM      3  C   LIG A   1      -5.838   7.218 130.855  0.00  0.00    +0.225 A 
ATOM      4  N   LIG A   1      -7.165   7.255 130.695  0.00  0.00    -0.212 NA
ATOM      5  C   LIG A   1      -7.882   6.522 131.555  0.00  0.00    +0.078 A 
ATOM      6  C   LIG A   1      -7.291   5.729 132.575  0.00  0.00    +0.043 A 
ATOM      7  C   LIG A   1      -8.133   4.970 133.419  0.00  0.00    +0.013 A 
ATOM      8  C   LIG A   1      -9.518   4.992 133.268  0.00  0.00    +0.001 A 
ATOM      9  C   LIG A   1     -10.086   5.770 132.267  0.00  0.00    +0.002 A 
ATOM     10  C   LIG A   1      -9.264   6.522 131.426  0.00  0.00    +0.028 A 
ATOM     11  O   LIG A   1      -5.036   7.841 129.914  0.00  0.00    -0.467 OA
ATOM     12  C   LIG A   1      -3.720   7.289 130.159  0.00  0.00    +0.239 C 
ATOM     13  C   LIG A   1      -3.700   6.701 131.587  0.00  0.00    +0.197 C 
ENDROOT
BRANCH  12  14
ATOM     14  C   LIG A   1      -3.326   6.262 129.057  0.00  0.00    +0.100 C 
ATOM     15  C   LIG A   1      -2.184   6.729 128.144  0.00  0.00    +0.045 C 
ATOM     16  C   LIG A   1      -2.947   4.919 129.692  0.00  0.00    +0.045 C 
BRANCH  14  17
ATOM     17  O   LIG A   1      -4.483   6.040 128.233  0.00  0.00    -0.385 OA
ATOM     18  H   LIG A   1      -4.484   5.102 127.967  0.00  0.00    +0.210 HD
ENDBRANCH  14  17
ENDBRANCH  12  14
BRANCH   1  19
ATOM     19  O   LIG A   1      -5.343   4.871 133.617  0.00  0.00    -0.494 OA
ATOM     20  C   LIG A   1      -4.786   3.662 133.117  0.00  0.00    +0.277 C 
ENDBRANCH   1  19
BRANCH  13  21
ATOM     21  O   LIG A   1      -3.226   7.653 132.538  0.00  0.00    -0.383 OA
ATOM     22  H   LIG A   1      -2.784   8.362 132.038  0.00  0.00    +0.210 HD
ENDBRANCH  13  21
TORSDOF 4
ENDMDL
