MODEL 1
REMARK VINA RESULT:      -8.3      0.000      0.000
REMARK  Name = NuBBE_2298
REMARK  5 active torsions:
REMARK  status: ('A' for Active; 'I' for Inactive)
REMARK    1  A    between atoms: C_1  and  C_2
REMARK    2  A    between atoms: C_4  and  C_19
REMARK    3  A    between atoms: C_5  and  O_6
REMARK    4  A    between atoms: C_8  and  C_10
REMARK    5  A    between atoms: C_19  and  C_20
REMARK                            x       y       z     vdW  Elec       q    Type
REMARK                         _______ _______ _______ _____ _____    ______ ____
ROOT
ATOM      1  C   LIG A   1      -8.372  -1.308 126.488  0.00  0.00    +0.011 C 
ATOM      2  C   LIG A   1      -7.161  -1.074 125.579  0.00  0.00    +0.032 C 
ATOM      3  C   LIG A   1      -6.878  -2.160 124.493  0.00  0.00    +0.044 C 
ATOM      4  C   LIG A   1      -7.481  -1.486 123.244  0.00  0.00    +0.239 C 
ATOM      5  O   LIG A   1      -7.180  -0.102 123.387  0.00  0.00    -0.334 OA
ATOM      6  C   LIG A   1      -7.343   0.239 124.774  0.00  0.00    +0.156 C 
ATOM      7  C   LIG A   1      -7.472  -3.573 124.728  0.00  0.00    +0.040 C 
ATOM      8  C   LIG A   1      -8.911  -3.766 124.357  0.00  0.00    -0.022 C 
ATOM      9  C   LIG A   1      -9.626  -2.925 123.608  0.00  0.00    +0.048 C 
ATOM     10  C   LIG A   1      -9.016  -1.687 123.076  0.00  0.00    +0.215 C 
ATOM     11  O   LIG A   1      -9.736  -0.890 122.484  0.00  0.00    -0.287 OA
ENDROOT
BRANCH   6  12
ATOM     12  C   LIG A   1      -6.393   1.360 125.161  0.00  0.00    -0.015 A 
ATOM     13  C   LIG A   1      -5.503   1.195 126.240  0.00  0.00    +0.055 A 
ATOM     14  C   LIG A   1      -4.664   2.245 126.571  0.00  0.00    +0.167 A 
ATOM     15  O   LIG A   1      -3.771   2.263 127.598  0.00  0.00    -0.453 OA
ATOM     16  C   LIG A   1      -3.251   3.606 127.483  0.00  0.00    +0.466 C 
ATOM     17  O   LIG A   1      -3.764   4.322 126.342  0.00  0.00    -0.453 OA
ATOM     18  C   LIG A   1      -4.666   3.424 125.864  0.00  0.00    +0.166 A 
ATOM     19  C   LIG A   1      -5.518   3.628 124.804  0.00  0.00    +0.050 A 
ATOM     20  C   LIG A   1      -6.394   2.592 124.464  0.00  0.00    +0.010 A 
ENDBRANCH   6  12
BRANCH   4  21
ATOM     21  O   LIG A   1      -6.865  -1.934 122.048  0.00  0.00    -0.358 OA
ATOM     22  H   LIG A   1      -7.602  -1.970 121.409  0.00  0.00    +0.213 HD
ENDBRANCH   4  21
BRANCH   3  23
ATOM     23  C   LIG A   1      -5.326  -2.343 124.304  0.00  0.00    +0.040 C 
BRANCH  23  24
ATOM     24  C   LIG A   1      -4.811  -3.761 124.382  0.00  0.00    -0.034 C 
ATOM     25  C   LIG A   1      -4.135  -4.360 123.393  0.00  0.00    +0.004 C 
ENDBRANCH  23  24
ENDBRANCH   3  23
TORSDOF 4
ENDMDL
MODEL 2
REMARK VINA RESULT:      -8.0      3.102      4.689
REMARK  Name = NuBBE_2298
REMARK  5 active torsions:
REMARK  status: ('A' for Active; 'I' for Inactive)
REMARK    1  A    between atoms: C_1  and  C_2
REMARK    2  A    between atoms: C_4  and  C_19
REMARK    3  A    between atoms: C_5  and  O_6
REMARK    4  A    between atoms: C_8  and  C_10
REMARK    5  A    between atoms: C_19  and  C_20
REMARK                            x       y       z     vdW  Elec       q    Type
REMARK                         _______ _______ _______ _____ _____    ______ ____
ROOT
ATOM      1  C   LIG A   1      -9.337  -3.231 125.162  0.00  0.00    +0.011 C 
ATOM      2  C   LIG A   1      -7.903  -2.739 125.378  0.00  0.00    +0.032 C 
ATOM      3  C   LIG A   1      -7.271  -1.891 124.228  0.00  0.00    +0.044 C 
ATOM      4  C   LIG A   1      -7.450  -0.465 124.786  0.00  0.00    +0.239 C 
ATOM      5  O   LIG A   1      -7.231  -0.585 126.188  0.00  0.00    -0.334 OA
ATOM      6  C   LIG A   1      -7.836  -1.816 126.621  0.00  0.00    +0.156 C 
ATOM      7  C   LIG A   1      -7.888  -2.038 122.814  0.00  0.00    +0.040 C 
ATOM      8  C   LIG A   1      -9.129  -1.245 122.537  0.00  0.00    -0.022 C 
ATOM      9  C   LIG A   1      -9.578  -0.242 123.294  0.00  0.00    +0.048 C 
ATOM     10  C   LIG A   1      -8.848   0.166 124.514  0.00  0.00    +0.215 C 
ATOM     11  O   LIG A   1      -9.351   1.019 125.238  0.00  0.00    -0.287 OA
ENDROOT
BRANCH   6  12
ATOM     12  C   LIG A   1      -7.076  -2.393 127.804  0.00  0.00    -0.015 A 
ATOM     13  C   LIG A   1      -5.674  -2.282 127.868  0.00  0.00    +0.055 A 
ATOM     14  C   LIG A   1      -5.017  -2.834 128.954  0.00  0.00    +0.167 A 
ATOM     15  O   LIG A   1      -3.671  -2.842 129.156  0.00  0.00    -0.453 OA
ATOM     16  C   LIG A   1      -3.585  -3.591 130.388  0.00  0.00    +0.466 C 
ATOM     17  O   LIG A   1      -4.871  -3.926 130.945  0.00  0.00    -0.453 OA
ATOM     18  C   LIG A   1      -5.697  -3.461 129.970  0.00  0.00    +0.166 A 
ATOM     19  C   LIG A   1      -7.066  -3.592 129.948  0.00  0.00    +0.050 A 
ATOM     20  C   LIG A   1      -7.753  -3.066 128.849  0.00  0.00    +0.010 A 
ENDBRANCH   6  12
BRANCH   4  21
ATOM     21  O   LIG A   1      -6.478   0.432 124.278  0.00  0.00    -0.358 OA
ATOM     22  H   LIG A   1      -5.989  -0.104 123.626  0.00  0.00    +0.213 HD
ENDBRANCH   4  21
BRANCH   3  23
ATOM     23  C   LIG A   1      -5.738  -2.222 124.093  0.00  0.00    +0.040 C 
BRANCH  23  24
ATOM     24  C   LIG A   1      -5.382  -3.684 123.974  0.00  0.00    -0.034 C 
ATOM     25  C   LIG A   1      -4.185  -4.126 123.566  0.00  0.00    +0.004 C 
ENDBRANCH  23  24
ENDBRANCH   3  23
TORSDOF 4
ENDMDL
MODEL 3
REMARK VINA RESULT:      -7.8      3.099      5.059
REMARK  Name = NuBBE_2298
REMARK  5 active torsions:
REMARK  status: ('A' for Active; 'I' for Inactive)
REMARK    1  A    between atoms: C_1  and  C_2
REMARK    2  A    between atoms: C_4  and  C_19
REMARK    3  A    between atoms: C_5  and  O_6
REMARK    4  A    between atoms: C_8  and  C_10
REMARK    5  A    between atoms: C_19  and  C_20
REMARK                            x       y       z     vdW  Elec       q    Type
REMARK                         _______ _______ _______ _____ _____    ______ ____
ROOT
ATOM      1  C   LIG A   1      -5.444   1.126 125.728  0.00  0.00    +0.011 C 
ATOM      2  C   LIG A   1      -6.610   0.885 124.763  0.00  0.00    +0.032 C 
ATOM      3  C   LIG A   1      -7.675  -0.171 125.197  0.00  0.00    +0.044 C 
ATOM      4  C   LIG A   1      -8.793   0.747 125.733  0.00  0.00    +0.239 C 
ATOM      5  O   LIG A   1      -8.789   1.879 124.869  0.00  0.00    -0.334 OA
ATOM      6  C   LIG A   1      -7.419   2.193 124.566  0.00  0.00    +0.156 C 
ATOM      7  C   LIG A   1      -7.244  -1.226 126.248  0.00  0.00    +0.040 C 
ATOM      8  C   LIG A   1      -7.277  -0.797 127.683  0.00  0.00    -0.022 C 
ATOM      9  C   LIG A   1      -7.891   0.297 128.139  0.00  0.00    +0.048 C 
ATOM     10  C   LIG A   1      -8.606   1.200 127.211  0.00  0.00    +0.215 C 
ATOM     11  O   LIG A   1      -9.064   2.248 127.654  0.00  0.00    -0.287 OA
ENDROOT
BRANCH   6  12
ATOM     12  C   LIG A   1      -7.309   2.808 123.181  0.00  0.00    -0.015 A 
ATOM     13  C   LIG A   1      -8.460   2.977 122.387  0.00  0.00    +0.055 A 
ATOM     14  C   LIG A   1      -8.317   3.528 121.125  0.00  0.00    +0.167 A 
ATOM     15  O   LIG A   1      -9.314   3.731 120.222  0.00  0.00    -0.453 OA
ATOM     16  C   LIG A   1      -8.567   4.257 119.103  0.00  0.00    +0.466 C 
ATOM     17  O   LIG A   1      -7.168   4.450 119.391  0.00  0.00    -0.453 OA
ATOM     18  C   LIG A   1      -7.093   3.929 120.645  0.00  0.00    +0.166 A 
ATOM     19  C   LIG A   1      -5.944   3.782 121.386  0.00  0.00    +0.050 A 
ATOM     20  C   LIG A   1      -6.057   3.206 122.655  0.00  0.00    +0.010 A 
ENDBRANCH   6  12
BRANCH   4  21
ATOM     21  O   LIG A   1     -10.071   0.142 125.637  0.00  0.00    -0.358 OA
ATOM     22  H   LIG A   1      -9.918  -0.628 125.057  0.00  0.00    +0.213 HD
ENDBRANCH   4  21
BRANCH   3  23
ATOM     23  C   LIG A   1      -8.194  -0.964 123.941  0.00  0.00    +0.040 C 
BRANCH  23  24
ATOM     24  C   LIG A   1      -7.217  -1.108 122.798  0.00  0.00    -0.034 C 
ATOM     25  C   LIG A   1      -6.280  -2.064 122.740  0.00  0.00    +0.004 C 
ENDBRANCH  23  24
ENDBRANCH   3  23
TORSDOF 4
ENDMDL
MODEL 4
REMARK VINA RESULT:      -7.6      3.124      4.595
REMARK  Name = NuBBE_2298
REMARK  5 active torsions:
REMARK  status: ('A' for Active; 'I' for Inactive)
REMARK    1  A    between atoms: C_1  and  C_2
REMARK    2  A    between atoms: C_4  and  C_19
REMARK    3  A    between atoms: C_5  and  O_6
REMARK    4  A    between atoms: C_8  and  C_10
REMARK    5  A    between atoms: C_19  and  C_20
REMARK                            x       y       z     vdW  Elec       q    Type
REMARK                         _______ _______ _______ _____ _____    ______ ____
ROOT
ATOM      1  C   LIG A   1      -5.543   0.179 125.662  0.00  0.00    +0.011 C 
ATOM      2  C   LIG A   1      -5.714   1.670 125.352  0.00  0.00    +0.032 C 
ATOM      3  C   LIG A   1      -6.886   2.059 124.395  0.00  0.00    +0.044 C 
ATOM      4  C   LIG A   1      -7.948   2.526 125.411  0.00  0.00    +0.239 C 
ATOM      5  O   LIG A   1      -7.215   3.197 126.432  0.00  0.00    -0.334 OA
ATOM      6  C   LIG A   1      -6.003   2.457 126.656  0.00  0.00    +0.156 C 
ATOM      7  C   LIG A   1      -7.435   0.954 123.457  0.00  0.00    +0.040 C 
ATOM      8  C   LIG A   1      -8.417  -0.008 124.054  0.00  0.00    -0.022 C 
ATOM      9  C   LIG A   1      -9.049   0.170 125.216  0.00  0.00    +0.048 C 
ATOM     10  C   LIG A   1      -8.803   1.381 126.029  0.00  0.00    +0.215 C 
ATOM     11  O   LIG A   1      -9.320   1.454 127.139  0.00  0.00    -0.287 OA
ENDROOT
BRANCH   6  12
ATOM     12  C   LIG A   1      -4.886   3.388 127.099  0.00  0.00    -0.015 A 
ATOM     13  C   LIG A   1      -5.168   4.731 127.418  0.00  0.00    +0.055 A 
ATOM     14  C   LIG A   1      -4.122   5.551 127.803  0.00  0.00    +0.167 A 
ATOM     15  O   LIG A   1      -4.214   6.873 128.114  0.00  0.00    -0.453 OA
ATOM     16  C   LIG A   1      -2.828   7.191 128.367  0.00  0.00    +0.466 C 
ATOM     17  O   LIG A   1      -1.958   6.045 128.300  0.00  0.00    -0.453 OA
ATOM     18  C   LIG A   1      -2.833   5.085 127.900  0.00  0.00    +0.166 A 
ATOM     19  C   LIG A   1      -2.513   3.782 127.597  0.00  0.00    +0.050 A 
ATOM     20  C   LIG A   1      -3.547   2.937 127.182  0.00  0.00    +0.010 A 
ENDBRANCH   6  12
BRANCH   4  21
ATOM     21  O   LIG A   1      -8.848   3.465 124.847  0.00  0.00    -0.358 OA
ATOM     22  H   LIG A   1      -8.524   4.323 125.180  0.00  0.00    +0.213 HD
ENDBRANCH   4  21
BRANCH   3  23
ATOM     23  C   LIG A   1      -6.458   3.264 123.478  0.00  0.00    +0.040 C 
BRANCH  23  24
ATOM     24  C   LIG A   1      -6.444   2.995 121.993  0.00  0.00    -0.034 C 
ATOM     25  C   LIG A   1      -5.534   3.509 121.155  0.00  0.00    +0.004 C 
ENDBRANCH  23  24
ENDBRANCH   3  23
TORSDOF 4
ENDMDL
MODEL 5
REMARK VINA RESULT:      -7.5      1.883      3.403
REMARK  Name = NuBBE_2298
REMARK  5 active torsions:
REMARK  status: ('A' for Active; 'I' for Inactive)
REMARK    1  A    between atoms: C_1  and  C_2
REMARK    2  A    between atoms: C_4  and  C_19
REMARK    3  A    between atoms: C_5  and  O_6
REMARK    4  A    between atoms: C_8  and  C_10
REMARK    5  A    between atoms: C_19  and  C_20
REMARK                            x       y       z     vdW  Elec       q    Type
REMARK                         _______ _______ _______ _____ _____    ______ ____
ROOT
ATOM      1  C   LIG A   1      -6.436  -1.230 123.065  0.00  0.00    +0.011 C 
ATOM      2  C   LIG A   1      -7.189  -0.097 123.770  0.00  0.00    +0.032 C 
ATOM      3  C   LIG A   1      -8.743  -0.228 123.846  0.00  0.00    +0.044 C 
ATOM      4  C   LIG A   1      -8.921  -0.746 125.288  0.00  0.00    +0.239 C 
ATOM      5  O   LIG A   1      -7.927  -0.068 126.051  0.00  0.00    -0.334 OA
ATOM      6  C   LIG A   1      -6.736   0.005 125.250  0.00  0.00    +0.156 C 
ATOM      7  C   LIG A   1      -9.431  -1.156 122.813  0.00  0.00    +0.040 C 
ATOM      8  C   LIG A   1      -9.424  -2.623 123.119  0.00  0.00    -0.022 C 
ATOM      9  C   LIG A   1      -9.127  -3.154 124.306  0.00  0.00    +0.048 C 
ATOM     10  C   LIG A   1      -8.761  -2.287 125.447  0.00  0.00    +0.215 C 
ATOM     11  O   LIG A   1      -8.390  -2.819 126.489  0.00  0.00    -0.287 OA
ENDROOT
BRANCH   6  12
ATOM     12  C   LIG A   1      -5.944   1.257 125.589  0.00  0.00    -0.015 A 
ATOM     13  C   LIG A   1      -5.017   1.243 126.649  0.00  0.00    +0.055 A 
ATOM     14  C   LIG A   1      -4.326   2.407 126.937  0.00  0.00    +0.167 A 
ATOM     15  O   LIG A   1      -3.422   2.575 127.940  0.00  0.00    -0.453 OA
ATOM     16  C   LIG A   1      -3.097   3.974 127.784  0.00  0.00    +0.466 C 
ATOM     17  O   LIG A   1      -3.729   4.583 126.642  0.00  0.00    -0.453 OA
ATOM     18  C   LIG A   1      -4.507   3.557 126.205  0.00  0.00    +0.166 A 
ATOM     19  C   LIG A   1      -5.401   3.614 125.163  0.00  0.00    +0.050 A 
ATOM     20  C   LIG A   1      -6.132   2.459 124.866  0.00  0.00    +0.010 A 
ENDBRANCH   6  12
BRANCH   4  21
ATOM     21  O   LIG A   1     -10.184  -0.397 125.828  0.00  0.00    -0.358 OA
ATOM     22  H   LIG A   1     -10.045   0.505 126.173  0.00  0.00    +0.213 HD
ENDBRANCH   4  21
BRANCH   3  23
ATOM     23  C   LIG A   1      -9.413   1.189 123.703  0.00  0.00    +0.040 C 
BRANCH  23  24
ATOM     24  C   LIG A   1      -9.220   1.882 122.376  0.00  0.00    -0.034 C 
ATOM     25  C   LIG A   1      -8.567   3.043 122.233  0.00  0.00    +0.004 C 
ENDBRANCH  23  24
ENDBRANCH   3  23
TORSDOF 4
ENDMDL
MODEL 6
REMARK VINA RESULT:      -7.4      7.935      9.523
REMARK  Name = NuBBE_2298
REMARK  5 active torsions:
REMARK  status: ('A' for Active; 'I' for Inactive)
REMARK    1  A    between atoms: C_1  and  C_2
REMARK    2  A    between atoms: C_4  and  C_19
REMARK    3  A    between atoms: C_5  and  O_6
REMARK    4  A    between atoms: C_8  and  C_10
REMARK    5  A    between atoms: C_19  and  C_20
REMARK                            x       y       z     vdW  Elec       q    Type
REMARK                         _______ _______ _______ _____ _____    ______ ____
ROOT
ATOM      1  C   LIG A   1     -10.828   6.454 132.372  0.00  0.00    +0.011 C 
ATOM      2  C   LIG A   1      -9.740   5.637 131.667  0.00  0.00    +0.032 C 
ATOM      3  C   LIG A   1     -10.125   4.991 130.298  0.00  0.00    +0.044 C 
ATOM      4  C   LIG A   1      -9.490   5.995 129.314  0.00  0.00    +0.239 C 
ATOM      5  O   LIG A   1      -8.272   6.399 129.932  0.00  0.00    -0.334 OA
ATOM      6  C   LIG A   1      -8.522   6.539 131.341  0.00  0.00    +0.156 C 
ATOM      7  C   LIG A   1     -11.633   4.779 130.009  0.00  0.00    +0.040 C 
ATOM      8  C   LIG A   1     -12.396   5.969 129.512  0.00  0.00    -0.022 C 
ATOM      9  C   LIG A   1     -11.842   7.091 129.048  0.00  0.00    +0.048 C 
ATOM     10  C   LIG A   1     -10.371   7.240 129.000  0.00  0.00    +0.215 C 
ATOM     11  O   LIG A   1      -9.905   8.325 128.668  0.00  0.00    -0.287 OA
ENDROOT
BRANCH   6  12
ATOM     12  C   LIG A   1      -7.266   6.225 132.136  0.00  0.00    -0.015 A 
ATOM     13  C   LIG A   1      -5.999   6.565 131.624  0.00  0.00    +0.055 A 
ATOM     14  C   LIG A   1      -4.878   6.249 132.372  0.00  0.00    +0.167 A 
ATOM     15  O   LIG A   1      -3.585   6.477 132.012  0.00  0.00    -0.453 OA
ATOM     16  C   LIG A   1      -2.884   5.893 133.132  0.00  0.00    +0.466 C 
ATOM     17  O   LIG A   1      -3.761   5.421 134.173  0.00  0.00    -0.453 OA
ATOM     18  C   LIG A   1      -4.974   5.637 133.599  0.00  0.00    +0.166 A 
ATOM     19  C   LIG A   1      -6.190   5.288 134.137  0.00  0.00    +0.050 A 
ATOM     20  C   LIG A   1      -7.339   5.573 133.391  0.00  0.00    +0.010 A 
ENDBRANCH   6  12
BRANCH   4  21
ATOM     21  O   LIG A   1      -9.159   5.390 128.076  0.00  0.00    -0.358 OA
ATOM     22  H   LIG A   1      -9.473   4.472 128.177  0.00  0.00    +0.213 HD
ENDBRANCH   4  21
BRANCH   3  23
ATOM     23  C   LIG A   1      -9.430   3.587 130.149  0.00  0.00    +0.040 C 
BRANCH  23  24
ATOM     24  C   LIG A   1      -9.133   2.854 131.435  0.00  0.00    -0.034 C 
ATOM     25  C   LIG A   1      -9.907   1.878 131.929  0.00  0.00    +0.004 C 
ENDBRANCH  23  24
ENDBRANCH   3  23
TORSDOF 4
ENDMDL
MODEL 7
REMARK VINA RESULT:      -7.4      7.970     10.681
REMARK  Name = NuBBE_2298
REMARK  5 active torsions:
REMARK  status: ('A' for Active; 'I' for Inactive)
REMARK    1  A    between atoms: C_1  and  C_2
REMARK    2  A    between atoms: C_4  and  C_19
REMARK    3  A    between atoms: C_5  and  O_6
REMARK    4  A    between atoms: C_8  and  C_10
REMARK    5  A    between atoms: C_19  and  C_20
REMARK                            x       y       z     vdW  Elec       q    Type
REMARK                         _______ _______ _______ _____ _____    ______ ____
ROOT
ATOM      1  C   LIG A   1      -7.136   6.273 130.945  0.00  0.00    +0.011 C 
ATOM      2  C   LIG A   1      -8.416   5.445 131.105  0.00  0.00    +0.032 C 
ATOM      3  C   LIG A   1      -8.346   4.225 132.079  0.00  0.00    +0.044 C 
ATOM      4  C   LIG A   1      -9.013   4.819 133.336  0.00  0.00    +0.239 C 
ATOM      5  O   LIG A   1     -10.053   5.657 132.844  0.00  0.00    -0.334 OA
ATOM      6  C   LIG A   1      -9.556   6.328 131.674  0.00  0.00    +0.156 C 
ATOM      7  C   LIG A   1      -6.943   3.644 132.392  0.00  0.00    +0.040 C 
ATOM      8  C   LIG A   1      -6.139   4.356 133.437  0.00  0.00    -0.022 C 
ATOM      9  C   LIG A   1      -6.626   5.258 134.291  0.00  0.00    +0.048 C 
ATOM     10  C   LIG A   1      -8.056   5.635 134.254  0.00  0.00    +0.215 C 
ATOM     11  O   LIG A   1      -8.438   6.545 134.983  0.00  0.00    -0.287 OA
ENDROOT
BRANCH   6  12
ATOM     12  C   LIG A   1     -10.689   6.610 130.701  0.00  0.00    -0.015 A 
ATOM     13  C   LIG A   1     -10.472   6.512 129.313  0.00  0.00    +0.055 A 
ATOM     14  C   LIG A   1     -11.526   6.790 128.459  0.00  0.00    +0.167 A 
ATOM     15  O   LIG A   1     -11.480   6.773 127.099  0.00  0.00    -0.453 OA
ATOM     16  C   LIG A   1     -12.822   7.197 126.775  0.00  0.00    +0.466 C 
ATOM     17  O   LIG A   1     -13.665   7.360 127.933  0.00  0.00    -0.453 OA
ATOM     18  C   LIG A   1     -12.769   7.135 128.931  0.00  0.00    +0.166 A 
ATOM     19  C   LIG A   1     -13.025   7.243 130.278  0.00  0.00    +0.050 A 
ATOM     20  C   LIG A   1     -11.971   6.991 131.163  0.00  0.00    +0.010 A 
ENDBRANCH   6  12
BRANCH   4  21
ATOM     21  O   LIG A   1      -9.616   3.820 134.141  0.00  0.00    -0.358 OA
ATOM     22  H   LIG A   1     -10.274   4.314 134.666  0.00  0.00    +0.213 HD
ENDBRANCH   4  21
BRANCH   3  23
ATOM     23  C   LIG A   1      -9.217   3.039 131.523  0.00  0.00    +0.040 C 
BRANCH  23  24
ATOM     24  C   LIG A   1      -9.444   3.026 130.030  0.00  0.00    -0.034 C 
ATOM     25  C   LIG A   1      -8.741   2.266 129.180  0.00  0.00    +0.004 C 
ENDBRANCH  23  24
ENDBRANCH   3  23
TORSDOF 4
ENDMDL
MODEL 8
REMARK VINA RESULT:      -7.4      2.863      4.836
REMARK  Name = NuBBE_2298
REMARK  5 active torsions:
REMARK  status: ('A' for Active; 'I' for Inactive)
REMARK    1  A    between atoms: C_1  and  C_2
REMARK    2  A    between atoms: C_4  and  C_19
REMARK    3  A    between atoms: C_5  and  O_6
REMARK    4  A    between atoms: C_8  and  C_10
REMARK    5  A    between atoms: C_19  and  C_20
REMARK                            x       y       z     vdW  Elec       q    Type
REMARK                         _______ _______ _______ _____ _____    ______ ____
ROOT
ATOM      1  C   LIG A   1      -9.867   0.629 125.858  0.00  0.00    +0.011 C 
ATOM      2  C   LIG A   1      -8.891  -0.474 125.435  0.00  0.00    +0.032 C 
ATOM      3  C   LIG A   1      -8.614  -0.617 123.904  0.00  0.00    +0.044 C 
ATOM      4  C   LIG A   1      -7.262   0.114 123.783  0.00  0.00    +0.239 C 
ATOM      5  O   LIG A   1      -6.552  -0.220 124.972  0.00  0.00    -0.334 OA
ATOM      6  C   LIG A   1      -7.495  -0.219 126.058  0.00  0.00    +0.156 C 
ATOM      7  C   LIG A   1      -9.672  -0.034 122.932  0.00  0.00    +0.040 C 
ATOM      8  C   LIG A   1      -9.605   1.440 122.672  0.00  0.00    -0.022 C 
ATOM      9  C   LIG A   1      -8.571   2.224 122.983  0.00  0.00    +0.048 C 
ATOM     10  C   LIG A   1      -7.372   1.661 123.641  0.00  0.00    +0.215 C 
ATOM     11  O   LIG A   1      -6.491   2.433 124.007  0.00  0.00    -0.287 OA
ENDROOT
BRANCH   6  12
ATOM     12  C   LIG A   1      -7.079  -1.222 127.122  0.00  0.00    -0.015 A 
ATOM     13  C   LIG A   1      -5.715  -1.459 127.378  0.00  0.00    +0.055 A 
ATOM     14  C   LIG A   1      -5.377  -2.391 128.344  0.00  0.00    +0.167 A 
ATOM     15  O   LIG A   1      -4.114  -2.761 128.693  0.00  0.00    -0.453 OA
ATOM     16  C   LIG A   1      -4.391  -3.781 129.678  0.00  0.00    +0.466 C 
ATOM     17  O   LIG A   1      -5.795  -3.928 129.969  0.00  0.00    -0.453 OA
ATOM     18  C   LIG A   1      -6.333  -3.066 129.066  0.00  0.00    +0.166 A 
ATOM     19  C   LIG A   1      -7.676  -2.865 128.848  0.00  0.00    +0.050 A 
ATOM     20  C   LIG A   1      -8.045  -1.947 127.860  0.00  0.00    +0.010 A 
ENDBRANCH   6  12
BRANCH   4  21
ATOM     21  O   LIG A   1      -6.498  -0.355 122.685  0.00  0.00    -0.358 OA
ATOM     22  H   LIG A   1      -5.869  -0.980 123.093  0.00  0.00    +0.213 HD
ENDBRANCH   4  21
BRANCH   3  23
ATOM     23  C   LIG A   1      -8.435  -2.134 123.527  0.00  0.00    +0.040 C 
BRANCH  23  24
ATOM     24  C   LIG A   1      -8.965  -3.133 124.528  0.00  0.00    -0.034 C 
ATOM     25  C   LIG A   1      -8.243  -4.153 125.012  0.00  0.00    +0.004 C 
ENDBRANCH  23  24
ENDBRANCH   3  23
TORSDOF 4
ENDMDL
MODEL 9
REMARK VINA RESULT:      -7.3      3.254      4.988
REMARK  Name = NuBBE_2298
REMARK  5 active torsions:
REMARK  status: ('A' for Active; 'I' for Inactive)
REMARK    1  A    between atoms: C_1  and  C_2
REMARK    2  A    between atoms: C_4  and  C_19
REMARK    3  A    between atoms: C_5  and  O_6
REMARK    4  A    between atoms: C_8  and  C_10
REMARK    5  A    between atoms: C_19  and  C_20
REMARK                            x       y       z     vdW  Elec       q    Type
REMARK                         _______ _______ _______ _____ _____    ______ ____
ROOT
ATOM      1  C   LIG A   1      -5.526  -3.025 124.720  0.00  0.00    +0.011 C 
ATOM      2  C   LIG A   1      -6.130  -1.943 125.622  0.00  0.00    +0.032 C 
ATOM      3  C   LIG A   1      -6.992  -0.845 124.921  0.00  0.00    +0.044 C 
ATOM      4  C   LIG A   1      -8.415  -1.362 125.214  0.00  0.00    +0.239 C 
ATOM      5  O   LIG A   1      -8.349  -1.905 126.529  0.00  0.00    -0.334 OA
ATOM      6  C   LIG A   1      -7.089  -2.585 126.657  0.00  0.00    +0.156 C 
ATOM      7  C   LIG A   1      -6.762  -0.620 123.405  0.00  0.00    +0.040 C 
ATOM      8  C   LIG A   1      -7.452  -1.569 122.473  0.00  0.00    -0.022 C 
ATOM      9  C   LIG A   1      -8.439  -2.397 122.820  0.00  0.00    +0.048 C 
ATOM     10  C   LIG A   1      -8.932  -2.438 124.214  0.00  0.00    +0.215 C 
ATOM     11  O   LIG A   1      -9.764  -3.288 124.514  0.00  0.00    -0.287 OA
ENDROOT
BRANCH   6  12
ATOM     12  C   LIG A   1      -6.601  -2.531 128.096  0.00  0.00    -0.015 A 
ATOM     13  C   LIG A   1      -5.261  -2.203 128.378  0.00  0.00    +0.055 A 
ATOM     14  C   LIG A   1      -4.852  -2.179 129.700  0.00  0.00    +0.167 A 
ATOM     15  O   LIG A   1      -3.593  -1.913 130.144  0.00  0.00    -0.453 OA
ATOM     16  C   LIG A   1      -3.762  -2.093 131.567  0.00  0.00    +0.466 C 
ATOM     17  O   LIG A   1      -5.124  -2.362 131.952  0.00  0.00    -0.453 OA
ATOM     18  C   LIG A   1      -5.720  -2.445 130.732  0.00  0.00    +0.166 A 
ATOM     19  C   LIG A   1      -7.036  -2.770 130.502  0.00  0.00    +0.050 A 
ATOM     20  C   LIG A   1      -7.470  -2.825 129.174  0.00  0.00    +0.010 A 
ENDBRANCH   6  12
BRANCH   4  21
ATOM     21  O   LIG A   1      -9.369  -0.313 125.234  0.00  0.00    -0.358 OA
ATOM     22  H   LIG A   1      -8.996   0.349 124.622  0.00  0.00    +0.213 HD
ENDBRANCH   4  21
BRANCH   3  23
ATOM     23  C   LIG A   1      -6.774   0.545 125.626  0.00  0.00    +0.040 C 
BRANCH  23  24
ATOM     24  C   LIG A   1      -5.396   0.792 126.193  0.00  0.00    -0.034 C 
ATOM     25  C   LIG A   1      -4.815   1.998 126.230  0.00  0.00    +0.004 C 
ENDBRANCH  23  24
ENDBRANCH   3  23
TORSDOF 4
ENDMDL
