MODEL 1
REMARK VINA RESULT:      -6.3      0.000      0.000
REMARK  Name = NuBBE_186
REMARK  20 active torsions:
REMARK  status: ('A' for Active; 'I' for Inactive)
REMARK    1  A    between atoms: C_2  and  O_3
REMARK    2  A    between atoms: C_2  and  C_4
REMARK    3  A    between atoms: C_4  and  C_5
REMARK    4  A    between atoms: C_5  and  C_6
REMARK    5  A    between atoms: C_6  and  C_7
REMARK    6  A    between atoms: C_7  and  C_8
REMARK    7  A    between atoms: C_8  and  C_9
REMARK    8  A    between atoms: C_9  and  C_10
REMARK    9  A    between atoms: C_10  and  C_11
REMARK   10  A    between atoms: C_11  and  C_12
REMARK   11  A    between atoms: C_12  and  C_13
REMARK   12  A    between atoms: C_13  and  C_14
REMARK   13  A    between atoms: C_14  and  C_15
REMARK   14  A    between atoms: C_15  and  C_16
REMARK   15  A    between atoms: C_16  and  C_17
REMARK   16  A    between atoms: C_17  and  C_18
REMARK   17  A    between atoms: C_18  and  C_19
REMARK   18  A    between atoms: C_19  and  C_20
REMARK   19  A    between atoms: C_20  and  C_21
REMARK   20  A    between atoms: C_21  and  C_22
REMARK                            x       y       z     vdW  Elec       q    Type
REMARK                         _______ _______ _______ _____ _____    ______ ____
ROOT
ATOM      1  C   LIG A   1      -9.304  -3.021 125.805  0.00  0.00    -0.000 C 
ENDROOT
BRANCH   1   2
ATOM      2  C   LIG A   1      -8.830  -3.532 124.396  0.00  0.00    -0.000 C 
BRANCH   2   3
ATOM      3  C   LIG A   1      -9.446  -2.829 123.161  0.00  0.00    -0.000 C 
BRANCH   3   4
ATOM      4  C   LIG A   1      -8.983  -1.372 122.856  0.00  0.00    +0.000 C 
BRANCH   4   5
ATOM      5  C   LIG A   1     -10.062  -0.265 122.644  0.00  0.00    +0.000 C 
BRANCH   5   6
ATOM      6  C   LIG A   1      -9.785   0.993 123.493  0.00  0.00    +0.005 C 
BRANCH   6   7
ATOM      7  C   LIG A   1      -8.362   1.592 123.621  0.00  0.00    +0.035 C 
BRANCH   7   8
ATOM      8  C   LIG A   1      -7.802   2.603 122.638  0.00  0.00    -0.044 A 
ATOM      9  C   LIG A   1      -8.505   3.136 121.548  0.00  0.00    +0.053 A 
ATOM     10  C   LIG A   1      -7.785   3.871 120.615  0.00  0.00    +0.167 A 
ATOM     11  O   LIG A   1      -8.249   4.332 119.418  0.00  0.00    -0.453 OA
ATOM     12  C   LIG A   1      -7.012   4.728 118.780  0.00  0.00    +0.466 C 
ATOM     13  O   LIG A   1      -5.885   4.720 119.677  0.00  0.00    -0.453 OA
ATOM     14  C   LIG A   1      -6.443   4.139 120.771  0.00  0.00    +0.166 A 
ATOM     15  C   LIG A   1      -5.766   3.786 121.911  0.00  0.00    +0.050 A 
ATOM     16  C   LIG A   1      -6.461   3.029 122.855  0.00  0.00    +0.007 A 
ENDBRANCH   7   8
ENDBRANCH   6   7
ENDBRANCH   5   6
ENDBRANCH   4   5
ENDBRANCH   3   4
ENDBRANCH   2   3
ENDBRANCH   1   2
BRANCH   1  17
ATOM     17  C   LIG A   1      -8.245  -3.255 126.896  0.00  0.00    -0.000 C 
BRANCH  17  18
ATOM     18  C   LIG A   1      -8.612  -3.448 128.388  0.00  0.00    -0.000 C 
BRANCH  18  19
ATOM     19  C   LIG A   1      -7.570  -3.387 129.529  0.00  0.00    -0.000 C 
BRANCH  19  20
ATOM     20  C   LIG A   1      -7.011  -1.984 129.816  0.00  0.00    -0.000 C 
BRANCH  20  21
ATOM     21  C   LIG A   1      -7.951  -0.802 129.454  0.00  0.00    -0.000 C 
BRANCH  21  22
ATOM     22  C   LIG A   1      -7.257   0.283 128.566  0.00  0.00    -0.000 C 
BRANCH  22  23
ATOM     23  C   LIG A   1      -7.354   0.032 127.026  0.00  0.00    -0.000 C 
BRANCH  23  24
ATOM     24  C   LIG A   1      -6.010  -0.304 126.332  0.00  0.00    +0.000 C 
BRANCH  24  25
ATOM     25  C   LIG A   1      -6.032  -1.028 124.953  0.00  0.00    +0.000 C 
BRANCH  25  26
ATOM     26  C   LIG A   1      -4.918  -2.010 124.548  0.00  0.00    +0.011 C 
BRANCH  26  27
ATOM     27  C   LIG A   1      -5.205  -2.979 123.404  0.00  0.00    +0.120 C 
BRANCH  27  29
ATOM     28  O   LIG A   1      -5.525  -5.254 124.147  0.00  0.00    -0.251 OA
ATOM     29  C   LIG A   1      -4.760  -4.370 123.670  0.00  0.00    +0.305 C 
BRANCH  29  30
ATOM     30  O   LIG A   1      -3.499  -4.657 123.382  0.00  0.00    -0.481 OA
ATOM     31  H   LIG A   1      -3.383  -5.558 122.984  0.00  0.00    +0.295 HD
ENDBRANCH  29  30
ENDBRANCH  27  29
ENDBRANCH  26  27
ENDBRANCH  25  26
ENDBRANCH  24  25
ENDBRANCH  23  24
ENDBRANCH  22  23
ENDBRANCH  21  22
ENDBRANCH  20  21
ENDBRANCH  19  20
ENDBRANCH  18  19
ENDBRANCH  17  18
ENDBRANCH   1  17
TORSDOF 20
ENDMDL
MODEL 2
REMARK VINA RESULT:      -6.2      5.392      8.171
REMARK  Name = NuBBE_186
REMARK  20 active torsions:
REMARK  status: ('A' for Active; 'I' for Inactive)
REMARK    1  A    between atoms: C_2  and  O_3
REMARK    2  A    between atoms: C_2  and  C_4
REMARK    3  A    between atoms: C_4  and  C_5
REMARK    4  A    between atoms: C_5  and  C_6
REMARK    5  A    between atoms: C_6  and  C_7
REMARK    6  A    between atoms: C_7  and  C_8
REMARK    7  A    between atoms: C_8  and  C_9
REMARK    8  A    between atoms: C_9  and  C_10
REMARK    9  A    between atoms: C_10  and  C_11
REMARK   10  A    between atoms: C_11  and  C_12
REMARK   11  A    between atoms: C_12  and  C_13
REMARK   12  A    between atoms: C_13  and  C_14
REMARK   13  A    between atoms: C_14  and  C_15
REMARK   14  A    between atoms: C_15  and  C_16
REMARK   15  A    between atoms: C_16  and  C_17
REMARK   16  A    between atoms: C_17  and  C_18
REMARK   17  A    between atoms: C_18  and  C_19
REMARK   18  A    between atoms: C_19  and  C_20
REMARK   19  A    between atoms: C_20  and  C_21
REMARK   20  A    between atoms: C_21  and  C_22
REMARK                            x       y       z     vdW  Elec       q    Type
REMARK                         _______ _______ _______ _____ _____    ______ ____
ROOT
ATOM      1  C   LIG A   1      -7.670  -1.140 130.643  0.00  0.00    -0.000 C 
ENDROOT
BRANCH   1   2
ATOM      2  C   LIG A   1      -8.491   0.196 130.522  0.00  0.00    -0.000 C 
BRANCH   2   3
ATOM      3  C   LIG A   1      -9.209   0.686 131.804  0.00  0.00    -0.000 C 
BRANCH   3   4
ATOM      4  C   LIG A   1      -9.511   2.210 131.923  0.00  0.00    +0.000 C 
BRANCH   4   5
ATOM      5  C   LIG A   1      -9.238   2.931 133.280  0.00  0.00    +0.000 C 
BRANCH   5   6
ATOM      6  C   LIG A   1      -8.576   4.311 133.086  0.00  0.00    +0.005 C 
BRANCH   6   7
ATOM      7  C   LIG A   1      -9.415   5.613 133.014  0.00  0.00    +0.035 C 
BRANCH   7   8
ATOM      8  C   LIG A   1     -10.094   6.087 131.744  0.00  0.00    -0.044 A 
ATOM      9  C   LIG A   1     -11.406   6.577 131.670  0.00  0.00    +0.053 A 
ATOM     10  C   LIG A   1     -11.957   6.755 130.408  0.00  0.00    +0.167 A 
ATOM     11  O   LIG A   1     -13.256   7.067 130.130  0.00  0.00    -0.453 OA
ATOM     12  C   LIG A   1     -13.298   6.815 128.706  0.00  0.00    +0.466 C 
ATOM     13  O   LIG A   1     -11.996   6.595 128.131  0.00  0.00    -0.453 OA
ATOM     14  C   LIG A   1     -11.236   6.532 129.256  0.00  0.00    +0.166 A 
ATOM     15  C   LIG A   1      -9.899   6.225 129.291  0.00  0.00    +0.050 A 
ATOM     16  C   LIG A   1      -9.326   6.021 130.547  0.00  0.00    +0.007 A 
ENDBRANCH   7   8
ENDBRANCH   6   7
ENDBRANCH   5   6
ENDBRANCH   4   5
ENDBRANCH   3   4
ENDBRANCH   2   3
ENDBRANCH   1   2
BRANCH   1  17
ATOM     17  C   LIG A   1      -7.555  -1.876 129.298  0.00  0.00    -0.000 C 
BRANCH  17  18
ATOM     18  C   LIG A   1      -8.134  -3.294 129.070  0.00  0.00    -0.000 C 
BRANCH  18  19
ATOM     19  C   LIG A   1      -8.975  -3.675 127.830  0.00  0.00    -0.000 C 
BRANCH  19  20
ATOM     20  C   LIG A   1      -8.729  -2.798 126.591  0.00  0.00    -0.000 C 
BRANCH  20  21
ATOM     21  C   LIG A   1      -8.275  -3.556 125.314  0.00  0.00    -0.000 C 
BRANCH  21  22
ATOM     22  C   LIG A   1      -9.248  -3.359 124.105  0.00  0.00    -0.000 C 
BRANCH  22  23
ATOM     23  C   LIG A   1      -8.724  -2.394 122.992  0.00  0.00    -0.000 C 
BRANCH  23  24
ATOM     24  C   LIG A   1      -7.271  -1.893 123.189  0.00  0.00    +0.000 C 
BRANCH  24  25
ATOM     25  C   LIG A   1      -7.035  -0.493 123.831  0.00  0.00    +0.000 C 
BRANCH  25  26
ATOM     26  C   LIG A   1      -7.934   0.707 123.482  0.00  0.00    +0.011 C 
BRANCH  26  27
ATOM     27  C   LIG A   1      -9.244   0.862 124.249  0.00  0.00    +0.120 C 
BRANCH  27  29
ATOM     28  O   LIG A   1     -10.424   0.607 122.157  0.00  0.00    -0.251 OA
ATOM     29  C   LIG A   1     -10.444   0.933 123.378  0.00  0.00    +0.305 C 
BRANCH  29  30
ATOM     30  O   LIG A   1     -11.563   1.363 123.941  0.00  0.00    -0.481 OA
ATOM     31  H   LIG A   1     -12.043   0.658 124.448  0.00  0.00    +0.295 HD
ENDBRANCH  29  30
ENDBRANCH  27  29
ENDBRANCH  26  27
ENDBRANCH  25  26
ENDBRANCH  24  25
ENDBRANCH  23  24
ENDBRANCH  22  23
ENDBRANCH  21  22
ENDBRANCH  20  21
ENDBRANCH  19  20
ENDBRANCH  18  19
ENDBRANCH  17  18
ENDBRANCH   1  17
TORSDOF 20
ENDMDL
MODEL 3
REMARK VINA RESULT:      -6.0      2.262      7.335
REMARK  Name = NuBBE_186
REMARK  20 active torsions:
REMARK  status: ('A' for Active; 'I' for Inactive)
REMARK    1  A    between atoms: C_2  and  O_3
REMARK    2  A    between atoms: C_2  and  C_4
REMARK    3  A    between atoms: C_4  and  C_5
REMARK    4  A    between atoms: C_5  and  C_6
REMARK    5  A    between atoms: C_6  and  C_7
REMARK    6  A    between atoms: C_7  and  C_8
REMARK    7  A    between atoms: C_8  and  C_9
REMARK    8  A    between atoms: C_9  and  C_10
REMARK    9  A    between atoms: C_10  and  C_11
REMARK   10  A    between atoms: C_11  and  C_12
REMARK   11  A    between atoms: C_12  and  C_13
REMARK   12  A    between atoms: C_13  and  C_14
REMARK   13  A    between atoms: C_14  and  C_15
REMARK   14  A    between atoms: C_15  and  C_16
REMARK   15  A    between atoms: C_16  and  C_17
REMARK   16  A    between atoms: C_17  and  C_18
REMARK   17  A    between atoms: C_18  and  C_19
REMARK   18  A    between atoms: C_19  and  C_20
REMARK   19  A    between atoms: C_20  and  C_21
REMARK   20  A    between atoms: C_21  and  C_22
REMARK                            x       y       z     vdW  Elec       q    Type
REMARK                         _______ _______ _______ _____ _____    ______ ____
ROOT
ATOM      1  C   LIG A   1      -4.381  -0.095 130.403  0.00  0.00    -0.000 C 
ENDROOT
BRANCH   1   2
ATOM      2  C   LIG A   1      -4.757  -1.608 130.203  0.00  0.00    -0.000 C 
BRANCH   2   3
ATOM      3  C   LIG A   1      -5.593  -2.269 131.326  0.00  0.00    -0.000 C 
BRANCH   3   4
ATOM      4  C   LIG A   1      -7.146  -2.177 131.218  0.00  0.00    +0.000 C 
BRANCH   4   5
ATOM      5  C   LIG A   1      -7.800  -2.063 129.806  0.00  0.00    +0.000 C 
BRANCH   5   6
ATOM      6  C   LIG A   1      -7.806  -3.410 129.054  0.00  0.00    +0.005 C 
BRANCH   6   7
ATOM      7  C   LIG A   1      -8.759  -3.671 127.860  0.00  0.00    +0.035 C 
BRANCH   7   8
ATOM      8  C   LIG A   1      -8.602  -2.988 126.516  0.00  0.00    -0.044 A 
ATOM      9  C   LIG A   1      -8.699  -1.605 126.302  0.00  0.00    +0.053 A 
ATOM     10  C   LIG A   1      -8.759  -1.159 124.988  0.00  0.00    +0.167 A 
ATOM     11  O   LIG A   1      -9.012   0.118 124.580  0.00  0.00    -0.453 OA
ATOM     12  C   LIG A   1      -9.251  -0.090 123.168  0.00  0.00    +0.466 C 
ATOM     13  O   LIG A   1      -8.909  -1.417 122.725  0.00  0.00    -0.453 OA
ATOM     14  C   LIG A   1      -8.657  -2.019 123.918  0.00  0.00    +0.166 A 
ATOM     15  C   LIG A   1      -8.383  -3.352 124.088  0.00  0.00    +0.050 A 
ATOM     16  C   LIG A   1      -8.338  -3.830 125.399  0.00  0.00    +0.007 A 
ENDBRANCH   7   8
ENDBRANCH   6   7
ENDBRANCH   5   6
ENDBRANCH   4   5
ENDBRANCH   3   4
ENDBRANCH   2   3
ENDBRANCH   1   2
BRANCH   1  17
ATOM     17  C   LIG A   1      -4.983   0.804 129.310  0.00  0.00    -0.000 C 
BRANCH  17  18
ATOM     18  C   LIG A   1      -5.962   0.271 128.236  0.00  0.00    -0.000 C 
BRANCH  18  19
ATOM     19  C   LIG A   1      -5.495  -0.335 126.892  0.00  0.00    -0.000 C 
BRANCH  19  20
ATOM     20  C   LIG A   1      -5.332   0.682 125.750  0.00  0.00    -0.000 C 
BRANCH  20  21
ATOM     21  C   LIG A   1      -6.176   1.979 125.883  0.00  0.00    -0.000 C 
BRANCH  21  22
ATOM     22  C   LIG A   1      -5.444   3.247 125.333  0.00  0.00    -0.000 C 
BRANCH  22  23
ATOM     23  C   LIG A   1      -6.345   4.215 124.500  0.00  0.00    -0.000 C 
BRANCH  23  24
ATOM     24  C   LIG A   1      -7.233   3.529 123.432  0.00  0.00    +0.000 C 
BRANCH  24  25
ATOM     25  C   LIG A   1      -6.555   2.894 122.181  0.00  0.00    +0.000 C 
BRANCH  25  26
ATOM     26  C   LIG A   1      -5.610   3.712 121.283  0.00  0.00    +0.011 C 
BRANCH  26  27
ATOM     27  C   LIG A   1      -6.184   4.302 119.998  0.00  0.00    +0.120 C 
BRANCH  27  29
ATOM     28  O   LIG A   1      -4.729   6.211 120.268  0.00  0.00    -0.251 OA
ATOM     29  C   LIG A   1      -5.463   5.507 119.517  0.00  0.00    +0.305 C 
BRANCH  29  30
ATOM     30  O   LIG A   1      -5.620   5.826 118.241  0.00  0.00    -0.481 OA
ATOM     31  H   LIG A   1      -6.538   5.654 117.904  0.00  0.00    +0.295 HD
ENDBRANCH  29  30
ENDBRANCH  27  29
ENDBRANCH  26  27
ENDBRANCH  25  26
ENDBRANCH  24  25
ENDBRANCH  23  24
ENDBRANCH  22  23
ENDBRANCH  21  22
ENDBRANCH  20  21
ENDBRANCH  19  20
ENDBRANCH  18  19
ENDBRANCH  17  18
ENDBRANCH   1  17
TORSDOF 20
ENDMDL
MODEL 4
REMARK VINA RESULT:      -6.0      5.373      9.050
REMARK  Name = NuBBE_186
REMARK  20 active torsions:
REMARK  status: ('A' for Active; 'I' for Inactive)
REMARK    1  A    between atoms: C_2  and  O_3
REMARK    2  A    between atoms: C_2  and  C_4
REMARK    3  A    between atoms: C_4  and  C_5
REMARK    4  A    between atoms: C_5  and  C_6
REMARK    5  A    between atoms: C_6  and  C_7
REMARK    6  A    between atoms: C_7  and  C_8
REMARK    7  A    between atoms: C_8  and  C_9
REMARK    8  A    between atoms: C_9  and  C_10
REMARK    9  A    between atoms: C_10  and  C_11
REMARK   10  A    between atoms: C_11  and  C_12
REMARK   11  A    between atoms: C_12  and  C_13
REMARK   12  A    between atoms: C_13  and  C_14
REMARK   13  A    between atoms: C_14  and  C_15
REMARK   14  A    between atoms: C_15  and  C_16
REMARK   15  A    between atoms: C_16  and  C_17
REMARK   16  A    between atoms: C_17  and  C_18
REMARK   17  A    between atoms: C_18  and  C_19
REMARK   18  A    between atoms: C_19  and  C_20
REMARK   19  A    between atoms: C_20  and  C_21
REMARK   20  A    between atoms: C_21  and  C_22
REMARK                            x       y       z     vdW  Elec       q    Type
REMARK                         _______ _______ _______ _____ _____    ______ ____
ROOT
ATOM      1  C   LIG A   1      -8.174   1.565 129.202  0.00  0.00    -0.000 C 
ENDROOT
BRANCH   1   2
ATOM      2  C   LIG A   1      -8.251   0.277 130.100  0.00  0.00    -0.000 C 
BRANCH   2   3
ATOM      3  C   LIG A   1      -6.907  -0.281 130.628  0.00  0.00    -0.000 C 
BRANCH   3   4
ATOM      4  C   LIG A   1      -6.622  -1.799 130.415  0.00  0.00    +0.000 C 
BRANCH   4   5
ATOM      5  C   LIG A   1      -6.936  -2.439 129.027  0.00  0.00    +0.000 C 
BRANCH   5   6
ATOM      6  C   LIG A   1      -8.208  -3.312 129.059  0.00  0.00    +0.005 C 
BRANCH   6   7
ATOM      7  C   LIG A   1      -8.915  -3.768 127.758  0.00  0.00    +0.035 C 
BRANCH   7   8
ATOM      8  C   LIG A   1      -8.733  -3.060 126.429  0.00  0.00    -0.044 A 
ATOM      9  C   LIG A   1      -9.007  -1.705 126.197  0.00  0.00    +0.053 A 
ATOM     10  C   LIG A   1      -9.007  -1.263 124.880  0.00  0.00    +0.167 A 
ATOM     11  O   LIG A   1      -9.401  -0.034 124.441  0.00  0.00    -0.453 OA
ATOM     12  C   LIG A   1      -9.474  -0.265 123.014  0.00  0.00    +0.466 C 
ATOM     13  O   LIG A   1      -8.905  -1.526 122.615  0.00  0.00    -0.453 OA
ATOM     14  C   LIG A   1      -8.682  -2.093 123.830  0.00  0.00    +0.166 A 
ATOM     15  C   LIG A   1      -8.236  -3.374 124.036  0.00  0.00    +0.050 A 
ATOM     16  C   LIG A   1      -8.246  -3.848 125.348  0.00  0.00    +0.007 A 
ENDBRANCH   7   8
ENDBRANCH   6   7
ENDBRANCH   5   6
ENDBRANCH   4   5
ENDBRANCH   3   4
ENDBRANCH   2   3
ENDBRANCH   1   2
BRANCH   1  17
ATOM     17  C   LIG A   1      -8.734   2.807 129.916  0.00  0.00    -0.000 C 
BRANCH  17  18
ATOM     18  C   LIG A   1      -8.038   4.189 129.856  0.00  0.00    -0.000 C 
BRANCH  18  19
ATOM     19  C   LIG A   1      -7.239   4.785 131.038  0.00  0.00    -0.000 C 
BRANCH  19  20
ATOM     20  C   LIG A   1      -7.817   6.088 131.614  0.00  0.00    -0.000 C 
BRANCH  20  21
ATOM     21  C   LIG A   1      -9.142   6.576 130.967  0.00  0.00    -0.000 C 
BRANCH  21  22
ATOM     22  C   LIG A   1     -10.403   6.253 131.833  0.00  0.00    -0.000 C 
BRANCH  22  23
ATOM     23  C   LIG A   1     -11.737   6.120 131.028  0.00  0.00    -0.000 C 
BRANCH  23  24
ATOM     24  C   LIG A   1     -12.475   7.455 130.756  0.00  0.00    +0.000 C 
BRANCH  24  25
ATOM     25  C   LIG A   1     -13.077   7.711 129.343  0.00  0.00    +0.000 C 
BRANCH  25  26
ATOM     26  C   LIG A   1     -12.375   8.634 128.330  0.00  0.00    +0.011 C 
BRANCH  26  27
ATOM     27  C   LIG A   1     -10.882   8.425 128.095  0.00  0.00    +0.120 C 
BRANCH  27  29
ATOM     28  O   LIG A   1     -10.932   7.682 125.798  0.00  0.00    -0.251 OA
ATOM     29  C   LIG A   1     -10.574   7.480 126.993  0.00  0.00    +0.305 C 
BRANCH  29  30
ATOM     30  O   LIG A   1      -9.894   6.390 127.315  0.00  0.00    -0.481 OA
ATOM     31  H   LIG A   1     -10.473   5.601 127.482  0.00  0.00    +0.295 HD
ENDBRANCH  29  30
ENDBRANCH  27  29
ENDBRANCH  26  27
ENDBRANCH  25  26
ENDBRANCH  24  25
ENDBRANCH  23  24
ENDBRANCH  22  23
ENDBRANCH  21  22
ENDBRANCH  20  21
ENDBRANCH  19  20
ENDBRANCH  18  19
ENDBRANCH  17  18
ENDBRANCH   1  17
TORSDOF 20
ENDMDL
MODEL 5
REMARK VINA RESULT:      -6.0      2.854      8.779
REMARK  Name = NuBBE_186
REMARK  20 active torsions:
REMARK  status: ('A' for Active; 'I' for Inactive)
REMARK    1  A    between atoms: C_2  and  O_3
REMARK    2  A    between atoms: C_2  and  C_4
REMARK    3  A    between atoms: C_4  and  C_5
REMARK    4  A    between atoms: C_5  and  C_6
REMARK    5  A    between atoms: C_6  and  C_7
REMARK    6  A    between atoms: C_7  and  C_8
REMARK    7  A    between atoms: C_8  and  C_9
REMARK    8  A    between atoms: C_9  and  C_10
REMARK    9  A    between atoms: C_10  and  C_11
REMARK   10  A    between atoms: C_11  and  C_12
REMARK   11  A    between atoms: C_12  and  C_13
REMARK   12  A    between atoms: C_13  and  C_14
REMARK   13  A    between atoms: C_14  and  C_15
REMARK   14  A    between atoms: C_15  and  C_16
REMARK   15  A    between atoms: C_16  and  C_17
REMARK   16  A    between atoms: C_17  and  C_18
REMARK   17  A    between atoms: C_18  and  C_19
REMARK   18  A    between atoms: C_19  and  C_20
REMARK   19  A    between atoms: C_20  and  C_21
REMARK   20  A    between atoms: C_21  and  C_22
REMARK                            x       y       z     vdW  Elec       q    Type
REMARK                         _______ _______ _______ _____ _____    ______ ____
ROOT
ATOM      1  C   LIG A   1      -7.956  -1.116 123.030  0.00  0.00    -0.000 C 
ENDROOT
BRANCH   1   2
ATOM      2  C   LIG A   1      -8.466  -2.578 122.758  0.00  0.00    -0.000 C 
BRANCH   2   3
ATOM      3  C   LIG A   1      -9.315  -3.235 123.874  0.00  0.00    -0.000 C 
BRANCH   3   4
ATOM      4  C   LIG A   1      -8.615  -3.525 125.236  0.00  0.00    +0.000 C 
BRANCH   4   5
ATOM      5  C   LIG A   1      -9.416  -3.314 126.558  0.00  0.00    +0.000 C 
BRANCH   5   6
ATOM      6  C   LIG A   1      -8.610  -3.733 127.805  0.00  0.00    +0.005 C 
BRANCH   6   7
ATOM      7  C   LIG A   1      -7.709  -2.728 128.567  0.00  0.00    +0.035 C 
BRANCH   7   8
ATOM      8  C   LIG A   1      -6.445  -3.142 129.296  0.00  0.00    -0.044 A 
ATOM      9  C   LIG A   1      -6.387  -4.093 130.324  0.00  0.00    +0.053 A 
ATOM     10  C   LIG A   1      -5.203  -4.194 131.042  0.00  0.00    +0.167 A 
ATOM     11  O   LIG A   1      -5.002  -4.937 132.169  0.00  0.00    -0.453 OA
ATOM     12  C   LIG A   1      -3.729  -4.415 132.616  0.00  0.00    +0.466 C 
ATOM     13  O   LIG A   1      -3.094  -3.562 131.645  0.00  0.00    -0.453 OA
ATOM     14  C   LIG A   1      -4.090  -3.447 130.727  0.00  0.00    +0.166 A 
ATOM     15  C   LIG A   1      -4.055  -2.640 129.619  0.00  0.00    +0.050 A 
ATOM     16  C   LIG A   1      -5.238  -2.505 128.892  0.00  0.00    +0.007 A 
ENDBRANCH   7   8
ENDBRANCH   6   7
ENDBRANCH   5   6
ENDBRANCH   4   5
ENDBRANCH   3   4
ENDBRANCH   2   3
ENDBRANCH   1   2
BRANCH   1  17
ATOM     17  C   LIG A   1      -6.652  -1.097 123.846  0.00  0.00    -0.000 C 
BRANCH  17  18
ATOM     18  C   LIG A   1      -6.325   0.016 124.871  0.00  0.00    -0.000 C 
BRANCH  18  19
ATOM     19  C   LIG A   1      -6.999   0.112 126.259  0.00  0.00    -0.000 C 
BRANCH  19  20
ATOM     20  C   LIG A   1      -8.372   0.805 126.262  0.00  0.00    -0.000 C 
BRANCH  20  21
ATOM     21  C   LIG A   1      -8.430   2.176 125.534  0.00  0.00    -0.000 C 
BRANCH  21  22
ATOM     22  C   LIG A   1      -7.691   3.315 126.310  0.00  0.00    -0.000 C 
BRANCH  22  23
ATOM     23  C   LIG A   1      -6.213   3.561 125.864  0.00  0.00    -0.000 C 
BRANCH  23  24
ATOM     24  C   LIG A   1      -6.045   4.507 124.647  0.00  0.00    +0.000 C 
BRANCH  24  25
ATOM     25  C   LIG A   1      -6.094   3.906 123.211  0.00  0.00    +0.000 C 
BRANCH  25  26
ATOM     26  C   LIG A   1      -5.073   4.321 122.136  0.00  0.00    +0.011 C 
BRANCH  26  27
ATOM     27  C   LIG A   1      -5.415   4.024 120.679  0.00  0.00    +0.120 C 
BRANCH  27  29
ATOM     28  O   LIG A   1      -6.132   5.283 118.747  0.00  0.00    -0.251 OA
ATOM     29  C   LIG A   1      -5.462   5.232 119.817  0.00  0.00    +0.305 C 
BRANCH  29  30
ATOM     30  O   LIG A   1      -4.758   6.279 120.219  0.00  0.00    -0.481 OA
ATOM     31  H   LIG A   1      -4.875   7.077 119.641  0.00  0.00    +0.295 HD
ENDBRANCH  29  30
ENDBRANCH  27  29
ENDBRANCH  26  27
ENDBRANCH  25  26
ENDBRANCH  24  25
ENDBRANCH  23  24
ENDBRANCH  22  23
ENDBRANCH  21  22
ENDBRANCH  20  21
ENDBRANCH  19  20
ENDBRANCH  18  19
ENDBRANCH  17  18
ENDBRANCH   1  17
TORSDOF 20
ENDMDL
MODEL 6
REMARK VINA RESULT:      -5.9      5.871      8.291
REMARK  Name = NuBBE_186
REMARK  20 active torsions:
REMARK  status: ('A' for Active; 'I' for Inactive)
REMARK    1  A    between atoms: C_2  and  O_3
REMARK    2  A    between atoms: C_2  and  C_4
REMARK    3  A    between atoms: C_4  and  C_5
REMARK    4  A    between atoms: C_5  and  C_6
REMARK    5  A    between atoms: C_6  and  C_7
REMARK    6  A    between atoms: C_7  and  C_8
REMARK    7  A    between atoms: C_8  and  C_9
REMARK    8  A    between atoms: C_9  and  C_10
REMARK    9  A    between atoms: C_10  and  C_11
REMARK   10  A    between atoms: C_11  and  C_12
REMARK   11  A    between atoms: C_12  and  C_13
REMARK   12  A    between atoms: C_13  and  C_14
REMARK   13  A    between atoms: C_14  and  C_15
REMARK   14  A    between atoms: C_15  and  C_16
REMARK   15  A    between atoms: C_16  and  C_17
REMARK   16  A    between atoms: C_17  and  C_18
REMARK   17  A    between atoms: C_18  and  C_19
REMARK   18  A    between atoms: C_19  and  C_20
REMARK   19  A    between atoms: C_20  and  C_21
REMARK   20  A    between atoms: C_21  and  C_22
REMARK                            x       y       z     vdW  Elec       q    Type
REMARK                         _______ _______ _______ _____ _____    ______ ____
ROOT
ATOM      1  C   LIG A   1      -8.829   1.815 131.033  0.00  0.00    -0.000 C 
ENDROOT
BRANCH   1   2
ATOM      2  C   LIG A   1      -9.807   2.716 131.872  0.00  0.00    -0.000 C 
BRANCH   2   3
ATOM      3  C   LIG A   1      -9.401   3.000 133.339  0.00  0.00    -0.000 C 
BRANCH   3   4
ATOM      4  C   LIG A   1      -7.878   3.090 133.661  0.00  0.00    +0.000 C 
BRANCH   4   5
ATOM      5  C   LIG A   1      -7.211   4.496 133.775  0.00  0.00    +0.000 C 
BRANCH   5   6
ATOM      6  C   LIG A   1      -8.181   5.636 133.400  0.00  0.00    +0.005 C 
BRANCH   6   7
ATOM      7  C   LIG A   1      -8.178   6.276 131.989  0.00  0.00    +0.035 C 
BRANCH   7   8
ATOM      8  C   LIG A   1      -9.449   6.630 131.242  0.00  0.00    -0.044 A 
ATOM      9  C   LIG A   1      -9.495   7.258 129.989  0.00  0.00    +0.053 A 
ATOM     10  C   LIG A   1     -10.728   7.718 129.543  0.00  0.00    +0.167 A 
ATOM     11  O   LIG A   1     -10.952   8.487 128.439  0.00  0.00    -0.453 OA
ATOM     12  C   LIG A   1     -12.323   8.891 128.663  0.00  0.00    +0.466 C 
ATOM     13  O   LIG A   1     -12.954   8.181 129.745  0.00  0.00    -0.453 OA
ATOM     14  C   LIG A   1     -11.887   7.512 130.257  0.00  0.00    +0.166 A 
ATOM     15  C   LIG A   1     -11.906   6.747 131.396  0.00  0.00    +0.050 A 
ATOM     16  C   LIG A   1     -10.678   6.290 131.876  0.00  0.00    +0.007 A 
ENDBRANCH   7   8
ENDBRANCH   6   7
ENDBRANCH   5   6
ENDBRANCH   4   5
ENDBRANCH   3   4
ENDBRANCH   2   3
ENDBRANCH   1   2
BRANCH   1  17
ATOM     17  C   LIG A   1      -8.937   0.328 131.414  0.00  0.00    -0.000 C 
BRANCH  17  18
ATOM     18  C   LIG A   1      -7.719  -0.501 131.889  0.00  0.00    -0.000 C 
BRANCH  18  19
ATOM     19  C   LIG A   1      -7.173  -1.721 131.112  0.00  0.00    -0.000 C 
BRANCH  19  20
ATOM     20  C   LIG A   1      -6.733  -1.422 129.669  0.00  0.00    -0.000 C 
BRANCH  20  21
ATOM     21  C   LIG A   1      -7.670  -1.968 128.557  0.00  0.00    -0.000 C 
BRANCH  21  22
ATOM     22  C   LIG A   1      -8.036  -3.476 128.749  0.00  0.00    -0.000 C 
BRANCH  22  23
ATOM     23  C   LIG A   1      -8.998  -4.062 127.665  0.00  0.00    -0.000 C 
BRANCH  23  24
ATOM     24  C   LIG A   1      -9.307  -3.112 126.481  0.00  0.00    +0.000 C 
BRANCH  24  25
ATOM     25  C   LIG A   1      -8.678  -3.412 125.088  0.00  0.00    +0.000 C 
BRANCH  25  26
ATOM     26  C   LIG A   1      -7.152  -3.451 124.892  0.00  0.00    +0.011 C 
BRANCH  26  27
ATOM     27  C   LIG A   1      -6.457  -2.162 124.463  0.00  0.00    +0.120 C 
BRANCH  27  29
ATOM     28  O   LIG A   1      -5.842  -2.103 122.128  0.00  0.00    -0.251 OA
ATOM     29  C   LIG A   1      -6.671  -1.811 123.036  0.00  0.00    +0.305 C 
BRANCH  29  30
ATOM     30  O   LIG A   1      -7.789  -1.164 122.743  0.00  0.00    -0.481 OA
ATOM     31  H   LIG A   1      -8.574  -1.482 123.260  0.00  0.00    +0.295 HD
ENDBRANCH  29  30
ENDBRANCH  27  29
ENDBRANCH  26  27
ENDBRANCH  25  26
ENDBRANCH  24  25
ENDBRANCH  23  24
ENDBRANCH  22  23
ENDBRANCH  21  22
ENDBRANCH  20  21
ENDBRANCH  19  20
ENDBRANCH  18  19
ENDBRANCH  17  18
ENDBRANCH   1  17
TORSDOF 20
ENDMDL
MODEL 7
REMARK VINA RESULT:      -5.9      6.075      8.897
REMARK  Name = NuBBE_186
REMARK  20 active torsions:
REMARK  status: ('A' for Active; 'I' for Inactive)
REMARK    1  A    between atoms: C_2  and  O_3
REMARK    2  A    between atoms: C_2  and  C_4
REMARK    3  A    between atoms: C_4  and  C_5
REMARK    4  A    between atoms: C_5  and  C_6
REMARK    5  A    between atoms: C_6  and  C_7
REMARK    6  A    between atoms: C_7  and  C_8
REMARK    7  A    between atoms: C_8  and  C_9
REMARK    8  A    between atoms: C_9  and  C_10
REMARK    9  A    between atoms: C_10  and  C_11
REMARK   10  A    between atoms: C_11  and  C_12
REMARK   11  A    between atoms: C_12  and  C_13
REMARK   12  A    between atoms: C_13  and  C_14
REMARK   13  A    between atoms: C_14  and  C_15
REMARK   14  A    between atoms: C_15  and  C_16
REMARK   15  A    between atoms: C_16  and  C_17
REMARK   16  A    between atoms: C_17  and  C_18
REMARK   17  A    between atoms: C_18  and  C_19
REMARK   18  A    between atoms: C_19  and  C_20
REMARK   19  A    between atoms: C_20  and  C_21
REMARK   20  A    between atoms: C_21  and  C_22
REMARK                            x       y       z     vdW  Elec       q    Type
REMARK                         _______ _______ _______ _____ _____    ______ ____
ROOT
ATOM      1  C   LIG A   1      -9.612   3.131 130.465  0.00  0.00    -0.000 C 
ENDROOT
BRANCH   1   2
ATOM      2  C   LIG A   1      -9.551   1.818 131.328  0.00  0.00    -0.000 C 
BRANCH   2   3
ATOM      3  C   LIG A   1      -8.963   1.953 132.754  0.00  0.00    -0.000 C 
BRANCH   3   4
ATOM      4  C   LIG A   1      -9.204   3.295 133.510  0.00  0.00    +0.000 C 
BRANCH   4   5
ATOM      5  C   LIG A   1      -7.978   4.193 133.863  0.00  0.00    +0.000 C 
BRANCH   5   6
ATOM      6  C   LIG A   1      -8.246   5.686 133.582  0.00  0.00    +0.005 C 
BRANCH   6   7
ATOM      7  C   LIG A   1      -8.198   6.265 132.146  0.00  0.00    +0.035 C 
BRANCH   7   8
ATOM      8  C   LIG A   1      -9.445   6.592 131.346  0.00  0.00    -0.044 A 
ATOM      9  C   LIG A   1      -9.451   7.174 130.071  0.00  0.00    +0.053 A 
ATOM     10  C   LIG A   1     -10.668   7.619 129.571  0.00  0.00    +0.167 A 
ATOM     11  O   LIG A   1     -10.856   8.347 128.433  0.00  0.00    -0.453 OA
ATOM     12  C   LIG A   1     -12.233   8.760 128.599  0.00  0.00    +0.466 C 
ATOM     13  O   LIG A   1     -12.899   8.090 129.686  0.00  0.00    -0.453 OA
ATOM     14  C   LIG A   1     -11.850   7.439 130.255  0.00  0.00    +0.166 A 
ATOM     15  C   LIG A   1     -11.905   6.717 131.420  0.00  0.00    +0.050 A 
ATOM     16  C   LIG A   1     -10.693   6.277 131.954  0.00  0.00    +0.007 A 
ENDBRANCH   7   8
ENDBRANCH   6   7
ENDBRANCH   5   6
ENDBRANCH   4   5
ENDBRANCH   3   4
ENDBRANCH   2   3
ENDBRANCH   1   2
BRANCH   1  17
ATOM     17  C   LIG A   1      -8.415   3.256 129.508  0.00  0.00    -0.000 C 
BRANCH  17  18
ATOM     18  C   LIG A   1      -6.970   3.503 130.008  0.00  0.00    -0.000 C 
BRANCH  18  19
ATOM     19  C   LIG A   1      -5.831   2.470 129.844  0.00  0.00    -0.000 C 
BRANCH  19  20
ATOM     20  C   LIG A   1      -5.846   1.327 130.873  0.00  0.00    -0.000 C 
BRANCH  20  21
ATOM     21  C   LIG A   1      -6.010  -0.102 130.283  0.00  0.00    -0.000 C 
BRANCH  21  22
ATOM     22  C   LIG A   1      -7.286  -0.255 129.394  0.00  0.00    -0.000 C 
BRANCH  22  23
ATOM     23  C   LIG A   1      -7.018  -0.775 127.944  0.00  0.00    -0.000 C 
BRANCH  23  24
ATOM     24  C   LIG A   1      -5.674  -0.318 127.322  0.00  0.00    +0.000 C 
BRANCH  24  25
ATOM     25  C   LIG A   1      -5.651   0.958 126.428  0.00  0.00    +0.000 C 
BRANCH  25  26
ATOM     26  C   LIG A   1      -6.868   1.898 126.347  0.00  0.00    +0.011 C 
BRANCH  26  27
ATOM     27  C   LIG A   1      -6.632   3.324 125.858  0.00  0.00    +0.120 C 
BRANCH  27  29
ATOM     28  O   LIG A   1      -8.816   3.872 124.985  0.00  0.00    -0.251 OA
ATOM     29  C   LIG A   1      -7.868   4.142 125.775  0.00  0.00    +0.305 C 
BRANCH  29  30
ATOM     30  O   LIG A   1      -7.943   5.191 126.580  0.00  0.00    -0.481 OA
ATOM     31  H   LIG A   1      -8.835   5.627 126.576  0.00  0.00    +0.295 HD
ENDBRANCH  29  30
ENDBRANCH  27  29
ENDBRANCH  26  27
ENDBRANCH  25  26
ENDBRANCH  24  25
ENDBRANCH  23  24
ENDBRANCH  22  23
ENDBRANCH  21  22
ENDBRANCH  20  21
ENDBRANCH  19  20
ENDBRANCH  18  19
ENDBRANCH  17  18
ENDBRANCH   1  17
TORSDOF 20
ENDMDL
MODEL 8
REMARK VINA RESULT:      -5.9      5.753      8.148
REMARK  Name = NuBBE_186
REMARK  20 active torsions:
REMARK  status: ('A' for Active; 'I' for Inactive)
REMARK    1  A    between atoms: C_2  and  O_3
REMARK    2  A    between atoms: C_2  and  C_4
REMARK    3  A    between atoms: C_4  and  C_5
REMARK    4  A    between atoms: C_5  and  C_6
REMARK    5  A    between atoms: C_6  and  C_7
REMARK    6  A    between atoms: C_7  and  C_8
REMARK    7  A    between atoms: C_8  and  C_9
REMARK    8  A    between atoms: C_9  and  C_10
REMARK    9  A    between atoms: C_10  and  C_11
REMARK   10  A    between atoms: C_11  and  C_12
REMARK   11  A    between atoms: C_12  and  C_13
REMARK   12  A    between atoms: C_13  and  C_14
REMARK   13  A    between atoms: C_14  and  C_15
REMARK   14  A    between atoms: C_15  and  C_16
REMARK   15  A    between atoms: C_16  and  C_17
REMARK   16  A    between atoms: C_17  and  C_18
REMARK   17  A    between atoms: C_18  and  C_19
REMARK   18  A    between atoms: C_19  and  C_20
REMARK   19  A    between atoms: C_20  and  C_21
REMARK   20  A    between atoms: C_21  and  C_22
REMARK                            x       y       z     vdW  Elec       q    Type
REMARK                         _______ _______ _______ _____ _____    ______ ____
ROOT
ATOM      1  C   LIG A   1      -8.407   1.158 131.308  0.00  0.00    -0.000 C 
ENDROOT
BRANCH   1   2
ATOM      2  C   LIG A   1      -9.627   1.824 132.042  0.00  0.00    -0.000 C 
BRANCH   2   3
ATOM      3  C   LIG A   1      -9.292   2.835 133.166  0.00  0.00    -0.000 C 
BRANCH   3   4
ATOM      4  C   LIG A   1      -7.797   2.979 133.584  0.00  0.00    +0.000 C 
BRANCH   4   5
ATOM      5  C   LIG A   1      -6.929   4.091 132.918  0.00  0.00    +0.000 C 
BRANCH   5   6
ATOM      6  C   LIG A   1      -7.571   5.488 133.043  0.00  0.00    +0.005 C 
BRANCH   6   7
ATOM      7  C   LIG A   1      -7.787   6.397 131.807  0.00  0.00    +0.035 C 
BRANCH   7   8
ATOM      8  C   LIG A   1      -9.153   6.644 131.194  0.00  0.00    -0.044 A 
ATOM      9  C   LIG A   1      -9.379   7.304 129.978  0.00  0.00    +0.053 A 
ATOM     10  C   LIG A   1     -10.687   7.652 129.667  0.00  0.00    +0.167 A 
ATOM     11  O   LIG A   1     -11.089   8.429 128.620  0.00  0.00    -0.453 OA
ATOM     12  C   LIG A   1     -12.465   8.686 128.985  0.00  0.00    +0.466 C 
ATOM     13  O   LIG A   1     -12.918   7.882 130.091  0.00  0.00    -0.453 OA
ATOM     14  C   LIG A   1     -11.747   7.307 130.475  0.00  0.00    +0.166 A 
ATOM     15  C   LIG A   1     -11.583   6.509 131.578  0.00  0.00    +0.050 A 
ATOM     16  C   LIG A   1     -10.276   6.163 131.924  0.00  0.00    +0.007 A 
ENDBRANCH   7   8
ENDBRANCH   6   7
ENDBRANCH   5   6
ENDBRANCH   4   5
ENDBRANCH   3   4
ENDBRANCH   2   3
ENDBRANCH   1   2
BRANCH   1  17
ATOM     17  C   LIG A   1      -8.573  -0.365 131.166  0.00  0.00    -0.000 C 
BRANCH  17  18
ATOM     18  C   LIG A   1      -7.437  -1.284 130.655  0.00  0.00    -0.000 C 
BRANCH  18  19
ATOM     19  C   LIG A   1      -7.644  -2.781 130.328  0.00  0.00    -0.000 C 
BRANCH  19  20
ATOM     20  C   LIG A   1      -8.107  -3.068 128.890  0.00  0.00    -0.000 C 
BRANCH  20  21
ATOM     21  C   LIG A   1      -7.690  -2.012 127.829  0.00  0.00    -0.000 C 
BRANCH  21  22
ATOM     22  C   LIG A   1      -6.265  -2.266 127.238  0.00  0.00    -0.000 C 
BRANCH  22  23
ATOM     23  C   LIG A   1      -5.616  -1.031 126.534  0.00  0.00    -0.000 C 
BRANCH  23  24
ATOM     24  C   LIG A   1      -6.169  -0.716 125.120  0.00  0.00    +0.000 C 
BRANCH  24  25
ATOM     25  C   LIG A   1      -6.013  -1.782 123.995  0.00  0.00    +0.000 C 
BRANCH  25  26
ATOM     26  C   LIG A   1      -7.189  -2.143 123.069  0.00  0.00    +0.011 C 
BRANCH  26  27
ATOM     27  C   LIG A   1      -8.601  -2.038 123.640  0.00  0.00    +0.120 C 
BRANCH  27  29
ATOM     28  O   LIG A   1      -8.274  -4.188 124.691  0.00  0.00    -0.251 OA
ATOM     29  C   LIG A   1      -8.942  -3.119 124.599  0.00  0.00    +0.305 C 
BRANCH  29  30
ATOM     30  O   LIG A   1      -9.998  -2.918 125.372  0.00  0.00    -0.481 OA
ATOM     31  H   LIG A   1     -10.077  -1.982 125.694  0.00  0.00    +0.295 HD
ENDBRANCH  29  30
ENDBRANCH  27  29
ENDBRANCH  26  27
ENDBRANCH  25  26
ENDBRANCH  24  25
ENDBRANCH  23  24
ENDBRANCH  22  23
ENDBRANCH  21  22
ENDBRANCH  20  21
ENDBRANCH  19  20
ENDBRANCH  18  19
ENDBRANCH  17  18
ENDBRANCH   1  17
TORSDOF 20
ENDMDL
MODEL 9
REMARK VINA RESULT:      -5.9      3.562      5.509
REMARK  Name = NuBBE_186
REMARK  20 active torsions:
REMARK  status: ('A' for Active; 'I' for Inactive)
REMARK    1  A    between atoms: C_2  and  O_3
REMARK    2  A    between atoms: C_2  and  C_4
REMARK    3  A    between atoms: C_4  and  C_5
REMARK    4  A    between atoms: C_5  and  C_6
REMARK    5  A    between atoms: C_6  and  C_7
REMARK    6  A    between atoms: C_7  and  C_8
REMARK    7  A    between atoms: C_8  and  C_9
REMARK    8  A    between atoms: C_9  and  C_10
REMARK    9  A    between atoms: C_10  and  C_11
REMARK   10  A    between atoms: C_11  and  C_12
REMARK   11  A    between atoms: C_12  and  C_13
REMARK   12  A    between atoms: C_13  and  C_14
REMARK   13  A    between atoms: C_14  and  C_15
REMARK   14  A    between atoms: C_15  and  C_16
REMARK   15  A    between atoms: C_16  and  C_17
REMARK   16  A    between atoms: C_17  and  C_18
REMARK   17  A    between atoms: C_18  and  C_19
REMARK   18  A    between atoms: C_19  and  C_20
REMARK   19  A    between atoms: C_20  and  C_21
REMARK   20  A    between atoms: C_21  and  C_22
REMARK                            x       y       z     vdW  Elec       q    Type
REMARK                         _______ _______ _______ _____ _____    ______ ____
ROOT
ATOM      1  C   LIG A   1      -6.330  -2.059 126.141  0.00  0.00    -0.000 C 
ENDROOT
BRANCH   1   2
ATOM      2  C   LIG A   1      -6.105  -2.969 124.879  0.00  0.00    -0.000 C 
BRANCH   2   3
ATOM      3  C   LIG A   1      -5.672  -2.252 123.576  0.00  0.00    -0.000 C 
BRANCH   3   4
ATOM      4  C   LIG A   1      -6.788  -1.873 122.556  0.00  0.00    +0.000 C 
BRANCH   4   5
ATOM      5  C   LIG A   1      -8.262  -2.282 122.862  0.00  0.00    +0.000 C 
BRANCH   5   6
ATOM      6  C   LIG A   1      -9.216  -1.070 122.873  0.00  0.00    +0.005 C 
BRANCH   6   7
ATOM      7  C   LIG A   1      -9.174  -0.011 124.004  0.00  0.00    +0.035 C 
BRANCH   7   8
ATOM      8  C   LIG A   1      -8.259   1.198 123.967  0.00  0.00    -0.044 A 
ATOM      9  C   LIG A   1      -8.140   2.082 122.885  0.00  0.00    +0.053 A 
ATOM     10  C   LIG A   1      -7.099   3.001 122.915  0.00  0.00    +0.167 A 
ATOM     11  O   LIG A   1      -6.723   3.829 121.898  0.00  0.00    -0.453 OA
ATOM     12  C   LIG A   1      -5.445   4.298 122.387  0.00  0.00    +0.466 C 
ATOM     13  O   LIG A   1      -5.197   3.939 123.760  0.00  0.00    -0.453 OA
ATOM     14  C   LIG A   1      -6.246   3.106 123.991  0.00  0.00    +0.166 A 
ATOM     15  C   LIG A   1      -6.443   2.381 125.139  0.00  0.00    +0.050 A 
ATOM     16  C   LIG A   1      -7.469   1.436 125.127  0.00  0.00    +0.007 A 
ENDBRANCH   7   8
ENDBRANCH   6   7
ENDBRANCH   5   6
ENDBRANCH   4   5
ENDBRANCH   3   4
ENDBRANCH   2   3
ENDBRANCH   1   2
BRANCH   1  17
ATOM     17  C   LIG A   1      -7.808  -2.003 126.562  0.00  0.00    -0.000 C 
BRANCH  17  18
ATOM     18  C   LIG A   1      -8.593  -3.257 127.021  0.00  0.00    -0.000 C 
BRANCH  18  19
ATOM     19  C   LIG A   1      -8.688  -3.701 128.499  0.00  0.00    -0.000 C 
BRANCH  19  20
ATOM     20  C   LIG A   1      -7.395  -3.516 129.311  0.00  0.00    -0.000 C 
BRANCH  20  21
ATOM     21  C   LIG A   1      -7.529  -2.647 130.592  0.00  0.00    -0.000 C 
BRANCH  21  22
ATOM     22  C   LIG A   1      -8.150  -1.239 130.317  0.00  0.00    -0.000 C 
BRANCH  22  23
ATOM     23  C   LIG A   1      -7.148  -0.176 129.760  0.00  0.00    -0.000 C 
BRANCH  23  24
ATOM     24  C   LIG A   1      -7.743   0.804 128.717  0.00  0.00    +0.000 C 
BRANCH  24  25
ATOM     25  C   LIG A   1      -8.552   2.038 129.216  0.00  0.00    +0.000 C 
BRANCH  25  26
ATOM     26  C   LIG A   1      -8.327   2.627 130.620  0.00  0.00    +0.011 C 
BRANCH  26  27
ATOM     27  C   LIG A   1      -9.557   3.035 131.425  0.00  0.00    +0.120 C 
BRANCH  27  29
ATOM     28  O   LIG A   1     -10.062   5.275 130.676  0.00  0.00    -0.251 OA
ATOM     29  C   LIG A   1     -10.398   4.059 130.756  0.00  0.00    +0.305 C 
BRANCH  29  30
ATOM     30  O   LIG A   1     -11.542   3.642 130.235  0.00  0.00    -0.481 OA
ATOM     31  H   LIG A   1     -12.341   3.994 130.708  0.00  0.00    +0.295 HD
ENDBRANCH  29  30
ENDBRANCH  27  29
ENDBRANCH  26  27
ENDBRANCH  25  26
ENDBRANCH  24  25
ENDBRANCH  23  24
ENDBRANCH  22  23
ENDBRANCH  21  22
ENDBRANCH  20  21
ENDBRANCH  19  20
ENDBRANCH  18  19
ENDBRANCH  17  18
ENDBRANCH   1  17
TORSDOF 20
ENDMDL
