MODEL 1
REMARK VINA RESULT:      -9.8      0.000      0.000
REMARK  Name = NuBBE_1561
REMARK  15 active torsions:
REMARK  status: ('A' for Active; 'I' for Inactive)
REMARK    1  A    between atoms: C_1  and  C_2
REMARK    2  A    between atoms: C_6  and  C_8
REMARK    3  A    between atoms: C_8  and  C_10
REMARK    4  A    between atoms: C_8  and  C_11
REMARK    5  A    between atoms: C_11  and  C_12
REMARK    6  A    between atoms: C_12  and  C_13
REMARK    7  A    between atoms: C_13  and  C_15
REMARK    8  A    between atoms: C_13  and  C_17
REMARK    9  A    between atoms: C_15  and  C_16
REMARK   10  A    between atoms: C_17  and  C_18
REMARK   11  A    between atoms: C_17  and  C_19
REMARK   12  A    between atoms: C_24  and  C_42
REMARK   13  A    between atoms: C_27  and  O_29
REMARK   14  A    between atoms: O_29  and  C_30
REMARK   15  A    between atoms: C_30  and  C_31
REMARK                            x       y       z     vdW  Elec       q    Type
REMARK                         _______ _______ _______ _____ _____    ______ ____
ROOT
ATOM      1  C   LIG A   1      -8.544   2.039 128.484  0.00  0.00    +0.012 C 
ATOM      2  C   LIG A   1      -7.510   0.909 128.587  0.00  0.00    -0.026 C 
ATOM      3  C   LIG A   1      -8.025  -0.133 129.607  0.00  0.00    -0.001 C 
ATOM      4  C   LIG A   1      -7.333  -1.422 129.141  0.00  0.00    +0.004 C 
ATOM      5  C   LIG A   1      -7.246  -1.339 127.618  0.00  0.00    +0.004 C 
ATOM      6  C   LIG A   1      -7.528   0.122 127.212  0.00  0.00    -0.002 C 
ATOM      7  C   LIG A   1      -7.777   0.133 131.129  0.00  0.00    +0.000 C 
ATOM      8  C   LIG A   1      -6.852   1.325 131.490  0.00  0.00    +0.003 C 
ATOM      9  C   LIG A   1      -7.539   2.698 131.948  0.00  0.00    -0.008 C 
ATOM     10  C   LIG A   1      -9.075   2.659 131.920  0.00  0.00    -0.064 C 
ATOM     11  C   LIG A   1      -9.833   3.979 131.983  0.00  0.00    +0.075 C 
ATOM     12  C   LIG A   1      -9.178   5.082 131.145  0.00  0.00    +0.181 C 
ATOM     13  C   LIG A   1      -7.689   5.218 131.398  0.00  0.00    +0.046 C 
ATOM     14  C   LIG A   1      -6.978   3.905 131.137  0.00  0.00    +0.015 C 
ATOM     15  C   LIG A   1      -9.753   1.497 131.899  0.00  0.00    -0.027 C 
ATOM     16  C   LIG A   1      -9.078   0.167 131.936  0.00  0.00    +0.031 C 
ATOM     17  C   LIG A   1      -7.167   2.934 133.451  0.00  0.00    +0.016 C 
ATOM     18  C   LIG A   1      -5.714   1.402 130.462  0.00  0.00    +0.005 C 
ATOM     19  C   LIG A   1      -6.097   1.402 128.974  0.00  0.00    +0.007 C 
ENDROOT
BRANCH   6  20
ATOM     20  C   LIG A   1      -6.628   0.591 126.007  0.00  0.00    -0.010 C 
ATOM     21  C   LIG A   1      -7.380   1.359 124.918  0.00  0.00    +0.008 C 
BRANCH  20  22
ATOM     22  C   LIG A   1      -5.884  -0.626 125.355  0.00  0.00    +0.004 C 
BRANCH  22  23
ATOM     23  C   LIG A   1      -6.388  -1.002 123.937  0.00  0.00    +0.004 C 
BRANCH  23  24
ATOM     24  C   LIG A   1      -6.472  -2.533 123.600  0.00  0.00    -0.009 C 
BRANCH  24  25
ATOM     25  C   LIG A   1      -7.923  -3.089 123.762  0.00  0.00    -0.014 C 
ATOM     26  C   LIG A   1      -8.214  -3.796 125.089  0.00  0.00    +0.007 C 
ATOM     27  C   LIG A   1      -8.990  -2.018 123.515  0.00  0.00    +0.007 C 
ENDBRANCH  24  25
BRANCH  24  28
ATOM     28  C   LIG A   1      -5.359  -3.261 124.421  0.00  0.00    +0.000 C 
ATOM     29  C   LIG A   1      -4.521  -4.302 123.674  0.00  0.00    +0.004 C 
ENDBRANCH  24  28
ENDBRANCH  23  24
ENDBRANCH  22  23
ENDBRANCH  20  22
ENDBRANCH   6  20
BRANCH  12  30
ATOM     30  O   LIG A   1      -9.832   6.359 131.229  0.00  0.00    -0.458 OA
BRANCH  30  31
ATOM     31  C   LIG A   1     -11.175   6.445 130.993  0.00  0.00    +0.340 C 
ATOM     32  O   LIG A   1     -12.074   6.298 131.810  0.00  0.00    -0.245 OA
BRANCH  31  33
ATOM     33  C   LIG A   1     -11.404   6.842 129.571  0.00  0.00    +0.059 A 
ATOM     34  C   LIG A   1     -12.667   6.590 129.026  0.00  0.00    +0.015 A 
ATOM     35  C   LIG A   1     -12.928   6.941 127.681  0.00  0.00    +0.001 A 
ATOM     36  C   LIG A   1     -11.942   7.568 126.931  0.00  0.00    +0.000 A 
ATOM     37  C   LIG A   1     -10.702   7.861 127.492  0.00  0.00    +0.001 A 
ATOM     38  C   LIG A   1     -10.440   7.509 128.816  0.00  0.00    +0.015 A 
ENDBRANCH  31  33
ENDBRANCH  30  31
ENDBRANCH  12  30
TORSDOF 9
ENDMDL
MODEL 2
REMARK VINA RESULT:      -9.6      1.046      1.712
REMARK  Name = NuBBE_1561
REMARK  15 active torsions:
REMARK  status: ('A' for Active; 'I' for Inactive)
REMARK    1  A    between atoms: C_1  and  C_2
REMARK    2  A    between atoms: C_6  and  C_8
REMARK    3  A    between atoms: C_8  and  C_10
REMARK    4  A    between atoms: C_8  and  C_11
REMARK    5  A    between atoms: C_11  and  C_12
REMARK    6  A    between atoms: C_12  and  C_13
REMARK    7  A    between atoms: C_13  and  C_15
REMARK    8  A    between atoms: C_13  and  C_17
REMARK    9  A    between atoms: C_15  and  C_16
REMARK   10  A    between atoms: C_17  and  C_18
REMARK   11  A    between atoms: C_17  and  C_19
REMARK   12  A    between atoms: C_24  and  C_42
REMARK   13  A    between atoms: C_27  and  O_29
REMARK   14  A    between atoms: O_29  and  C_30
REMARK   15  A    between atoms: C_30  and  C_31
REMARK                            x       y       z     vdW  Elec       q    Type
REMARK                         _______ _______ _______ _____ _____    ______ ____
ROOT
ATOM      1  C   LIG A   1      -8.978   2.281 129.386  0.00  0.00    +0.012 C 
ATOM      2  C   LIG A   1      -7.724   1.411 129.213  0.00  0.00    -0.026 C 
ATOM      3  C   LIG A   1      -7.489   0.625 130.523  0.00  0.00    -0.001 C 
ATOM      4  C   LIG A   1      -6.719  -0.609 130.035  0.00  0.00    +0.004 C 
ATOM      5  C   LIG A   1      -7.269  -0.942 128.648  0.00  0.00    +0.004 C 
ATOM      6  C   LIG A   1      -8.073   0.281 128.159  0.00  0.00    -0.002 C 
ATOM      7  C   LIG A   1      -6.740   1.342 131.695  0.00  0.00    +0.000 C 
ATOM      8  C   LIG A   1      -6.108   2.724 131.381  0.00  0.00    +0.003 C 
ATOM      9  C   LIG A   1      -6.900   4.037 131.844  0.00  0.00    -0.008 C 
ATOM     10  C   LIG A   1      -8.249   3.738 132.520  0.00  0.00    -0.064 C 
ATOM     11  C   LIG A   1      -9.245   4.878 132.679  0.00  0.00    +0.075 C 
ATOM     12  C   LIG A   1      -9.302   5.797 131.454  0.00  0.00    +0.181 C 
ATOM     13  C   LIG A   1      -7.932   6.242 130.979  0.00  0.00    +0.046 C 
ATOM     14  C   LIG A   1      -7.057   5.045 130.666  0.00  0.00    +0.015 C 
ATOM     15  C   LIG A   1      -8.537   2.521 133.015  0.00  0.00    -0.027 C 
ATOM     16  C   LIG A   1      -7.571   1.385 132.981  0.00  0.00    +0.031 C 
ATOM     17  C   LIG A   1      -6.042   4.741 132.949  0.00  0.00    +0.016 C 
ATOM     18  C   LIG A   1      -5.539   2.698 129.955  0.00  0.00    +0.005 C 
ATOM     19  C   LIG A   1      -6.465   2.220 128.826  0.00  0.00    +0.007 C 
ENDROOT
BRANCH   6  20
ATOM     20  C   LIG A   1      -7.889   0.537 126.616  0.00  0.00    -0.010 C 
ATOM     21  C   LIG A   1      -9.130   0.239 125.773  0.00  0.00    +0.008 C 
BRANCH  20  22
ATOM     22  C   LIG A   1      -6.677  -0.284 126.051  0.00  0.00    +0.004 C 
BRANCH  22  23
ATOM     23  C   LIG A   1      -7.022  -1.183 124.834  0.00  0.00    +0.004 C 
BRANCH  23  24
ATOM     24  C   LIG A   1      -6.441  -2.640 124.845  0.00  0.00    -0.009 C 
BRANCH  24  25
ATOM     25  C   LIG A   1      -5.273  -2.812 123.822  0.00  0.00    -0.014 C 
ATOM     26  C   LIG A   1      -4.706  -4.230 123.700  0.00  0.00    +0.007 C 
ATOM     27  C   LIG A   1      -5.636  -2.292 122.428  0.00  0.00    +0.007 C 
ENDBRANCH  24  25
BRANCH  24  28
ATOM     28  C   LIG A   1      -7.640  -3.631 124.694  0.00  0.00    +0.000 C 
ATOM     29  C   LIG A   1      -8.857  -3.127 123.914  0.00  0.00    +0.004 C 
ENDBRANCH  24  28
ENDBRANCH  23  24
ENDBRANCH  22  23
ENDBRANCH  20  22
ENDBRANCH   6  20
BRANCH  12  30
ATOM     30  O   LIG A   1     -10.188   6.920 131.593  0.00  0.00    -0.458 OA
BRANCH  30  31
ATOM     31  C   LIG A   1     -11.479   6.818 131.158  0.00  0.00    +0.340 C 
ATOM     32  O   LIG A   1     -12.463   6.559 131.836  0.00  0.00    -0.245 OA
BRANCH  31  33
ATOM     33  C   LIG A   1     -11.540   7.161 129.705  0.00  0.00    +0.059 A 
ATOM     34  C   LIG A   1     -12.644   6.703 128.979  0.00  0.00    +0.015 A 
ATOM     35  C   LIG A   1     -12.742   6.997 127.599  0.00  0.00    +0.001 A 
ATOM     36  C   LIG A   1     -11.762   7.770 126.991  0.00  0.00    +0.000 A 
ATOM     37  C   LIG A   1     -10.689   8.264 127.727  0.00  0.00    +0.001 A 
ATOM     38  C   LIG A   1     -10.588   7.970 129.087  0.00  0.00    +0.015 A 
ENDBRANCH  31  33
ENDBRANCH  30  31
ENDBRANCH  12  30
TORSDOF 9
ENDMDL
MODEL 3
REMARK VINA RESULT:      -9.4      4.110      7.893
REMARK  Name = NuBBE_1561
REMARK  15 active torsions:
REMARK  status: ('A' for Active; 'I' for Inactive)
REMARK    1  A    between atoms: C_1  and  C_2
REMARK    2  A    between atoms: C_6  and  C_8
REMARK    3  A    between atoms: C_8  and  C_10
REMARK    4  A    between atoms: C_8  and  C_11
REMARK    5  A    between atoms: C_11  and  C_12
REMARK    6  A    between atoms: C_12  and  C_13
REMARK    7  A    between atoms: C_13  and  C_15
REMARK    8  A    between atoms: C_13  and  C_17
REMARK    9  A    between atoms: C_15  and  C_16
REMARK   10  A    between atoms: C_17  and  C_18
REMARK   11  A    between atoms: C_17  and  C_19
REMARK   12  A    between atoms: C_24  and  C_42
REMARK   13  A    between atoms: C_27  and  O_29
REMARK   14  A    between atoms: O_29  and  C_30
REMARK   15  A    between atoms: C_30  and  C_31
REMARK                            x       y       z     vdW  Elec       q    Type
REMARK                         _______ _______ _______ _____ _____    ______ ____
ROOT
ATOM      1  C   LIG A   1      -5.862   0.515 127.090  0.00  0.00    +0.012 C 
ATOM      2  C   LIG A   1      -5.842  -0.573 128.173  0.00  0.00    -0.026 C 
ATOM      3  C   LIG A   1      -5.133  -1.821 127.600  0.00  0.00    -0.001 C 
ATOM      4  C   LIG A   1      -4.593  -2.504 128.864  0.00  0.00    +0.004 C 
ATOM      5  C   LIG A   1      -4.215  -1.385 129.833  0.00  0.00    +0.004 C 
ATOM      6  C   LIG A   1      -4.863  -0.083 129.319  0.00  0.00    -0.002 C 
ATOM      7  C   LIG A   1      -5.968  -2.813 126.724  0.00  0.00    +0.000 C 
ATOM      8  C   LIG A   1      -7.500  -2.574 126.664  0.00  0.00    +0.003 C 
ATOM      9  C   LIG A   1      -8.096  -1.832 125.376  0.00  0.00    -0.008 C 
ATOM     10  C   LIG A   1      -7.025  -1.401 124.361  0.00  0.00    -0.064 C 
ATOM     11  C   LIG A   1      -7.411  -0.390 123.289  0.00  0.00    +0.075 C 
ATOM     12  C   LIG A   1      -8.314   0.728 123.821  0.00  0.00    +0.181 C 
ATOM     13  C   LIG A   1      -9.491   0.211 124.627  0.00  0.00    +0.046 C 
ATOM     14  C   LIG A   1      -9.014  -0.641 125.786  0.00  0.00    +0.015 C 
ATOM     15  C   LIG A   1      -5.790  -1.934 124.367  0.00  0.00    -0.027 C 
ATOM     16  C   LIG A   1      -5.374  -3.000 125.324  0.00  0.00    +0.031 C 
ATOM     17  C   LIG A   1      -8.989  -2.864 124.607  0.00  0.00    +0.016 C 
ATOM     18  C   LIG A   1      -7.986  -2.112 128.045  0.00  0.00    +0.005 C 
ATOM     19  C   LIG A   1      -7.248  -0.936 128.704  0.00  0.00    +0.007 C 
ENDROOT
BRANCH   6  20
ATOM     20  C   LIG A   1      -5.392   0.824 130.494  0.00  0.00    -0.010 C 
ATOM     21  C   LIG A   1      -4.794   2.231 130.523  0.00  0.00    +0.008 C 
BRANCH  20  22
ATOM     22  C   LIG A   1      -5.155   0.137 131.884  0.00  0.00    +0.004 C 
BRANCH  22  23
ATOM     23  C   LIG A   1      -6.375   0.187 132.841  0.00  0.00    +0.004 C 
BRANCH  23  24
ATOM     24  C   LIG A   1      -7.247  -1.113 132.944  0.00  0.00    -0.009 C 
BRANCH  24  25
ATOM     25  C   LIG A   1      -6.438  -2.392 132.557  0.00  0.00    -0.014 C 
ATOM     26  C   LIG A   1      -6.055  -3.309 133.723  0.00  0.00    +0.007 C 
ATOM     27  C   LIG A   1      -7.137  -3.219 131.473  0.00  0.00    +0.007 C 
ENDBRANCH  24  25
BRANCH  24  28
ATOM     28  C   LIG A   1      -8.568  -0.864 132.146  0.00  0.00    +0.000 C 
ATOM     29  C   LIG A   1      -8.849   0.576 131.710  0.00  0.00    +0.004 C 
ENDBRANCH  24  28
ENDBRANCH  23  24
ENDBRANCH  22  23
ENDBRANCH  20  22
ENDBRANCH   6  20
BRANCH  12  30
ATOM     30  O   LIG A   1      -8.748   1.667 122.823  0.00  0.00    -0.458 OA
BRANCH  30  31
ATOM     31  C   LIG A   1      -8.386   2.980 122.932  0.00  0.00    +0.340 C 
ATOM     32  O   LIG A   1      -8.365   3.654 123.952  0.00  0.00    -0.245 OA
BRANCH  31  33
ATOM     33  C   LIG A   1      -7.920   3.476 121.601  0.00  0.00    +0.059 A 
ATOM     34  C   LIG A   1      -8.894   3.749 120.636  0.00  0.00    +0.015 A 
ATOM     35  C   LIG A   1      -8.500   4.213 119.360  0.00  0.00    +0.001 A 
ATOM     36  C   LIG A   1      -7.156   4.432 119.093  0.00  0.00    +0.000 A 
ATOM     37  C   LIG A   1      -6.192   4.205 120.073  0.00  0.00    +0.001 A 
ATOM     38  C   LIG A   1      -6.578   3.741 121.330  0.00  0.00    +0.015 A 
ENDBRANCH  31  33
ENDBRANCH  30  31
ENDBRANCH  12  30
TORSDOF 9
ENDMDL
MODEL 4
REMARK VINA RESULT:      -9.3      3.508      8.641
REMARK  Name = NuBBE_1561
REMARK  15 active torsions:
REMARK  status: ('A' for Active; 'I' for Inactive)
REMARK    1  A    between atoms: C_1  and  C_2
REMARK    2  A    between atoms: C_6  and  C_8
REMARK    3  A    between atoms: C_8  and  C_10
REMARK    4  A    between atoms: C_8  and  C_11
REMARK    5  A    between atoms: C_11  and  C_12
REMARK    6  A    between atoms: C_12  and  C_13
REMARK    7  A    between atoms: C_13  and  C_15
REMARK    8  A    between atoms: C_13  and  C_17
REMARK    9  A    between atoms: C_15  and  C_16
REMARK   10  A    between atoms: C_17  and  C_18
REMARK   11  A    between atoms: C_17  and  C_19
REMARK   12  A    between atoms: C_24  and  C_42
REMARK   13  A    between atoms: C_27  and  O_29
REMARK   14  A    between atoms: O_29  and  C_30
REMARK   15  A    between atoms: C_30  and  C_31
REMARK                            x       y       z     vdW  Elec       q    Type
REMARK                         _______ _______ _______ _____ _____    ______ ____
ROOT
ATOM      1  C   LIG A   1      -7.509   0.506 130.191  0.00  0.00    +0.012 C 
ATOM      2  C   LIG A   1      -7.371   0.417 131.717  0.00  0.00    -0.026 C 
ATOM      3  C   LIG A   1      -5.878   0.210 132.062  0.00  0.00    -0.001 C 
ATOM      4  C   LIG A   1      -5.782   0.793 133.478  0.00  0.00    +0.004 C 
ATOM      5  C   LIG A   1      -6.759   1.966 133.531  0.00  0.00    +0.004 C 
ATOM      6  C   LIG A   1      -7.693   1.852 132.307  0.00  0.00    -0.002 C 
ATOM      7  C   LIG A   1      -5.297  -1.242 131.998  0.00  0.00    +0.000 C 
ATOM      8  C   LIG A   1      -6.313  -2.395 131.791  0.00  0.00    +0.003 C 
ATOM      9  C   LIG A   1      -6.467  -3.007 130.318  0.00  0.00    -0.008 C 
ATOM     10  C   LIG A   1      -5.589  -2.310 129.266  0.00  0.00    -0.064 C 
ATOM     11  C   LIG A   1      -5.899  -2.548 127.794  0.00  0.00    +0.075 C 
ATOM     12  C   LIG A   1      -7.402  -2.573 127.498  0.00  0.00    +0.181 C 
ATOM     13  C   LIG A   1      -8.181  -3.471 128.441  0.00  0.00    +0.046 C 
ATOM     14  C   LIG A   1      -7.962  -3.054 129.881  0.00  0.00    +0.015 C 
ATOM     15  C   LIG A   1      -4.534  -1.553 129.615  0.00  0.00    -0.027 C 
ATOM     16  C   LIG A   1      -4.113  -1.356 131.033  0.00  0.00    +0.031 C 
ATOM     17  C   LIG A   1      -5.949  -4.484 130.363  0.00  0.00    +0.016 C 
ATOM     18  C   LIG A   1      -7.597  -2.074 132.570  0.00  0.00    +0.005 C 
ATOM     19  C   LIG A   1      -8.239  -0.696 132.348  0.00  0.00    +0.007 C 
ENDROOT
BRANCH   6  20
ATOM     20  C   LIG A   1      -9.174   2.268 132.646  0.00  0.00    -0.010 C 
ATOM     21  C   LIG A   1     -10.002   2.697 131.434  0.00  0.00    +0.008 C 
BRANCH  20  22
ATOM     22  C   LIG A   1      -9.204   3.411 133.719  0.00  0.00    +0.004 C 
BRANCH  22  23
ATOM     23  C   LIG A   1      -9.448   4.829 133.140  0.00  0.00    +0.004 C 
BRANCH  23  24
ATOM     24  C   LIG A   1      -8.301   5.881 133.340  0.00  0.00    -0.009 C 
BRANCH  24  25
ATOM     25  C   LIG A   1      -7.598   6.246 131.994  0.00  0.00    -0.014 C 
ATOM     26  C   LIG A   1      -6.728   5.143 131.385  0.00  0.00    +0.007 C 
ATOM     27  C   LIG A   1      -8.586   6.751 130.938  0.00  0.00    +0.007 C 
ENDBRANCH  24  25
BRANCH  24  28
ATOM     28  C   LIG A   1      -7.371   5.357 134.483  0.00  0.00    +0.000 C 
ATOM     29  C   LIG A   1      -7.625   5.913 135.887  0.00  0.00    +0.004 C 
ENDBRANCH  24  28
ENDBRANCH  23  24
ENDBRANCH  22  23
ENDBRANCH  20  22
ENDBRANCH   6  20
BRANCH  12  30
ATOM     30  O   LIG A   1      -7.734  -2.856 126.128  0.00  0.00    -0.458 OA
BRANCH  30  31
ATOM     31  C   LIG A   1      -8.819  -2.252 125.559  0.00  0.00    +0.340 C 
ATOM     32  O   LIG A   1      -9.924  -2.744 125.381  0.00  0.00    -0.245 OA
BRANCH  31  33
ATOM     33  C   LIG A   1      -8.486  -0.828 125.248  0.00  0.00    +0.059 A 
ATOM     34  C   LIG A   1      -7.462  -0.591 124.326  0.00  0.00    +0.015 A 
ATOM     35  C   LIG A   1      -7.106   0.740 124.007  0.00  0.00    +0.001 A 
ATOM     36  C   LIG A   1      -7.805   1.794 124.580  0.00  0.00    +0.000 A 
ATOM     37  C   LIG A   1      -8.856   1.553 125.460  0.00  0.00    +0.001 A 
ATOM     38  C   LIG A   1      -9.204   0.241 125.782  0.00  0.00    +0.015 A 
ENDBRANCH  31  33
ENDBRANCH  30  31
ENDBRANCH  12  30
TORSDOF 9
ENDMDL
MODEL 5
REMARK VINA RESULT:      -9.3      1.333      2.097
REMARK  Name = NuBBE_1561
REMARK  15 active torsions:
REMARK  status: ('A' for Active; 'I' for Inactive)
REMARK    1  A    between atoms: C_1  and  C_2
REMARK    2  A    between atoms: C_6  and  C_8
REMARK    3  A    between atoms: C_8  and  C_10
REMARK    4  A    between atoms: C_8  and  C_11
REMARK    5  A    between atoms: C_11  and  C_12
REMARK    6  A    between atoms: C_12  and  C_13
REMARK    7  A    between atoms: C_13  and  C_15
REMARK    8  A    between atoms: C_13  and  C_17
REMARK    9  A    between atoms: C_15  and  C_16
REMARK   10  A    between atoms: C_17  and  C_18
REMARK   11  A    between atoms: C_17  and  C_19
REMARK   12  A    between atoms: C_24  and  C_42
REMARK   13  A    between atoms: C_27  and  O_29
REMARK   14  A    between atoms: O_29  and  C_30
REMARK   15  A    between atoms: C_30  and  C_31
REMARK                            x       y       z     vdW  Elec       q    Type
REMARK                         _______ _______ _______ _____ _____    ______ ____
ROOT
ATOM      1  C   LIG A   1      -7.590   0.902 128.330  0.00  0.00    +0.012 C 
ATOM      2  C   LIG A   1      -6.849  -0.323 128.886  0.00  0.00    -0.026 C 
ATOM      3  C   LIG A   1      -7.749  -1.001 129.944  0.00  0.00    -0.001 C 
ATOM      4  C   LIG A   1      -7.261  -2.456 129.909  0.00  0.00    +0.004 C 
ATOM      5  C   LIG A   1      -6.874  -2.748 128.460  0.00  0.00    +0.004 C 
ATOM      6  C   LIG A   1      -6.769  -1.397 127.723  0.00  0.00    -0.002 C 
ATOM      7  C   LIG A   1      -7.742  -0.429 131.401  0.00  0.00    +0.000 C 
ATOM      8  C   LIG A   1      -6.677   0.652 131.723  0.00  0.00    +0.003 C 
ATOM      9  C   LIG A   1      -7.141   2.185 131.735  0.00  0.00    -0.008 C 
ATOM     10  C   LIG A   1      -8.620   2.386 131.365  0.00  0.00    -0.064 C 
ATOM     11  C   LIG A   1      -9.088   3.787 130.995  0.00  0.00    +0.075 C 
ATOM     12  C   LIG A   1      -8.075   4.544 130.129  0.00  0.00    +0.181 C 
ATOM     13  C   LIG A   1      -6.664   4.497 130.684  0.00  0.00    +0.046 C 
ATOM     14  C   LIG A   1      -6.202   3.064 130.854  0.00  0.00    +0.015 C 
ATOM     15  C   LIG A   1      -9.505   1.375 131.418  0.00  0.00    -0.027 C 
ATOM     16  C   LIG A   1      -9.137   0.000 131.867  0.00  0.00    +0.031 C 
ATOM     17  C   LIG A   1      -7.018   2.705 133.207  0.00  0.00    +0.016 C 
ATOM     18  C   LIG A   1      -5.375   0.304 130.988  0.00  0.00    +0.005 C 
ATOM     19  C   LIG A   1      -5.463   0.017 129.481  0.00  0.00    +0.007 C 
ENDROOT
BRANCH   6  20
ATOM     20  C   LIG A   1      -5.582  -1.372 126.687  0.00  0.00    -0.010 C 
ATOM     21  C   LIG A   1      -5.289   0.007 126.095  0.00  0.00    +0.008 C 
BRANCH  20  22
ATOM     22  C   LIG A   1      -5.835  -2.389 125.520  0.00  0.00    +0.004 C 
BRANCH  22  23
ATOM     23  C   LIG A   1      -6.029  -1.732 124.128  0.00  0.00    +0.004 C 
BRANCH  23  24
ATOM     24  C   LIG A   1      -7.476  -1.774 123.522  0.00  0.00    -0.009 C 
BRANCH  24  25
ATOM     25  C   LIG A   1      -8.198  -0.394 123.636  0.00  0.00    -0.014 C 
ATOM     26  C   LIG A   1      -8.884  -0.118 124.977  0.00  0.00    +0.007 C 
ATOM     27  C   LIG A   1      -7.276   0.779 123.289  0.00  0.00    +0.007 C 
ENDBRANCH  24  25
BRANCH  24  28
ATOM     28  C   LIG A   1      -8.219  -2.996 124.153  0.00  0.00    +0.000 C 
ATOM     29  C   LIG A   1      -9.539  -3.412 123.499  0.00  0.00    +0.004 C 
ENDBRANCH  24  28
ENDBRANCH  23  24
ENDBRANCH  22  23
ENDBRANCH  20  22
ENDBRANCH   6  20
BRANCH  12  30
ATOM     30  O   LIG A   1      -8.457   5.893 129.811  0.00  0.00    -0.458 OA
BRANCH  30  31
ATOM     31  C   LIG A   1      -9.121   6.643 130.740  0.00  0.00    +0.340 C 
ATOM     32  O   LIG A   1      -8.764   6.873 131.887  0.00  0.00    -0.245 OA
BRANCH  31  33
ATOM     33  C   LIG A   1     -10.343   7.235 130.117  0.00  0.00    +0.059 A 
ATOM     34  C   LIG A   1     -10.179   7.951 128.927  0.00  0.00    +0.015 A 
ATOM     35  C   LIG A   1     -11.306   8.537 128.305  0.00  0.00    +0.001 A 
ATOM     36  C   LIG A   1     -12.566   8.359 128.860  0.00  0.00    +0.000 A 
ATOM     37  C   LIG A   1     -12.732   7.605 130.019  0.00  0.00    +0.001 A 
ATOM     38  C   LIG A   1     -11.620   7.033 130.637  0.00  0.00    +0.015 A 
ENDBRANCH  31  33
ENDBRANCH  30  31
ENDBRANCH  12  30
TORSDOF 9
ENDMDL
MODEL 6
REMARK VINA RESULT:      -9.3      1.609      2.555
REMARK  Name = NuBBE_1561
REMARK  15 active torsions:
REMARK  status: ('A' for Active; 'I' for Inactive)
REMARK    1  A    between atoms: C_1  and  C_2
REMARK    2  A    between atoms: C_6  and  C_8
REMARK    3  A    between atoms: C_8  and  C_10
REMARK    4  A    between atoms: C_8  and  C_11
REMARK    5  A    between atoms: C_11  and  C_12
REMARK    6  A    between atoms: C_12  and  C_13
REMARK    7  A    between atoms: C_13  and  C_15
REMARK    8  A    between atoms: C_13  and  C_17
REMARK    9  A    between atoms: C_15  and  C_16
REMARK   10  A    between atoms: C_17  and  C_18
REMARK   11  A    between atoms: C_17  and  C_19
REMARK   12  A    between atoms: C_24  and  C_42
REMARK   13  A    between atoms: C_27  and  O_29
REMARK   14  A    between atoms: O_29  and  C_30
REMARK   15  A    between atoms: C_30  and  C_31
REMARK                            x       y       z     vdW  Elec       q    Type
REMARK                         _______ _______ _______ _____ _____    ______ ____
ROOT
ATOM      1  C   LIG A   1      -7.555   0.486 129.781  0.00  0.00    +0.012 C 
ATOM      2  C   LIG A   1      -6.198   0.015 129.239  0.00  0.00    -0.026 C 
ATOM      3  C   LIG A   1      -5.218  -0.125 130.427  0.00  0.00    -0.001 C 
ATOM      4  C   LIG A   1      -4.223  -1.175 129.913  0.00  0.00    +0.004 C 
ATOM      5  C   LIG A   1      -5.025  -2.141 129.042  0.00  0.00    +0.004 C 
ATOM      6  C   LIG A   1      -6.381  -1.475 128.731  0.00  0.00    -0.002 C 
ATOM      7  C   LIG A   1      -4.484   1.159 130.939  0.00  0.00    +0.000 C 
ATOM      8  C   LIG A   1      -4.641   2.444 130.083  0.00  0.00    +0.003 C 
ATOM      9  C   LIG A   1      -5.696   3.547 130.569  0.00  0.00    -0.008 C 
ATOM     10  C   LIG A   1      -6.469   3.146 131.836  0.00  0.00    -0.064 C 
ATOM     11  C   LIG A   1      -7.728   3.925 132.191  0.00  0.00    +0.075 C 
ATOM     12  C   LIG A   1      -8.584   4.265 130.966  0.00  0.00    +0.181 C 
ATOM     13  C   LIG A   1      -7.785   4.876 129.831  0.00  0.00    +0.046 C 
ATOM     14  C   LIG A   1      -6.657   3.955 129.412  0.00  0.00    +0.015 C 
ATOM     15  C   LIG A   1      -6.030   2.173 132.654  0.00  0.00    -0.027 C 
ATOM     16  C   LIG A   1      -4.754   1.435 132.421  0.00  0.00    +0.031 C 
ATOM     17  C   LIG A   1      -4.889   4.825 130.976  0.00  0.00    +0.016 C 
ATOM     18  C   LIG A   1      -4.645   2.055 128.598  0.00  0.00    +0.005 C 
ATOM     19  C   LIG A   1      -5.613   0.947 128.153  0.00  0.00    +0.007 C 
ENDROOT
BRANCH   6  20
ATOM     20  C   LIG A   1      -6.868  -1.769 127.262  0.00  0.00    -0.010 C 
ATOM     21  C   LIG A   1      -8.057  -2.726 127.170  0.00  0.00    +0.008 C 
BRANCH  20  22
ATOM     22  C   LIG A   1      -5.694  -2.324 126.383  0.00  0.00    +0.004 C 
BRANCH  22  23
ATOM     23  C   LIG A   1      -5.413  -1.504 125.096  0.00  0.00    +0.004 C 
BRANCH  23  24
ATOM     24  C   LIG A   1      -5.633  -2.240 123.727  0.00  0.00    -0.009 C 
BRANCH  24  25
ATOM     25  C   LIG A   1      -6.923  -1.747 122.997  0.00  0.00    -0.014 C 
ATOM     26  C   LIG A   1      -8.182  -2.583 123.248  0.00  0.00    +0.007 C 
ATOM     27  C   LIG A   1      -7.229  -0.274 123.282  0.00  0.00    +0.007 C 
ENDBRANCH  24  25
BRANCH  24  28
ATOM     28  C   LIG A   1      -5.536  -3.777 123.995  0.00  0.00    +0.000 C 
ATOM     29  C   LIG A   1      -4.229  -4.466 123.596  0.00  0.00    +0.004 C 
ENDBRANCH  24  28
ENDBRANCH  23  24
ENDBRANCH  22  23
ENDBRANCH  20  22
ENDBRANCH   6  20
BRANCH  12  30
ATOM     30  O   LIG A   1      -9.751   5.053 131.256  0.00  0.00    -0.458 OA
BRANCH  30  31
ATOM     31  C   LIG A   1     -10.858   4.934 130.466  0.00  0.00    +0.340 C 
ATOM     32  O   LIG A   1     -11.383   3.895 130.090  0.00  0.00    -0.245 OA
BRANCH  31  33
ATOM     33  C   LIG A   1     -11.414   6.292 130.183  0.00  0.00    +0.059 A 
ATOM     34  C   LIG A   1     -10.968   6.945 129.031  0.00  0.00    +0.015 A 
ATOM     35  C   LIG A   1     -11.459   8.235 128.726  0.00  0.00    +0.001 A 
ATOM     36  C   LIG A   1     -12.409   8.821 129.552  0.00  0.00    +0.000 A 
ATOM     37  C   LIG A   1     -12.887   8.148 130.673  0.00  0.00    +0.001 A 
ATOM     38  C   LIG A   1     -12.398   6.878 130.979  0.00  0.00    +0.015 A 
ENDBRANCH  31  33
ENDBRANCH  30  31
ENDBRANCH  12  30
TORSDOF 9
ENDMDL
MODEL 7
REMARK VINA RESULT:      -9.1      3.566      9.636
REMARK  Name = NuBBE_1561
REMARK  15 active torsions:
REMARK  status: ('A' for Active; 'I' for Inactive)
REMARK    1  A    between atoms: C_1  and  C_2
REMARK    2  A    between atoms: C_6  and  C_8
REMARK    3  A    between atoms: C_8  and  C_10
REMARK    4  A    between atoms: C_8  and  C_11
REMARK    5  A    between atoms: C_11  and  C_12
REMARK    6  A    between atoms: C_12  and  C_13
REMARK    7  A    between atoms: C_13  and  C_15
REMARK    8  A    between atoms: C_13  and  C_17
REMARK    9  A    between atoms: C_15  and  C_16
REMARK   10  A    between atoms: C_17  and  C_18
REMARK   11  A    between atoms: C_17  and  C_19
REMARK   12  A    between atoms: C_24  and  C_42
REMARK   13  A    between atoms: C_27  and  O_29
REMARK   14  A    between atoms: O_29  and  C_30
REMARK   15  A    between atoms: C_30  and  C_31
REMARK                            x       y       z     vdW  Elec       q    Type
REMARK                         _______ _______ _______ _____ _____    ______ ____
ROOT
ATOM      1  C   LIG A   1      -7.712   0.553 130.053  0.00  0.00    +0.012 C 
ATOM      2  C   LIG A   1      -7.484   0.521 131.572  0.00  0.00    -0.026 C 
ATOM      3  C   LIG A   1      -5.969   0.368 131.836  0.00  0.00    -0.001 C 
ATOM      4  C   LIG A   1      -5.810   1.003 133.225  0.00  0.00    +0.004 C 
ATOM      5  C   LIG A   1      -6.818   2.149 133.295  0.00  0.00    +0.004 C 
ATOM      6  C   LIG A   1      -7.815   1.966 132.132  0.00  0.00    -0.002 C 
ATOM      7  C   LIG A   1      -5.348  -1.067 131.787  0.00  0.00    +0.000 C 
ATOM      8  C   LIG A   1      -6.339  -2.256 131.676  0.00  0.00    +0.003 C 
ATOM      9  C   LIG A   1      -6.557  -2.922 130.236  0.00  0.00    -0.008 C 
ATOM     10  C   LIG A   1      -5.762  -2.237 129.113  0.00  0.00    -0.064 C 
ATOM     11  C   LIG A   1      -6.148  -2.535 127.670  0.00  0.00    +0.075 C 
ATOM     12  C   LIG A   1      -7.664  -2.613 127.462  0.00  0.00    +0.181 C 
ATOM     13  C   LIG A   1      -8.360  -3.499 128.477  0.00  0.00    +0.046 C 
ATOM     14  C   LIG A   1      -8.073  -3.026 129.889  0.00  0.00    +0.015 C 
ATOM     15  C   LIG A   1      -4.713  -1.438 129.375  0.00  0.00    -0.027 C 
ATOM     16  C   LIG A   1      -4.218  -1.181 130.759  0.00  0.00    +0.031 C 
ATOM     17  C   LIG A   1      -5.993  -4.381 130.300  0.00  0.00    +0.016 C 
ATOM     18  C   LIG A   1      -7.585  -1.944 132.517  0.00  0.00    +0.005 C 
ATOM     19  C   LIG A   1      -8.281  -0.594 132.288  0.00  0.00    +0.007 C 
ENDROOT
BRANCH   6  20
ATOM     20  C   LIG A   1      -9.287   2.351 132.542  0.00  0.00    -0.010 C 
ATOM     21  C   LIG A   1     -10.148   2.872 131.389  0.00  0.00    +0.008 C 
BRANCH  20  22
ATOM     22  C   LIG A   1      -9.288   3.407 133.701  0.00  0.00    +0.004 C 
BRANCH  22  23
ATOM     23  C   LIG A   1      -9.339   4.883 133.225  0.00  0.00    +0.004 C 
BRANCH  23  24
ATOM     24  C   LIG A   1      -8.062   5.755 133.491  0.00  0.00    -0.009 C 
BRANCH  24  25
ATOM     25  C   LIG A   1      -7.122   5.811 132.245  0.00  0.00    -0.014 C 
ATOM     26  C   LIG A   1      -7.537   6.799 131.150  0.00  0.00    +0.007 C 
ATOM     27  C   LIG A   1      -5.660   6.065 132.627  0.00  0.00    +0.007 C 
ENDBRANCH  24  25
BRANCH  24  28
ATOM     28  C   LIG A   1      -7.414   5.254 134.822  0.00  0.00    +0.000 C 
ATOM     29  C   LIG A   1      -7.756   6.036 136.093  0.00  0.00    +0.004 C 
ENDBRANCH  24  28
ENDBRANCH  23  24
ENDBRANCH  22  23
ENDBRANCH  20  22
ENDBRANCH   6  20
BRANCH  12  30
ATOM     30  O   LIG A   1      -8.064  -2.952 126.124  0.00  0.00    -0.458 OA
BRANCH  30  31
ATOM     31  C   LIG A   1      -7.584  -2.225 125.072  0.00  0.00    +0.340 C 
ATOM     32  O   LIG A   1      -7.996  -1.141 124.681  0.00  0.00    -0.245 OA
BRANCH  31  33
ATOM     33  C   LIG A   1      -6.390  -2.915 124.496  0.00  0.00    +0.059 A 
ATOM     34  C   LIG A   1      -6.405  -4.313 124.465  0.00  0.00    +0.015 A 
ATOM     35  C   LIG A   1      -5.295  -5.010 123.936  0.00  0.00    +0.001 A 
ATOM     36  C   LIG A   1      -4.221  -4.299 123.418  0.00  0.00    +0.000 A 
ATOM     37  C   LIG A   1      -4.230  -2.907 123.406  0.00  0.00    +0.001 A 
ATOM     38  C   LIG A   1      -5.322  -2.217 123.934  0.00  0.00    +0.015 A 
ENDBRANCH  31  33
ENDBRANCH  30  31
ENDBRANCH  12  30
TORSDOF 9
ENDMDL
MODEL 8
REMARK VINA RESULT:      -9.1      3.872      6.637
REMARK  Name = NuBBE_1561
REMARK  15 active torsions:
REMARK  status: ('A' for Active; 'I' for Inactive)
REMARK    1  A    between atoms: C_1  and  C_2
REMARK    2  A    between atoms: C_6  and  C_8
REMARK    3  A    between atoms: C_8  and  C_10
REMARK    4  A    between atoms: C_8  and  C_11
REMARK    5  A    between atoms: C_11  and  C_12
REMARK    6  A    between atoms: C_12  and  C_13
REMARK    7  A    between atoms: C_13  and  C_15
REMARK    8  A    between atoms: C_13  and  C_17
REMARK    9  A    between atoms: C_15  and  C_16
REMARK   10  A    between atoms: C_17  and  C_18
REMARK   11  A    between atoms: C_17  and  C_19
REMARK   12  A    between atoms: C_24  and  C_42
REMARK   13  A    between atoms: C_27  and  O_29
REMARK   14  A    between atoms: O_29  and  C_30
REMARK   15  A    between atoms: C_30  and  C_31
REMARK                            x       y       z     vdW  Elec       q    Type
REMARK                         _______ _______ _______ _____ _____    ______ ____
ROOT
ATOM      1  C   LIG A   1      -8.131   0.577 127.960  0.00  0.00    +0.012 C 
ATOM      2  C   LIG A   1      -7.247   0.211 129.161  0.00  0.00    -0.026 C 
ATOM      3  C   LIG A   1      -7.427   1.294 130.249  0.00  0.00    -0.001 C 
ATOM      4  C   LIG A   1      -7.091   0.529 131.536  0.00  0.00    +0.004 C 
ATOM      5  C   LIG A   1      -7.587  -0.902 131.331  0.00  0.00    +0.004 C 
ATOM      6  C   LIG A   1      -7.865  -1.088 129.825  0.00  0.00    -0.002 C 
ATOM      7  C   LIG A   1      -6.590   2.612 130.130  0.00  0.00    +0.000 C 
ATOM      8  C   LIG A   1      -5.491   2.647 129.036  0.00  0.00    +0.003 C 
ATOM      9  C   LIG A   1      -5.817   3.407 127.664  0.00  0.00    -0.008 C 
ATOM     10  C   LIG A   1      -7.244   3.977 127.599  0.00  0.00    -0.064 C 
ATOM     11  C   LIG A   1      -7.792   4.398 126.242  0.00  0.00    +0.075 C 
ATOM     12  C   LIG A   1      -7.408   3.431 125.118  0.00  0.00    +0.181 C 
ATOM     13  C   LIG A   1      -5.930   3.091 125.102  0.00  0.00    +0.046 C 
ATOM     14  C   LIG A   1      -5.500   2.506 126.433  0.00  0.00    +0.015 C 
ATOM     15  C   LIG A   1      -7.983   4.161 128.708  0.00  0.00    -0.027 C 
ATOM     16  C   LIG A   1      -7.474   3.862 130.078  0.00  0.00    +0.031 C 
ATOM     17  C   LIG A   1      -4.878   4.656 127.581  0.00  0.00    +0.016 C 
ATOM     18  C   LIG A   1      -4.832   1.262 128.948  0.00  0.00    +0.005 C 
ATOM     19  C   LIG A   1      -5.754   0.042 128.796  0.00  0.00    +0.007 C 
ENDROOT
BRANCH   6  20
ATOM     20  C   LIG A   1      -7.457  -2.522 129.316  0.00  0.00    -0.010 C 
ATOM     21  C   LIG A   1      -8.475  -3.174 128.380  0.00  0.00    +0.008 C 
BRANCH  20  22
ATOM     22  C   LIG A   1      -7.177  -3.487 130.521  0.00  0.00    +0.004 C 
BRANCH  22  23
ATOM     23  C   LIG A   1      -6.006  -4.479 130.291  0.00  0.00    +0.004 C 
BRANCH  23  24
ATOM     24  C   LIG A   1      -4.558  -3.938 130.562  0.00  0.00    -0.009 C 
BRANCH  24  25
ATOM     25  C   LIG A   1      -4.512  -2.977 131.792  0.00  0.00    -0.014 C 
ATOM     26  C   LIG A   1      -3.824  -3.537 133.040  0.00  0.00    +0.007 C 
ATOM     27  C   LIG A   1      -3.904  -1.615 131.448  0.00  0.00    +0.007 C 
ENDBRANCH  24  25
BRANCH  24  28
ATOM     28  C   LIG A   1      -4.007  -3.362 129.217  0.00  0.00    +0.000 C 
ATOM     29  C   LIG A   1      -2.606  -3.813 128.796  0.00  0.00    +0.004 C 
ENDBRANCH  24  28
ENDBRANCH  23  24
ENDBRANCH  22  23
ENDBRANCH  20  22
ENDBRANCH   6  20
BRANCH  12  30
ATOM     30  O   LIG A   1      -7.858   3.829 123.812  0.00  0.00    -0.458 OA
BRANCH  30  31
ATOM     31  C   LIG A   1      -8.142   2.875 122.877  0.00  0.00    +0.340 C 
ATOM     32  O   LIG A   1      -8.559   1.744 123.085  0.00  0.00    -0.245 OA
BRANCH  31  33
ATOM     33  C   LIG A   1      -7.948   3.448 121.510  0.00  0.00    +0.059 A 
ATOM     34  C   LIG A   1      -6.638   3.711 121.099  0.00  0.00    +0.015 A 
ATOM     35  C   LIG A   1      -6.406   4.260 119.817  0.00  0.00    +0.001 A 
ATOM     36  C   LIG A   1      -7.477   4.495 118.966  0.00  0.00    +0.000 A 
ATOM     37  C   LIG A   1      -8.777   4.187 119.360  0.00  0.00    +0.001 A 
ATOM     38  C   LIG A   1      -9.008   3.651 120.627  0.00  0.00    +0.015 A 
ENDBRANCH  31  33
ENDBRANCH  30  31
ENDBRANCH  12  30
TORSDOF 9
ENDMDL
MODEL 9
REMARK VINA RESULT:      -8.9      3.740      7.134
REMARK  Name = NuBBE_1561
REMARK  15 active torsions:
REMARK  status: ('A' for Active; 'I' for Inactive)
REMARK    1  A    between atoms: C_1  and  C_2
REMARK    2  A    between atoms: C_6  and  C_8
REMARK    3  A    between atoms: C_8  and  C_10
REMARK    4  A    between atoms: C_8  and  C_11
REMARK    5  A    between atoms: C_11  and  C_12
REMARK    6  A    between atoms: C_12  and  C_13
REMARK    7  A    between atoms: C_13  and  C_15
REMARK    8  A    between atoms: C_13  and  C_17
REMARK    9  A    between atoms: C_15  and  C_16
REMARK   10  A    between atoms: C_17  and  C_18
REMARK   11  A    between atoms: C_17  and  C_19
REMARK   12  A    between atoms: C_24  and  C_42
REMARK   13  A    between atoms: C_27  and  O_29
REMARK   14  A    between atoms: O_29  and  C_30
REMARK   15  A    between atoms: C_30  and  C_31
REMARK                            x       y       z     vdW  Elec       q    Type
REMARK                         _______ _______ _______ _____ _____    ______ ____
ROOT
ATOM      1  C   LIG A   1      -6.192  -0.044 125.286  0.00  0.00    +0.012 C 
ATOM      2  C   LIG A   1      -7.639  -0.393 124.912  0.00  0.00    -0.026 C 
ATOM      3  C   LIG A   1      -7.971   0.279 123.559  0.00  0.00    -0.001 C 
ATOM      4  C   LIG A   1      -9.074  -0.629 123.000  0.00  0.00    +0.004 C 
ATOM      5  C   LIG A   1      -8.740  -2.049 123.458  0.00  0.00    +0.004 C 
ATOM      6  C   LIG A   1      -7.683  -1.942 124.577  0.00  0.00    -0.002 C 
ATOM      7  C   LIG A   1      -8.412   1.781 123.566  0.00  0.00    +0.000 C 
ATOM      8  C   LIG A   1      -8.681   2.426 124.951  0.00  0.00    +0.003 C 
ATOM      9  C   LIG A   1      -7.538   3.353 125.584  0.00  0.00    -0.008 C 
ATOM     10  C   LIG A   1      -6.268   3.441 124.722  0.00  0.00    -0.064 C 
ATOM     11  C   LIG A   1      -4.997   3.985 125.362  0.00  0.00    +0.075 C 
ATOM     12  C   LIG A   1      -4.796   3.492 126.799  0.00  0.00    +0.181 C 
ATOM     13  C   LIG A   1      -6.032   3.650 127.663  0.00  0.00    +0.046 C 
ATOM     14  C   LIG A   1      -7.213   2.926 127.047  0.00  0.00    +0.015 C 
ATOM     15  C   LIG A   1      -6.273   3.107 123.420  0.00  0.00    -0.027 C 
ATOM     16  C   LIG A   1      -7.503   2.661 122.704  0.00  0.00    +0.031 C 
ATOM     17  C   LIG A   1      -8.093   4.816 125.638  0.00  0.00    +0.016 C 
ATOM     18  C   LIG A   1      -9.345   1.385 125.865  0.00  0.00    +0.005 C 
ATOM     19  C   LIG A   1      -8.667   0.012 125.993  0.00  0.00    +0.007 C 
ENDROOT
BRANCH   6  20
ATOM     20  C   LIG A   1      -7.911  -3.004 125.717  0.00  0.00    -0.010 C 
ATOM     21  C   LIG A   1      -9.381  -3.306 126.013  0.00  0.00    +0.008 C 
BRANCH  20  22
ATOM     22  C   LIG A   1      -7.200  -2.565 127.044  0.00  0.00    +0.004 C 
BRANCH  22  23
ATOM     23  C   LIG A   1      -7.899  -3.056 128.339  0.00  0.00    +0.004 C 
BRANCH  23  24
ATOM     24  C   LIG A   1      -7.785  -2.127 129.599  0.00  0.00    -0.009 C 
BRANCH  24  25
ATOM     25  C   LIG A   1      -7.182  -0.731 129.245  0.00  0.00    -0.014 C 
ATOM     26  C   LIG A   1      -8.013   0.477 129.687  0.00  0.00    +0.007 C 
ATOM     27  C   LIG A   1      -5.746  -0.569 129.751  0.00  0.00    +0.007 C 
ENDBRANCH  24  25
BRANCH  24  28
ATOM     28  C   LIG A   1      -7.048  -2.933 130.717  0.00  0.00    +0.000 C 
ATOM     29  C   LIG A   1      -6.262  -4.170 130.272  0.00  0.00    +0.004 C 
ENDBRANCH  24  28
ENDBRANCH  23  24
ENDBRANCH  22  23
ENDBRANCH  20  22
ENDBRANCH   6  20
BRANCH  12  30
ATOM     30  O   LIG A   1      -3.637   4.033 127.456  0.00  0.00    -0.458 OA
BRANCH  30  31
ATOM     31  C   LIG A   1      -3.683   5.298 127.969  0.00  0.00    +0.340 C 
ATOM     32  O   LIG A   1      -4.192   6.282 127.450  0.00  0.00    -0.245 OA
BRANCH  31  33
ATOM     33  C   LIG A   1      -3.081   5.300 129.337  0.00  0.00    +0.059 A 
ATOM     34  C   LIG A   1      -2.214   6.347 129.659  0.00  0.00    +0.015 A 
ATOM     35  C   LIG A   1      -1.614   6.387 130.939  0.00  0.00    +0.001 A 
ATOM     36  C   LIG A   1      -1.925   5.409 131.874  0.00  0.00    +0.000 A 
ATOM     37  C   LIG A   1      -2.827   4.394 131.566  0.00  0.00    +0.001 A 
ATOM     38  C   LIG A   1      -3.414   4.349 130.301  0.00  0.00    +0.015 A 
ENDBRANCH  31  33
ENDBRANCH  30  31
ENDBRANCH  12  30
TORSDOF 9
ENDMDL
