MODEL 1
REMARK VINA RESULT:      -8.4      0.000      0.000
REMARK  Name = NuBBE_586
REMARK  7 active torsions:
REMARK  status: ('A' for Active; 'I' for Inactive)
REMARK    1  A    between atoms: O_1  and  C_2
REMARK    2  A    between atoms: C_5  and  C_21
REMARK    3  A    between atoms: C_8  and  C_10
REMARK    4  A    between atoms: C_11  and  C_12
REMARK    5  A    between atoms: C_18  and  O_20
REMARK    6  A    between atoms: C_21  and  C_22
REMARK    7  A    between atoms: C_23  and  C_24
REMARK                            x       y       z     vdW  Elec       q    Type
REMARK                         _______ _______ _______ _____ _____    ______ ____
ROOT
ATOM      1  C   LIG A   1      -8.861  -0.773 123.079  0.00  0.00    +0.148 C 
ATOM      2  C   LIG A   1      -7.892  -1.727 123.766  0.00  0.00    +0.066 C 
ATOM      3  C   LIG A   1      -6.626  -0.976 124.181  0.00  0.00    +0.125 C 
ATOM      4  O   LIG A   1      -6.933   0.177 124.988  0.00  0.00    -0.366 OA
ATOM      5  C   LIG A   1      -7.799   1.140 124.375  0.00  0.00    +0.172 C 
ATOM      6  C   LIG A   1      -9.117   0.464 123.947  0.00  0.00    +0.175 C 
ENDROOT
BRANCH   1   7
ATOM      7  O   LIG A   1     -10.093  -1.458 122.838  0.00  0.00    -0.389 OA
ATOM      8  H   LIG A   1     -10.247  -2.016 123.628  0.00  0.00    +0.210 HD
ENDBRANCH   1   7
BRANCH   5   9
ATOM      9  C   LIG A   1      -7.093   1.917 123.297  0.00  0.00    +0.007 C 
ATOM     10  C   LIG A   1      -7.662   2.837 122.495  0.00  0.00    +0.006 C 
BRANCH  10  11
ATOM     11  C   LIG A   1      -6.919   3.589 121.473  0.00  0.00    -0.025 A 
ATOM     12  C   LIG A   1      -7.534   3.916 120.257  0.00  0.00    +0.008 A 
ATOM     13  C   LIG A   1      -6.851   4.670 119.297  0.00  0.00    +0.001 A 
ATOM     14  C   LIG A   1      -5.553   5.111 119.547  0.00  0.00    +0.000 A 
ATOM     15  C   LIG A   1      -4.935   4.799 120.753  0.00  0.00    +0.001 A 
ATOM     16  C   LIG A   1      -5.617   4.051 121.711  0.00  0.00    +0.008 A 
ENDBRANCH  10  11
ENDBRANCH   5   9
BRANCH   6  17
ATOM     17  O   LIG A   1      -9.845   0.039 125.123  0.00  0.00    -0.386 OA
ATOM     18  H   LIG A   1     -10.610  -0.476 124.799  0.00  0.00    +0.210 HD
ENDBRANCH   6  17
BRANCH   3  19
ATOM     19  C   LIG A   1      -5.647  -1.847 124.985  0.00  0.00    +0.058 C 
BRANCH  19  20
ATOM     20  C   LIG A   1      -5.548  -1.436 126.432  0.00  0.00    -0.025 C 
ATOM     21  C   LIG A   1      -6.030  -2.150 127.464  0.00  0.00    +0.013 C 
BRANCH  21  22
ATOM     22  C   LIG A   1      -5.926  -1.774 128.930  0.00  0.00    +0.203 C 
ATOM     23  O   LIG A   1      -4.553  -1.626 129.334  0.00  0.00    -0.454 OA
ATOM     24  C   LIG A   1      -3.810  -2.720 129.660  0.00  0.00    +0.332 C 
ATOM     25  C   LIG A   1      -4.548  -3.959 129.977  0.00  0.00    +0.087 C 
ATOM     26  C   LIG A   1      -5.877  -3.966 130.120  0.00  0.00    -0.016 C 
ATOM     27  C   LIG A   1      -6.675  -2.725 129.878  0.00  0.00    +0.076 C 
ATOM     28  O   LIG A   1      -2.595  -2.696 129.711  0.00  0.00    -0.246 OA
ENDBRANCH  21  22
ENDBRANCH  19  20
ENDBRANCH   3  19
TORSDOF 7
ENDMDL
MODEL 2
REMARK VINA RESULT:      -8.3      3.200      5.265
REMARK  Name = NuBBE_586
REMARK  7 active torsions:
REMARK  status: ('A' for Active; 'I' for Inactive)
REMARK    1  A    between atoms: O_1  and  C_2
REMARK    2  A    between atoms: C_5  and  C_21
REMARK    3  A    between atoms: C_8  and  C_10
REMARK    4  A    between atoms: C_11  and  C_12
REMARK    5  A    between atoms: C_18  and  O_20
REMARK    6  A    between atoms: C_21  and  C_22
REMARK    7  A    between atoms: C_23  and  C_24
REMARK                            x       y       z     vdW  Elec       q    Type
REMARK                         _______ _______ _______ _____ _____    ______ ____
ROOT
ATOM      1  C   LIG A   1      -6.879   4.065 127.229  0.00  0.00    +0.148 C 
ATOM      2  C   LIG A   1      -6.560   2.605 127.524  0.00  0.00    +0.066 C 
ATOM      3  C   LIG A   1      -6.046   1.917 126.258  0.00  0.00    +0.125 C 
ATOM      4  O   LIG A   1      -4.930   2.624 125.686  0.00  0.00    -0.366 OA
ATOM      5  C   LIG A   1      -5.184   3.989 125.336  0.00  0.00    +0.172 C 
ATOM      6  C   LIG A   1      -5.684   4.764 126.572  0.00  0.00    +0.175 C 
ENDROOT
BRANCH   1   7
ATOM      7  O   LIG A   1      -7.210   4.724 128.455  0.00  0.00    -0.389 OA
ATOM      8  H   LIG A   1      -6.605   4.353 129.129  0.00  0.00    +0.210 HD
ENDBRANCH   1   7
BRANCH   5   9
ATOM      9  C   LIG A   1      -6.051   4.100 124.111  0.00  0.00    +0.007 C 
ATOM     10  C   LIG A   1      -5.758   3.599 122.897  0.00  0.00    +0.006 C 
BRANCH  10  11
ATOM     11  C   LIG A   1      -6.656   3.712 121.737  0.00  0.00    -0.025 A 
ATOM     12  C   LIG A   1      -8.020   3.426 121.875  0.00  0.00    +0.008 A 
ATOM     13  C   LIG A   1      -8.890   3.574 120.789  0.00  0.00    +0.001 A 
ATOM     14  C   LIG A   1      -8.405   4.020 119.561  0.00  0.00    +0.000 A 
ATOM     15  C   LIG A   1      -7.054   4.314 119.414  0.00  0.00    +0.001 A 
ATOM     16  C   LIG A   1      -6.188   4.169 120.497  0.00  0.00    +0.008 A 
ENDBRANCH  10  11
ENDBRANCH   5   9
BRANCH   6  17
ATOM     17  O   LIG A   1      -4.622   4.846 127.552  0.00  0.00    -0.386 OA
ATOM     18  H   LIG A   1      -3.884   5.315 127.114  0.00  0.00    +0.210 HD
ENDBRANCH   6  17
BRANCH   3  19
ATOM     19  C   LIG A   1      -5.592   0.469 126.503  0.00  0.00    +0.058 C 
BRANCH  19  20
ATOM     20  C   LIG A   1      -5.746  -0.408 125.288  0.00  0.00    -0.025 C 
ATOM     21  C   LIG A   1      -6.689  -0.247 124.343  0.00  0.00    +0.013 C 
BRANCH  21  22
ATOM     22  C   LIG A   1      -6.855  -1.099 123.098  0.00  0.00    +0.203 C 
ATOM     23  O   LIG A   1      -8.214  -1.549 122.952  0.00  0.00    -0.454 OA
ATOM     24  C   LIG A   1      -8.656  -2.637 123.642  0.00  0.00    +0.332 C 
ATOM     25  C   LIG A   1      -7.628  -3.545 124.189  0.00  0.00    +0.087 C 
ATOM     26  C   LIG A   1      -6.336  -3.414 123.871  0.00  0.00    -0.016 C 
ATOM     27  C   LIG A   1      -5.875  -2.281 123.011  0.00  0.00    +0.076 C 
ATOM     28  O   LIG A   1      -9.838  -2.880 123.797  0.00  0.00    -0.246 OA
ENDBRANCH  21  22
ENDBRANCH  19  20
ENDBRANCH   3  19
TORSDOF 7
ENDMDL
MODEL 3
REMARK VINA RESULT:      -8.1      7.533      9.349
REMARK  Name = NuBBE_586
REMARK  7 active torsions:
REMARK  status: ('A' for Active; 'I' for Inactive)
REMARK    1  A    between atoms: O_1  and  C_2
REMARK    2  A    between atoms: C_5  and  C_21
REMARK    3  A    between atoms: C_8  and  C_10
REMARK    4  A    between atoms: C_11  and  C_12
REMARK    5  A    between atoms: C_18  and  O_20
REMARK    6  A    between atoms: C_21  and  C_22
REMARK    7  A    between atoms: C_23  and  C_24
REMARK                            x       y       z     vdW  Elec       q    Type
REMARK                         _______ _______ _______ _____ _____    ______ ____
ROOT
ATOM      1  C   LIG A   1      -9.389   4.346 132.714  0.00  0.00    +0.148 C 
ATOM      2  C   LIG A   1      -8.005   3.766 132.450  0.00  0.00    +0.066 C 
ATOM      3  C   LIG A   1      -7.337   4.514 131.294  0.00  0.00    +0.125 C 
ATOM      4  O   LIG A   1      -7.307   5.935 131.529  0.00  0.00    -0.366 OA
ATOM      5  C   LIG A   1      -8.585   6.549 131.731  0.00  0.00    +0.172 C 
ATOM      6  C   LIG A   1      -9.317   5.865 132.903  0.00  0.00    +0.175 C 
ENDROOT
BRANCH   1   7
ATOM      7  O   LIG A   1      -9.930   3.738 133.889  0.00  0.00    -0.389 OA
ATOM      8  H   LIG A   1     -10.891   3.922 133.867  0.00  0.00    +0.210 HD
ENDBRANCH   1   7
BRANCH   5   9
ATOM      9  C   LIG A   1      -9.367   6.644 130.449  0.00  0.00    +0.007 C 
ATOM     10  C   LIG A   1     -10.675   6.945 130.350  0.00  0.00    +0.006 C 
BRANCH  10  11
ATOM     11  C   LIG A   1     -11.387   7.050 129.067  0.00  0.00    -0.025 A 
ATOM     12  C   LIG A   1     -10.671   7.284 127.885  0.00  0.00    +0.008 A 
ATOM     13  C   LIG A   1     -11.334   7.340 126.655  0.00  0.00    +0.001 A 
ATOM     14  C   LIG A   1     -12.714   7.154 126.593  0.00  0.00    +0.000 A 
ATOM     15  C   LIG A   1     -13.433   6.915 127.759  0.00  0.00    +0.001 A 
ATOM     16  C   LIG A   1     -12.773   6.855 128.985  0.00  0.00    +0.008 A 
ENDBRANCH  10  11
ENDBRANCH   5   9
BRANCH   6  17
ATOM     17  O   LIG A   1      -8.605   6.127 134.135  0.00  0.00    -0.386 OA
ATOM     18  H   LIG A   1      -7.688   6.346 133.878  0.00  0.00    +0.210 HD
ENDBRANCH   6  17
BRANCH   3  19
ATOM     19  C   LIG A   1      -5.889   4.063 131.043  0.00  0.00    +0.058 C 
BRANCH  19  20
ATOM     20  C   LIG A   1      -5.263   4.735 129.848  0.00  0.00    -0.025 C 
ATOM     21  C   LIG A   1      -4.002   4.532 129.431  0.00  0.00    +0.013 C 
BRANCH  21  22
ATOM     22  C   LIG A   1      -3.352   5.176 128.220  0.00  0.00    +0.203 C 
ATOM     23  O   LIG A   1      -4.337   5.755 127.346  0.00  0.00    -0.454 OA
ATOM     24  C   LIG A   1      -5.008   4.976 126.453  0.00  0.00    +0.332 C 
ATOM     25  C   LIG A   1      -4.414   3.661 126.135  0.00  0.00    +0.087 C 
ATOM     26  C   LIG A   1      -3.191   3.325 126.556  0.00  0.00    -0.016 C 
ATOM     27  C   LIG A   1      -2.411   4.243 127.441  0.00  0.00    +0.076 C 
ATOM     28  O   LIG A   1      -6.039   5.333 125.915  0.00  0.00    -0.246 OA
ENDBRANCH  21  22
ENDBRANCH  19  20
ENDBRANCH   3  19
TORSDOF 7
ENDMDL
MODEL 4
REMARK VINA RESULT:      -8.1      2.986      6.932
REMARK  Name = NuBBE_586
REMARK  7 active torsions:
REMARK  status: ('A' for Active; 'I' for Inactive)
REMARK    1  A    between atoms: O_1  and  C_2
REMARK    2  A    between atoms: C_5  and  C_21
REMARK    3  A    between atoms: C_8  and  C_10
REMARK    4  A    between atoms: C_11  and  C_12
REMARK    5  A    between atoms: C_18  and  O_20
REMARK    6  A    between atoms: C_21  and  C_22
REMARK    7  A    between atoms: C_23  and  C_24
REMARK                            x       y       z     vdW  Elec       q    Type
REMARK                         _______ _______ _______ _____ _____    ______ ____
ROOT
ATOM      1  C   LIG A   1      -6.666   3.810 124.309  0.00  0.00    +0.148 C 
ATOM      2  C   LIG A   1      -7.736   3.363 123.322  0.00  0.00    +0.066 C 
ATOM      3  C   LIG A   1      -8.580   2.245 123.937  0.00  0.00    +0.125 C 
ATOM      4  O   LIG A   1      -9.129   2.634 125.211  0.00  0.00    -0.366 OA
ATOM      5  C   LIG A   1      -8.167   3.015 126.201  0.00  0.00    +0.172 C 
ATOM      6  C   LIG A   1      -7.287   4.162 125.665  0.00  0.00    +0.175 C 
ENDROOT
BRANCH   1   7
ATOM      7  O   LIG A   1      -5.991   4.952 123.776  0.00  0.00    -0.389 OA
ATOM      8  H   LIG A   1      -5.820   5.542 124.539  0.00  0.00    +0.210 HD
ENDBRANCH   1   7
BRANCH   5   9
ATOM      9  C   LIG A   1      -7.419   1.825 126.739  0.00  0.00    +0.007 C 
ATOM     10  C   LIG A   1      -7.964   0.799 127.419  0.00  0.00    +0.006 C 
BRANCH  10  11
ATOM     11  C   LIG A   1      -7.189  -0.355 127.900  0.00  0.00    -0.025 A 
ATOM     12  C   LIG A   1      -7.794  -1.310 128.728  0.00  0.00    +0.008 A 
ATOM     13  C   LIG A   1      -7.079  -2.434 129.153  0.00  0.00    +0.001 A 
ATOM     14  C   LIG A   1      -5.759  -2.619 128.747  0.00  0.00    +0.000 A 
ATOM     15  C   LIG A   1      -5.151  -1.681 127.920  0.00  0.00    +0.001 A 
ATOM     16  C   LIG A   1      -5.864  -0.563 127.493  0.00  0.00    +0.008 A 
ENDBRANCH  10  11
ENDBRANCH   5   9
BRANCH   6  17
ATOM     17  O   LIG A   1      -8.095   5.349 125.490  0.00  0.00    -0.386 OA
ATOM     18  H   LIG A   1      -9.025   5.047 125.486  0.00  0.00    +0.210 HD
ENDBRANCH   6  17
BRANCH   3  19
ATOM     19  C   LIG A   1      -9.757   1.820 123.045  0.00  0.00    +0.058 C 
BRANCH  19  20
ATOM     20  C   LIG A   1      -9.794   0.335 122.791  0.00  0.00    -0.025 C 
ATOM     21  C   LIG A   1      -9.002  -0.565 123.399  0.00  0.00    +0.013 C 
BRANCH  21  22
ATOM     22  C   LIG A   1      -9.031  -2.066 123.180  0.00  0.00    +0.203 C 
ATOM     23  O   LIG A   1      -9.713  -2.736 124.256  0.00  0.00    -0.454 OA
ATOM     24  C   LIG A   1      -9.058  -3.013 125.418  0.00  0.00    +0.332 C 
ATOM     25  C   LIG A   1      -7.583  -2.985 125.378  0.00  0.00    +0.087 C 
ATOM     26  C   LIG A   1      -6.916  -2.877 124.225  0.00  0.00    -0.016 C 
ATOM     27  C   LIG A   1      -7.649  -2.693 122.935  0.00  0.00    +0.076 C 
ATOM     28  O   LIG A   1      -9.642  -3.292 126.448  0.00  0.00    -0.246 OA
ENDBRANCH  21  22
ENDBRANCH  19  20
ENDBRANCH   3  19
TORSDOF 7
ENDMDL
MODEL 5
REMARK VINA RESULT:      -8.0      1.536      2.350
REMARK  Name = NuBBE_586
REMARK  7 active torsions:
REMARK  status: ('A' for Active; 'I' for Inactive)
REMARK    1  A    between atoms: O_1  and  C_2
REMARK    2  A    between atoms: C_5  and  C_21
REMARK    3  A    between atoms: C_8  and  C_10
REMARK    4  A    between atoms: C_11  and  C_12
REMARK    5  A    between atoms: C_18  and  O_20
REMARK    6  A    between atoms: C_21  and  C_22
REMARK    7  A    between atoms: C_23  and  C_24
REMARK                            x       y       z     vdW  Elec       q    Type
REMARK                         _______ _______ _______ _____ _____    ______ ____
ROOT
ATOM      1  C   LIG A   1      -9.519   0.117 122.582  0.00  0.00    +0.148 C 
ATOM      2  C   LIG A   1      -8.695  -1.119 122.921  0.00  0.00    +0.066 C 
ATOM      3  C   LIG A   1      -7.246  -0.718 123.205  0.00  0.00    +0.125 C 
ATOM      4  O   LIG A   1      -7.167   0.296 124.224  0.00  0.00    -0.366 OA
ATOM      5  C   LIG A   1      -7.878   1.506 123.939  0.00  0.00    +0.172 C 
ATOM      6  C   LIG A   1      -9.362   1.191 123.664  0.00  0.00    +0.175 C 
ENDROOT
BRANCH   1   7
ATOM      7  O   LIG A   1     -10.894  -0.260 122.471  0.00  0.00    -0.389 OA
ATOM      8  H   LIG A   1     -11.109  -0.737 123.299  0.00  0.00    +0.210 HD
ENDBRANCH   1   7
BRANCH   5   9
ATOM      9  C   LIG A   1      -7.187   2.325 122.883  0.00  0.00    +0.007 C 
ATOM     10  C   LIG A   1      -7.799   3.054 121.931  0.00  0.00    +0.006 C 
BRANCH  10  11
ATOM     11  C   LIG A   1      -7.074   3.859 120.937  0.00  0.00    -0.025 A 
ATOM     12  C   LIG A   1      -5.745   4.235 121.174  0.00  0.00    +0.008 A 
ATOM     13  C   LIG A   1      -5.032   4.963 120.214  0.00  0.00    +0.001 A 
ATOM     14  C   LIG A   1      -5.638   5.310 119.007  0.00  0.00    +0.000 A 
ATOM     15  C   LIG A   1      -6.954   4.936 118.759  0.00  0.00    +0.001 A 
ATOM     16  C   LIG A   1      -7.663   4.208 119.714  0.00  0.00    +0.008 A 
ENDBRANCH  10  11
ENDBRANCH   5   9
BRANCH   6  17
ATOM     17  O   LIG A   1      -9.983   0.697 124.875  0.00  0.00    -0.386 OA
ATOM     18  H   LIG A   1     -10.824   0.283 124.600  0.00  0.00    +0.210 HD
ENDBRANCH   6  17
BRANCH   3  19
ATOM     19  C   LIG A   1      -6.376  -1.898 123.668  0.00  0.00    +0.058 C 
BRANCH  19  20
ATOM     20  C   LIG A   1      -5.791  -1.693 125.041  0.00  0.00    -0.025 C 
ATOM     21  C   LIG A   1      -6.197  -2.338 126.149  0.00  0.00    +0.013 C 
BRANCH  21  22
ATOM     22  C   LIG A   1      -5.613  -2.169 127.540  0.00  0.00    +0.203 C 
ATOM     23  O   LIG A   1      -6.357  -2.925 128.513  0.00  0.00    -0.454 OA
ATOM     24  C   LIG A   1      -7.510  -2.424 129.038  0.00  0.00    +0.332 C 
ATOM     25  C   LIG A   1      -7.732  -0.971 128.899  0.00  0.00    +0.087 C 
ATOM     26  C   LIG A   1      -6.774  -0.156 128.448  0.00  0.00    -0.016 C 
ATOM     27  C   LIG A   1      -5.463  -0.705 127.984  0.00  0.00    +0.076 C 
ATOM     28  O   LIG A   1      -8.323  -3.120 129.616  0.00  0.00    -0.246 OA
ENDBRANCH  21  22
ENDBRANCH  19  20
ENDBRANCH   3  19
TORSDOF 7
ENDMDL
MODEL 6
REMARK VINA RESULT:      -7.9      2.709      4.041
REMARK  Name = NuBBE_586
REMARK  7 active torsions:
REMARK  status: ('A' for Active; 'I' for Inactive)
REMARK    1  A    between atoms: O_1  and  C_2
REMARK    2  A    between atoms: C_5  and  C_21
REMARK    3  A    between atoms: C_8  and  C_10
REMARK    4  A    between atoms: C_11  and  C_12
REMARK    5  A    between atoms: C_18  and  O_20
REMARK    6  A    between atoms: C_21  and  C_22
REMARK    7  A    between atoms: C_23  and  C_24
REMARK                            x       y       z     vdW  Elec       q    Type
REMARK                         _______ _______ _______ _____ _____    ______ ____
ROOT
ATOM      1  C   LIG A   1      -8.961  -0.791 123.142  0.00  0.00    +0.148 C 
ATOM      2  C   LIG A   1      -7.856  -1.469 123.942  0.00  0.00    +0.066 C 
ATOM      3  C   LIG A   1      -6.770  -0.452 124.297  0.00  0.00    +0.125 C 
ATOM      4  O   LIG A   1      -7.318   0.696 124.973  0.00  0.00    -0.366 OA
ATOM      5  C   LIG A   1      -8.327   1.409 124.248  0.00  0.00    +0.172 C 
ATOM      6  C   LIG A   1      -9.478   0.455 123.871  0.00  0.00    +0.175 C 
ENDROOT
BRANCH   1   7
ATOM      7  O   LIG A   1     -10.033  -1.719 122.954  0.00  0.00    -0.389 OA
ATOM      8  H   LIG A   1      -9.616  -2.605 122.920  0.00  0.00    +0.210 HD
ENDBRANCH   1   7
BRANCH   5   9
ATOM      9  C   LIG A   1      -7.741   2.196 123.106  0.00  0.00    +0.007 C 
ATOM     10  C   LIG A   1      -6.734   3.083 123.202  0.00  0.00    +0.006 C 
BRANCH  10  11
ATOM     11  C   LIG A   1      -6.181   3.807 122.047  0.00  0.00    -0.025 A 
ATOM     12  C   LIG A   1      -6.871   3.813 120.827  0.00  0.00    +0.008 A 
ATOM     13  C   LIG A   1      -6.375   4.536 119.736  0.00  0.00    +0.001 A 
ATOM     14  C   LIG A   1      -5.194   5.266 119.858  0.00  0.00    +0.000 A 
ATOM     15  C   LIG A   1      -4.506   5.273 121.067  0.00  0.00    +0.001 A 
ATOM     16  C   LIG A   1      -5.001   4.556 122.154  0.00  0.00    +0.008 A 
ENDBRANCH  10  11
ENDBRANCH   5   9
BRANCH   6  17
ATOM     17  O   LIG A   1     -10.155   0.018 125.073  0.00  0.00    -0.386 OA
ATOM     18  H   LIG A   1     -10.801   0.719 125.291  0.00  0.00    +0.210 HD
ENDBRANCH   6  17
BRANCH   3  19
ATOM     19  C   LIG A   1      -5.675  -1.035 125.205  0.00  0.00    +0.058 C 
BRANCH  19  20
ATOM     20  C   LIG A   1      -5.347  -0.144 126.375  0.00  0.00    -0.025 C 
ATOM     21  C   LIG A   1      -4.951   1.136 126.274  0.00  0.00    +0.013 C 
BRANCH  21  22
ATOM     22  C   LIG A   1      -4.635   2.063 127.434  0.00  0.00    +0.203 C 
ATOM     23  O   LIG A   1      -5.756   2.911 127.743  0.00  0.00    -0.454 OA
ATOM     24  C   LIG A   1      -5.981   4.044 127.022  0.00  0.00    +0.332 C 
ATOM     25  C   LIG A   1      -4.851   4.568 126.229  0.00  0.00    +0.087 C 
ATOM     26  C   LIG A   1      -3.618   4.068 126.353  0.00  0.00    -0.016 C 
ATOM     27  C   LIG A   1      -3.357   2.896 127.243  0.00  0.00    +0.076 C 
ATOM     28  O   LIG A   1      -7.050   4.625 127.031  0.00  0.00    -0.246 OA
ENDBRANCH  21  22
ENDBRANCH  19  20
ENDBRANCH   3  19
TORSDOF 7
ENDMDL
MODEL 7
REMARK VINA RESULT:      -7.9      3.252      4.902
REMARK  Name = NuBBE_586
REMARK  7 active torsions:
REMARK  status: ('A' for Active; 'I' for Inactive)
REMARK    1  A    between atoms: O_1  and  C_2
REMARK    2  A    between atoms: C_5  and  C_21
REMARK    3  A    between atoms: C_8  and  C_10
REMARK    4  A    between atoms: C_11  and  C_12
REMARK    5  A    between atoms: C_18  and  O_20
REMARK    6  A    between atoms: C_21  and  C_22
REMARK    7  A    between atoms: C_23  and  C_24
REMARK                            x       y       z     vdW  Elec       q    Type
REMARK                         _______ _______ _______ _____ _____    ______ ____
ROOT
ATOM      1  C   LIG A   1      -7.033   4.232 126.410  0.00  0.00    +0.148 C 
ATOM      2  C   LIG A   1      -8.210   3.267 126.480  0.00  0.00    +0.066 C 
ATOM      3  C   LIG A   1      -8.331   2.497 125.163  0.00  0.00    +0.125 C 
ATOM      4  O   LIG A   1      -7.097   1.841 124.816  0.00  0.00    -0.366 OA
ATOM      5  C   LIG A   1      -5.962   2.704 124.683  0.00  0.00    +0.172 C 
ATOM      6  C   LIG A   1      -5.753   3.503 125.985  0.00  0.00    +0.175 C 
ENDROOT
BRANCH   1   7
ATOM      7  O   LIG A   1      -6.845   4.827 127.697  0.00  0.00    -0.389 OA
ATOM      8  H   LIG A   1      -7.246   5.719 127.640  0.00  0.00    +0.210 HD
ENDBRANCH   1   7
BRANCH   5   9
ATOM      9  C   LIG A   1      -6.032   3.527 123.425  0.00  0.00    +0.007 C 
ATOM     10  C   LIG A   1      -6.168   3.041 122.177  0.00  0.00    +0.006 C 
BRANCH  10  11
ATOM     11  C   LIG A   1      -6.258   3.894 120.982  0.00  0.00    -0.025 A 
ATOM     12  C   LIG A   1      -5.216   4.777 120.671  0.00  0.00    +0.008 A 
ATOM     13  C   LIG A   1      -5.272   5.559 119.512  0.00  0.00    +0.001 A 
ATOM     14  C   LIG A   1      -6.363   5.457 118.651  0.00  0.00    +0.000 A 
ATOM     15  C   LIG A   1      -7.400   4.578 118.947  0.00  0.00    +0.001 A 
ATOM     16  C   LIG A   1      -7.342   3.797 120.099  0.00  0.00    +0.008 A 
ENDBRANCH  10  11
ENDBRANCH   5   9
BRANCH   6  17
ATOM     17  O   LIG A   1      -5.381   2.599 127.051  0.00  0.00    -0.386 OA
ATOM     18  H   LIG A   1      -6.109   1.951 127.126  0.00  0.00    +0.210 HD
ENDBRANCH   6  17
BRANCH   3  19
ATOM     19  C   LIG A   1      -9.426   1.419 125.198  0.00  0.00    +0.058 C 
BRANCH  19  20
ATOM     20  C   LIG A   1      -8.898   0.036 124.915  0.00  0.00    -0.025 C 
ATOM     21  C   LIG A   1      -8.775  -0.938 125.834  0.00  0.00    +0.013 C 
BRANCH  21  22
ATOM     22  C   LIG A   1      -8.268  -2.345 125.575  0.00  0.00    +0.203 C 
ATOM     23  O   LIG A   1      -7.063  -2.328 124.788  0.00  0.00    -0.454 OA
ATOM     24  C   LIG A   1      -7.128  -2.203 123.433  0.00  0.00    +0.332 C 
ATOM     25  C   LIG A   1      -8.426  -2.500 122.796  0.00  0.00    +0.087 C 
ATOM     26  C   LIG A   1      -9.437  -3.040 123.484  0.00  0.00    -0.016 C 
ATOM     27  C   LIG A   1      -9.313  -3.285 124.953  0.00  0.00    +0.076 C 
ATOM     28  O   LIG A   1      -6.168  -1.883 122.758  0.00  0.00    -0.246 OA
ENDBRANCH  21  22
ENDBRANCH  19  20
ENDBRANCH   3  19
TORSDOF 7
ENDMDL
MODEL 8
REMARK VINA RESULT:      -7.8      6.976     11.434
REMARK  Name = NuBBE_586
REMARK  7 active torsions:
REMARK  status: ('A' for Active; 'I' for Inactive)
REMARK    1  A    between atoms: O_1  and  C_2
REMARK    2  A    between atoms: C_5  and  C_21
REMARK    3  A    between atoms: C_8  and  C_10
REMARK    4  A    between atoms: C_11  and  C_12
REMARK    5  A    between atoms: C_18  and  O_20
REMARK    6  A    between atoms: C_21  and  C_22
REMARK    7  A    between atoms: C_23  and  C_24
REMARK                            x       y       z     vdW  Elec       q    Type
REMARK                         _______ _______ _______ _____ _____    ______ ____
ROOT
ATOM      1  C   LIG A   1      -7.565   4.030 133.155  0.00  0.00    +0.148 C 
ATOM      2  C   LIG A   1      -7.861   4.766 131.855  0.00  0.00    +0.066 C 
ATOM      3  C   LIG A   1      -8.429   3.790 130.821  0.00  0.00    +0.125 C 
ATOM      4  O   LIG A   1      -9.575   3.084 131.331  0.00  0.00    -0.366 OA
ATOM      5  C   LIG A   1      -9.347   2.328 132.526  0.00  0.00    +0.172 C 
ATOM      6  C   LIG A   1      -8.794   3.249 133.633  0.00  0.00    +0.175 C 
ENDROOT
BRANCH   1   7
ATOM      7  O   LIG A   1      -7.182   4.983 134.150  0.00  0.00    -0.389 OA
ATOM      8  H   LIG A   1      -6.204   5.027 134.115  0.00  0.00    +0.210 HD
ENDBRANCH   1   7
BRANCH   5   9
ATOM      9  C   LIG A   1      -8.538   1.088 132.255  0.00  0.00    +0.007 C 
ATOM     10  C   LIG A   1      -8.964   0.009 131.574  0.00  0.00    +0.006 C 
BRANCH  10  11
ATOM     11  C   LIG A   1      -8.122  -1.169 131.315  0.00  0.00    -0.025 A 
ATOM     12  C   LIG A   1      -7.570  -1.886 132.384  0.00  0.00    +0.008 A 
ATOM     13  C   LIG A   1      -6.806  -3.033 132.149  0.00  0.00    +0.001 A 
ATOM     14  C   LIG A   1      -6.595  -3.479 130.845  0.00  0.00    +0.000 A 
ATOM     15  C   LIG A   1      -7.144  -2.779 129.777  0.00  0.00    +0.001 A 
ATOM     16  C   LIG A   1      -7.908  -1.638 130.011  0.00  0.00    +0.008 A 
ENDBRANCH  10  11
ENDBRANCH   5   9
BRANCH   6  17
ATOM     17  O   LIG A   1      -9.809   4.207 134.015  0.00  0.00    -0.386 OA
ATOM     18  H   LIG A   1      -9.713   4.335 134.980  0.00  0.00    +0.210 HD
ENDBRANCH   6  17
BRANCH   3  19
ATOM     19  C   LIG A   1      -8.862   4.481 129.518  0.00  0.00    +0.058 C 
BRANCH  19  20
ATOM     20  C   LIG A   1      -9.542   5.805 129.753  0.00  0.00    -0.025 C 
ATOM     21  C   LIG A   1     -10.036   6.594 128.783  0.00  0.00    +0.013 C 
BRANCH  21  22
ATOM     22  C   LIG A   1     -10.744   7.920 128.990  0.00  0.00    +0.203 C 
ATOM     23  O   LIG A   1     -11.493   7.924 130.219  0.00  0.00    -0.454 OA
ATOM     24  C   LIG A   1     -12.732   7.361 130.271  0.00  0.00    +0.332 C 
ATOM     25  C   LIG A   1     -13.420   7.137 128.984  0.00  0.00    +0.087 C 
ATOM     26  C   LIG A   1     -12.937   7.626 127.838  0.00  0.00    -0.016 C 
ATOM     27  C   LIG A   1     -11.630   8.351 127.809  0.00  0.00    +0.076 C 
ATOM     28  O   LIG A   1     -13.274   7.067 131.320  0.00  0.00    -0.246 OA
ENDBRANCH  21  22
ENDBRANCH  19  20
ENDBRANCH   3  19
TORSDOF 7
ENDMDL
MODEL 9
REMARK VINA RESULT:      -7.8      8.598     10.076
REMARK  Name = NuBBE_586
REMARK  7 active torsions:
REMARK  status: ('A' for Active; 'I' for Inactive)
REMARK    1  A    between atoms: O_1  and  C_2
REMARK    2  A    between atoms: C_5  and  C_21
REMARK    3  A    between atoms: C_8  and  C_10
REMARK    4  A    between atoms: C_11  and  C_12
REMARK    5  A    between atoms: C_18  and  O_20
REMARK    6  A    between atoms: C_21  and  C_22
REMARK    7  A    between atoms: C_23  and  C_24
REMARK                            x       y       z     vdW  Elec       q    Type
REMARK                         _______ _______ _______ _____ _____    ______ ____
ROOT
ATOM      1  C   LIG A   1      -8.834   3.660 131.829  0.00  0.00    +0.148 C 
ATOM      2  C   LIG A   1      -7.555   4.475 131.686  0.00  0.00    +0.066 C 
ATOM      3  C   LIG A   1      -7.899   5.946 131.442  0.00  0.00    +0.125 C 
ATOM      4  O   LIG A   1      -8.775   6.463 132.461  0.00  0.00    -0.366 OA
ATOM      5  C   LIG A   1     -10.020   5.769 132.608  0.00  0.00    +0.172 C 
ATOM      6  C   LIG A   1      -9.759   4.275 132.884  0.00  0.00    +0.175 C 
ENDROOT
BRANCH   1   7
ATOM      7  O   LIG A   1      -8.491   2.324 132.207  0.00  0.00    -0.389 OA
ATOM      8  H   LIG A   1      -9.073   2.103 132.964  0.00  0.00    +0.210 HD
ENDBRANCH   1   7
BRANCH   5   9
ATOM      9  C   LIG A   1     -10.958   6.061 131.468  0.00  0.00    +0.007 C 
ATOM     10  C   LIG A   1     -11.346   7.285 131.066  0.00  0.00    +0.006 C 
BRANCH  10  11
ATOM     11  C   LIG A   1     -12.247   7.515 129.927  0.00  0.00    -0.025 A 
ATOM     12  C   LIG A   1     -12.599   8.822 129.564  0.00  0.00    +0.008 A 
ATOM     13  C   LIG A   1     -13.419   9.053 128.454  0.00  0.00    +0.001 A 
ATOM     14  C   LIG A   1     -13.884   7.982 127.692  0.00  0.00    +0.000 A 
ATOM     15  C   LIG A   1     -13.534   6.681 128.039  0.00  0.00    +0.001 A 
ATOM     16  C   LIG A   1     -12.715   6.451 129.143  0.00  0.00    +0.008 A 
ENDBRANCH  10  11
ENDBRANCH   5   9
BRANCH   6  17
ATOM     17  O   LIG A   1      -9.123   4.127 134.175  0.00  0.00    -0.386 OA
ATOM     18  H   LIG A   1      -8.468   4.850 134.241  0.00  0.00    +0.210 HD
ENDBRANCH   6  17
BRANCH   3  19
ATOM     19  C   LIG A   1      -6.660   6.855 131.402  0.00  0.00    +0.058 C 
BRANCH  19  20
ATOM     20  C   LIG A   1      -5.393   6.105 131.080  0.00  0.00    -0.025 C 
ATOM     21  C   LIG A   1      -4.152   6.603 131.226  0.00  0.00    +0.013 C 
BRANCH  21  22
ATOM     22  C   LIG A   1      -2.859   5.865 130.932  0.00  0.00    +0.203 C 
ATOM     23  O   LIG A   1      -2.056   6.582 129.976  0.00  0.00    -0.454 OA
ATOM     24  C   LIG A   1      -2.312   6.472 128.643  0.00  0.00    +0.332 C 
ATOM     25  C   LIG A   1      -3.127   5.318 128.212  0.00  0.00    +0.087 C 
ATOM     26  C   LIG A   1      -3.445   4.331 129.055  0.00  0.00    -0.016 C 
ATOM     27  C   LIG A   1      -3.053   4.404 130.496  0.00  0.00    +0.076 C 
ATOM     28  O   LIG A   1      -1.884   7.264 127.826  0.00  0.00    -0.246 OA
ENDBRANCH  21  22
ENDBRANCH  19  20
ENDBRANCH   3  19
TORSDOF 7
ENDMDL
