MODEL 1
REMARK VINA RESULT:      -7.6      0.000      0.000
REMARK  Name = NuBBE_2342
REMARK  9 active torsions:
REMARK  status: ('A' for Active; 'I' for Inactive)
REMARK    1  A    between atoms: C_1  and  O_2
REMARK    2  A    between atoms: O_2  and  C_3
REMARK    3  A    between atoms: C_10  and  C_11
REMARK    4  A    between atoms: C_15  and  C_16
REMARK    5  A    between atoms: C_16  and  C_17
REMARK    6  A    between atoms: C_19  and  O_20
REMARK    7  A    between atoms: C_21  and  O_22
REMARK    8  A    between atoms: O_22  and  C_23
REMARK    9  A    between atoms: C_26  and  C_28
REMARK                            x       y       z     vdW  Elec       q    Type
REMARK                         _______ _______ _______ _____ _____    ______ ____
ROOT
ATOM      1  C   LIG A   1      -5.563  -0.215 126.895  0.00  0.00    +0.211 C 
ATOM      2  O   LIG A   1      -5.098  -0.804 125.643  0.00  0.00    -0.483 OA
ATOM      3  C   LIG A   1      -6.216  -0.821 124.838  0.00  0.00    +0.132 A 
ATOM      4  C   LIG A   1      -6.366  -1.611 123.705  0.00  0.00    +0.043 A 
ATOM      5  C   LIG A   1      -7.627  -1.563 123.070  0.00  0.00    +0.166 A 
ATOM      6  C   LIG A   1      -8.693  -0.793 123.590  0.00  0.00    +0.162 A 
ATOM      7  C   LIG A   1      -8.482  -0.000 124.723  0.00  0.00    +0.057 A 
ATOM      8  C   LIG A   1      -7.243  -0.024 125.333  0.00  0.00    +0.005 A 
ATOM      9  C   LIG A   1      -6.792   0.669 126.572  0.00  0.00    +0.065 C 
ATOM     10  C   LIG A   1      -6.400   2.117 126.269  0.00  0.00    +0.016 C 
ENDROOT
BRANCH   1  18
ATOM     11  C   LIG A   1      -7.339  -2.974 128.959  0.00  0.00    +0.166 A 
ATOM     12  C   LIG A   1      -6.259  -3.467 129.662  0.00  0.00    +0.207 A 
ATOM     13  O   LIG A   1      -6.255  -4.478 130.574  0.00  0.00    -0.449 OA
ATOM     14  C   LIG A   1      -4.870  -4.521 130.951  0.00  0.00    +0.467 C 
ATOM     15  O   LIG A   1      -4.067  -3.526 130.290  0.00  0.00    -0.453 OA
ATOM     16  C   LIG A   1      -5.003  -2.917 129.509  0.00  0.00    +0.170 A 
ATOM     17  C   LIG A   1      -4.748  -1.864 128.651  0.00  0.00    +0.057 A 
ATOM     18  C   LIG A   1      -5.815  -1.336 127.908  0.00  0.00    +0.000 A 
ATOM     19  C   LIG A   1      -7.105  -1.896 128.093  0.00  0.00    +0.057 A 
BRANCH  11  21
ATOM     20  C   LIG A   1      -9.170  -4.009 127.880  0.00  0.00    +0.277 C 
ATOM     21  O   LIG A   1      -8.639  -3.380 129.039  0.00  0.00    -0.491 OA
ENDBRANCH  11  21
ENDBRANCH   1  18
BRANCH   5  22
ATOM     22  O   LIG A   1      -7.805  -2.269 121.910  0.00  0.00    -0.503 OA
ATOM     23  H   LIG A   1      -8.678  -2.696 121.972  0.00  0.00    +0.292 HD
ENDBRANCH   5  22
BRANCH   6  24
ATOM     24  O   LIG A   1      -9.950  -0.659 123.063  0.00  0.00    -0.491 OA
ATOM     25  C   LIG A   1     -10.268   0.581 122.445  0.00  0.00    +0.277 C 
ENDBRANCH   6  24
BRANCH   4  26
ATOM     26  C   LIG A   1      -5.264  -2.514 123.231  0.00  0.00    +0.069 C 
BRANCH  26  27
ATOM     27  C   LIG A   1      -5.210  -3.844 123.947  0.00  0.00    -0.030 C 
ATOM     28  C   LIG A   1      -4.395  -4.854 123.614  0.00  0.00    +0.004 C 
ENDBRANCH  26  27
ENDBRANCH   4  26
TORSDOF 6
ENDMDL
MODEL 2
REMARK VINA RESULT:      -7.3      8.570     11.765
REMARK  Name = NuBBE_2342
REMARK  9 active torsions:
REMARK  status: ('A' for Active; 'I' for Inactive)
REMARK    1  A    between atoms: C_1  and  O_2
REMARK    2  A    between atoms: O_2  and  C_3
REMARK    3  A    between atoms: C_10  and  C_11
REMARK    4  A    between atoms: C_15  and  C_16
REMARK    5  A    between atoms: C_16  and  C_17
REMARK    6  A    between atoms: C_19  and  O_20
REMARK    7  A    between atoms: C_21  and  O_22
REMARK    8  A    between atoms: O_22  and  C_23
REMARK    9  A    between atoms: C_26  and  C_28
REMARK                            x       y       z     vdW  Elec       q    Type
REMARK                         _______ _______ _______ _____ _____    ______ ____
ROOT
ATOM      1  C   LIG A   1      -9.245   4.081 131.131  0.00  0.00    +0.211 C 
ATOM      2  O   LIG A   1      -7.816   4.329 130.967  0.00  0.00    -0.483 OA
ATOM      3  C   LIG A   1      -7.373   4.620 132.239  0.00  0.00    +0.132 A 
ATOM      4  C   LIG A   1      -6.182   5.274 132.533  0.00  0.00    +0.043 A 
ATOM      5  C   LIG A   1      -5.952   5.572 133.895  0.00  0.00    +0.166 A 
ATOM      6  C   LIG A   1      -6.904   5.268 134.894  0.00  0.00    +0.162 A 
ATOM      7  C   LIG A   1      -8.078   4.590 134.546  0.00  0.00    +0.057 A 
ATOM      8  C   LIG A   1      -8.296   4.273 133.219  0.00  0.00    +0.005 A 
ATOM      9  C   LIG A   1      -9.480   3.623 132.590  0.00  0.00    +0.065 C 
ATOM     10  C   LIG A   1      -9.403   2.103 132.740  0.00  0.00    +0.016 C 
ENDROOT
BRANCH   1  18
ATOM     11  C   LIG A   1     -10.462   7.126 129.065  0.00  0.00    +0.166 A 
ATOM     12  C   LIG A   1     -11.502   7.548 129.867  0.00  0.00    +0.207 A 
ATOM     13  O   LIG A   1     -12.333   8.606 129.658  0.00  0.00    -0.449 OA
ATOM     14  C   LIG A   1     -13.185   8.536 130.813  0.00  0.00    +0.467 C 
ATOM     15  O   LIG A   1     -12.842   7.465 131.711  0.00  0.00    -0.453 OA
ATOM     16  C   LIG A   1     -11.792   6.902 131.050  0.00  0.00    +0.170 A 
ATOM     17  C   LIG A   1     -11.078   5.805 131.497  0.00  0.00    +0.057 A 
ATOM     18  C   LIG A   1     -10.017   5.334 130.708  0.00  0.00    +0.000 A 
ATOM     19  C   LIG A   1      -9.717   6.023 129.505  0.00  0.00    +0.057 A 
BRANCH  11  21
ATOM     20  C   LIG A   1     -10.815   7.418 126.745  0.00  0.00    +0.277 C 
ATOM     21  O   LIG A   1     -10.029   7.689 127.900  0.00  0.00    -0.491 OA
ENDBRANCH  11  21
ENDBRANCH   1  18
BRANCH   5  22
ATOM     22  O   LIG A   1      -4.763   6.154 134.247  0.00  0.00    -0.503 OA
ATOM     23  H   LIG A   1      -4.381   5.606 134.956  0.00  0.00    +0.292 HD
ENDBRANCH   5  22
BRANCH   6  24
ATOM     24  O   LIG A   1      -6.792   5.497 136.241  0.00  0.00    -0.491 OA
ATOM     25  C   LIG A   1      -7.760   6.351 136.837  0.00  0.00    +0.277 C 
ENDBRANCH   6  24
BRANCH   4  26
ATOM     26  C   LIG A   1      -5.234   5.696 131.449  0.00  0.00    +0.069 C 
BRANCH  26  27
ATOM     27  C   LIG A   1      -5.513   7.073 130.892  0.00  0.00    -0.030 C 
ATOM     28  C   LIG A   1      -4.591   7.866 130.329  0.00  0.00    +0.004 C 
ENDBRANCH  26  27
ENDBRANCH   4  26
TORSDOF 6
ENDMDL
MODEL 3
REMARK VINA RESULT:      -7.2      2.936      5.982
REMARK  Name = NuBBE_2342
REMARK  9 active torsions:
REMARK  status: ('A' for Active; 'I' for Inactive)
REMARK    1  A    between atoms: C_1  and  O_2
REMARK    2  A    between atoms: O_2  and  C_3
REMARK    3  A    between atoms: C_10  and  C_11
REMARK    4  A    between atoms: C_15  and  C_16
REMARK    5  A    between atoms: C_16  and  C_17
REMARK    6  A    between atoms: C_19  and  O_20
REMARK    7  A    between atoms: C_21  and  O_22
REMARK    8  A    between atoms: O_22  and  C_23
REMARK    9  A    between atoms: C_26  and  C_28
REMARK                            x       y       z     vdW  Elec       q    Type
REMARK                         _______ _______ _______ _____ _____    ______ ____
ROOT
ATOM      1  C   LIG A   1      -6.240  -0.768 127.939  0.00  0.00    +0.211 C 
ATOM      2  O   LIG A   1      -5.242   0.250 127.623  0.00  0.00    -0.483 OA
ATOM      3  C   LIG A   1      -5.932   1.440 127.700  0.00  0.00    +0.132 A 
ATOM      4  C   LIG A   1      -5.514   2.638 127.132  0.00  0.00    +0.043 A 
ATOM      5  C   LIG A   1      -6.410   3.725 127.234  0.00  0.00    +0.166 A 
ATOM      6  C   LIG A   1      -7.682   3.587 127.834  0.00  0.00    +0.162 A 
ATOM      7  C   LIG A   1      -8.046   2.364 128.408  0.00  0.00    +0.057 A 
ATOM      8  C   LIG A   1      -7.162   1.304 128.334  0.00  0.00    +0.005 A 
ATOM      9  C   LIG A   1      -7.336  -0.099 128.802  0.00  0.00    +0.065 C 
ATOM     10  C   LIG A   1      -7.043  -0.210 130.299  0.00  0.00    +0.016 C 
ENDROOT
BRANCH   1  18
ATOM     11  C   LIG A   1      -6.261  -2.377 124.412  0.00  0.00    +0.166 A 
ATOM     12  C   LIG A   1      -7.604  -2.671 124.301  0.00  0.00    +0.207 A 
ATOM     13  O   LIG A   1      -8.239  -3.263 123.252  0.00  0.00    -0.449 OA
ATOM     14  C   LIG A   1      -9.598  -3.293 123.717  0.00  0.00    +0.467 C 
ATOM     15  O   LIG A   1      -9.770  -2.697 125.016  0.00  0.00    -0.453 OA
ATOM     16  C   LIG A   1      -8.488  -2.339 125.306  0.00  0.00    +0.170 A 
ATOM     17  C   LIG A   1      -8.091  -1.710 126.473  0.00  0.00    +0.057 A 
ATOM     18  C   LIG A   1      -6.732  -1.401 126.634  0.00  0.00    +0.000 A 
ATOM     19  C   LIG A   1      -5.839  -1.727 125.581  0.00  0.00    +0.057 A 
BRANCH  11  21
ATOM     20  C   LIG A   1      -4.564  -3.820 123.621  0.00  0.00    +0.277 C 
ATOM     21  O   LIG A   1      -5.281  -2.599 123.489  0.00  0.00    -0.491 OA
ENDBRANCH  11  21
ENDBRANCH   1  18
BRANCH   5  22
ATOM     22  O   LIG A   1      -6.018   4.946 126.752  0.00  0.00    -0.503 OA
ATOM     23  H   LIG A   1      -5.045   4.939 126.728  0.00  0.00    +0.292 HD
ENDBRANCH   5  22
BRANCH   6  24
ATOM     24  O   LIG A   1      -8.630   4.563 127.999  0.00  0.00    -0.491 OA
ATOM     25  C   LIG A   1      -8.828   5.060 129.317  0.00  0.00    +0.277 C 
ENDBRANCH   6  24
BRANCH   4  26
ATOM     26  C   LIG A   1      -4.210   2.740 126.395  0.00  0.00    +0.069 C 
BRANCH  26  27
ATOM     27  C   LIG A   1      -3.023   3.030 127.284  0.00  0.00    -0.030 C 
ATOM     28  C   LIG A   1      -1.755   3.105 126.859  0.00  0.00    +0.004 C 
ENDBRANCH  26  27
ENDBRANCH   4  26
TORSDOF 6
ENDMDL
MODEL 4
REMARK VINA RESULT:      -7.1      1.646      2.202
REMARK  Name = NuBBE_2342
REMARK  9 active torsions:
REMARK  status: ('A' for Active; 'I' for Inactive)
REMARK    1  A    between atoms: C_1  and  O_2
REMARK    2  A    between atoms: O_2  and  C_3
REMARK    3  A    between atoms: C_10  and  C_11
REMARK    4  A    between atoms: C_15  and  C_16
REMARK    5  A    between atoms: C_16  and  C_17
REMARK    6  A    between atoms: C_19  and  O_20
REMARK    7  A    between atoms: C_21  and  O_22
REMARK    8  A    between atoms: O_22  and  C_23
REMARK    9  A    between atoms: C_26  and  C_28
REMARK                            x       y       z     vdW  Elec       q    Type
REMARK                         _______ _______ _______ _____ _____    ______ ____
ROOT
ATOM      1  C   LIG A   1      -5.639  -0.208 126.950  0.00  0.00    +0.211 C 
ATOM      2  O   LIG A   1      -5.439  -1.298 126.000  0.00  0.00    -0.483 OA
ATOM      3  C   LIG A   1      -6.523  -1.216 125.153  0.00  0.00    +0.132 A 
ATOM      4  C   LIG A   1      -6.964  -2.243 124.327  0.00  0.00    +0.043 A 
ATOM      5  C   LIG A   1      -8.155  -1.999 123.607  0.00  0.00    +0.166 A 
ATOM      6  C   LIG A   1      -8.883  -0.797 123.759  0.00  0.00    +0.162 A 
ATOM      7  C   LIG A   1      -8.383   0.213 124.587  0.00  0.00    +0.057 A 
ATOM      8  C   LIG A   1      -7.205  -0.010 125.274  0.00  0.00    +0.005 A 
ATOM      9  C   LIG A   1      -6.509   0.868 126.256  0.00  0.00    +0.065 C 
ATOM     10  C   LIG A   1      -5.664   1.919 125.535  0.00  0.00    +0.016 C 
ENDROOT
BRANCH   1  18
ATOM     11  C   LIG A   1      -6.612  -2.697 129.758  0.00  0.00    +0.166 A 
ATOM     12  C   LIG A   1      -7.168  -1.817 130.663  0.00  0.00    +0.207 A 
ATOM     13  O   LIG A   1      -7.703  -2.109 131.881  0.00  0.00    -0.449 OA
ATOM     14  C   LIG A   1      -8.112  -0.808 132.335  0.00  0.00    +0.467 C 
ATOM     15  O   LIG A   1      -7.847   0.238 131.383  0.00  0.00    -0.453 OA
ATOM     16  C   LIG A   1      -7.262  -0.471 130.378  0.00  0.00    +0.170 A 
ATOM     17  C   LIG A   1      -6.804   0.075 129.192  0.00  0.00    +0.057 A 
ATOM     18  C   LIG A   1      -6.221  -0.781 128.245  0.00  0.00    +0.000 A 
ATOM     19  C   LIG A   1      -6.153  -2.166 128.544  0.00  0.00    +0.057 A 
BRANCH  11  21
ATOM     20  C   LIG A   1      -5.362  -4.517 130.602  0.00  0.00    +0.277 C 
ATOM     21  O   LIG A   1      -6.494  -4.051 129.879  0.00  0.00    -0.491 OA
ENDBRANCH  11  21
ENDBRANCH   1  18
BRANCH   5  22
ATOM     22  O   LIG A   1      -8.597  -2.952 122.727  0.00  0.00    -0.503 OA
ATOM     23  H   LIG A   1      -8.148  -3.782 122.963  0.00  0.00    +0.292 HD
ENDBRANCH   5  22
BRANCH   6  24
ATOM     24  O   LIG A   1     -10.039  -0.443 123.113  0.00  0.00    -0.491 OA
ATOM     25  C   LIG A   1     -10.149   0.903 122.668  0.00  0.00    +0.277 C 
ENDBRANCH   6  24
BRANCH   4  26
ATOM     26  C   LIG A   1      -6.246  -3.559 124.265  0.00  0.00    +0.069 C 
BRANCH  26  27
ATOM     27  C   LIG A   1      -4.923  -3.502 123.538  0.00  0.00    -0.030 C 
ATOM     28  C   LIG A   1      -4.014  -4.487 123.533  0.00  0.00    +0.004 C 
ENDBRANCH  26  27
ENDBRANCH   4  26
TORSDOF 6
ENDMDL
MODEL 5
REMARK VINA RESULT:      -7.0      3.987      5.870
REMARK  Name = NuBBE_2342
REMARK  9 active torsions:
REMARK  status: ('A' for Active; 'I' for Inactive)
REMARK    1  A    between atoms: C_1  and  O_2
REMARK    2  A    between atoms: O_2  and  C_3
REMARK    3  A    between atoms: C_10  and  C_11
REMARK    4  A    between atoms: C_15  and  C_16
REMARK    5  A    between atoms: C_16  and  C_17
REMARK    6  A    between atoms: C_19  and  O_20
REMARK    7  A    between atoms: C_21  and  O_22
REMARK    8  A    between atoms: O_22  and  C_23
REMARK    9  A    between atoms: C_26  and  C_28
REMARK                            x       y       z     vdW  Elec       q    Type
REMARK                         _______ _______ _______ _____ _____    ______ ____
ROOT
ATOM      1  C   LIG A   1      -6.339   0.688 128.692  0.00  0.00    +0.211 C 
ATOM      2  O   LIG A   1      -6.283  -0.686 129.181  0.00  0.00    -0.483 OA
ATOM      3  C   LIG A   1      -7.101  -1.388 128.323  0.00  0.00    +0.132 A 
ATOM      4  C   LIG A   1      -7.651  -2.635 128.593  0.00  0.00    +0.043 A 
ATOM      5  C   LIG A   1      -8.548  -3.146 127.628  0.00  0.00    +0.166 A 
ATOM      6  C   LIG A   1      -8.904  -2.406 126.478  0.00  0.00    +0.162 A 
ATOM      7  C   LIG A   1      -8.305  -1.163 126.244  0.00  0.00    +0.057 A 
ATOM      8  C   LIG A   1      -7.408  -0.670 127.172  0.00  0.00    +0.005 A 
ATOM      9  C   LIG A   1      -6.695   0.638 127.187  0.00  0.00    +0.065 C 
ATOM     10  C   LIG A   1      -5.451   0.585 126.299  0.00  0.00    +0.016 C 
ENDROOT
BRANCH   1  18
ATOM     11  C   LIG A   1      -8.176   2.105 131.798  0.00  0.00    +0.166 A 
ATOM     12  C   LIG A   1      -8.995   3.027 131.181  0.00  0.00    +0.207 A 
ATOM     13  O   LIG A   1      -9.897   3.859 131.770  0.00  0.00    -0.449 OA
ATOM     14  C   LIG A   1     -10.429   4.559 130.633  0.00  0.00    +0.467 C 
ATOM     15  O   LIG A   1      -9.869   4.123 129.381  0.00  0.00    -0.453 OA
ATOM     16  C   LIG A   1      -8.989   3.175 129.810  0.00  0.00    +0.170 A 
ATOM     17  C   LIG A   1      -8.170   2.430 128.981  0.00  0.00    +0.057 A 
ATOM     18  C   LIG A   1      -7.312   1.486 129.566  0.00  0.00    +0.000 A 
ATOM     19  C   LIG A   1      -7.347   1.329 130.976  0.00  0.00    +0.057 A 
BRANCH  11  21
ATOM     20  C   LIG A   1      -6.979   2.334 133.824  0.00  0.00    +0.277 C 
ATOM     21  O   LIG A   1      -8.106   1.814 133.129  0.00  0.00    -0.491 OA
ENDBRANCH  11  21
ENDBRANCH   1  18
BRANCH   5  22
ATOM     22  O   LIG A   1      -9.064  -4.401 127.812  0.00  0.00    -0.503 OA
ATOM     23  H   LIG A   1     -10.025  -4.333 127.674  0.00  0.00    +0.292 HD
ENDBRANCH   5  22
BRANCH   6  24
ATOM     24  O   LIG A   1      -9.749  -2.796 125.472  0.00  0.00    -0.491 OA
ATOM     25  C   LIG A   1      -9.156  -3.292 124.279  0.00  0.00    +0.277 C 
ENDBRANCH   6  24
BRANCH   4  26
ATOM     26  C   LIG A   1      -7.355  -3.358 129.875  0.00  0.00    +0.069 C 
BRANCH  26  27
ATOM     27  C   LIG A   1      -5.972  -3.963 129.933  0.00  0.00    -0.030 C 
ATOM     28  C   LIG A   1      -5.615  -4.969 130.743  0.00  0.00    +0.004 C 
ENDBRANCH  26  27
ENDBRANCH   4  26
TORSDOF 6
ENDMDL
MODEL 6
REMARK VINA RESULT:      -7.0      2.882      5.574
REMARK  Name = NuBBE_2342
REMARK  9 active torsions:
REMARK  status: ('A' for Active; 'I' for Inactive)
REMARK    1  A    between atoms: C_1  and  O_2
REMARK    2  A    between atoms: O_2  and  C_3
REMARK    3  A    between atoms: C_10  and  C_11
REMARK    4  A    between atoms: C_15  and  C_16
REMARK    5  A    between atoms: C_16  and  C_17
REMARK    6  A    between atoms: C_19  and  O_20
REMARK    7  A    between atoms: C_21  and  O_22
REMARK    8  A    between atoms: O_22  and  C_23
REMARK    9  A    between atoms: C_26  and  C_28
REMARK                            x       y       z     vdW  Elec       q    Type
REMARK                         _______ _______ _______ _____ _____    ______ ____
ROOT
ATOM      1  C   LIG A   1      -5.633   0.238 126.715  0.00  0.00    +0.211 C 
ATOM      2  O   LIG A   1      -5.434   1.274 125.707  0.00  0.00    -0.483 OA
ATOM      3  C   LIG A   1      -6.184   2.338 126.157  0.00  0.00    +0.132 A 
ATOM      4  C   LIG A   1      -6.602   3.404 125.370  0.00  0.00    +0.043 A 
ATOM      5  C   LIG A   1      -7.451   4.347 125.992  0.00  0.00    +0.166 A 
ATOM      6  C   LIG A   1      -7.891   4.186 127.326  0.00  0.00    +0.162 A 
ATOM      7  C   LIG A   1      -7.423   3.105 128.081  0.00  0.00    +0.057 A 
ATOM      8  C   LIG A   1      -6.572   2.194 127.485  0.00  0.00    +0.005 A 
ATOM      9  C   LIG A   1      -5.995   0.940 128.046  0.00  0.00    +0.065 C 
ATOM     10  C   LIG A   1      -4.761   1.246 128.894  0.00  0.00    +0.016 C 
ENDROOT
BRANCH   1  18
ATOM     11  C   LIG A   1      -8.366  -2.510 126.633  0.00  0.00    +0.166 A 
ATOM     12  C   LIG A   1      -8.663  -2.500 125.286  0.00  0.00    +0.207 A 
ATOM     13  O   LIG A   1      -9.574  -3.272 124.633  0.00  0.00    -0.449 OA
ATOM     14  C   LIG A   1      -9.422  -2.814 123.279  0.00  0.00    +0.467 C 
ATOM     15  O   LIG A   1      -8.410  -1.802 123.130  0.00  0.00    -0.453 OA
ATOM     16  C   LIG A   1      -7.991  -1.665 124.419  0.00  0.00    +0.170 A 
ATOM     17  C   LIG A   1      -7.002  -0.793 124.836  0.00  0.00    +0.057 A 
ATOM     18  C   LIG A   1      -6.673  -0.761 126.200  0.00  0.00    +0.000 A 
ATOM     19  C   LIG A   1      -7.357  -1.643 127.076  0.00  0.00    +0.057 A 
BRANCH  11  21
ATOM     20  C   LIG A   1      -8.265  -3.277 128.867  0.00  0.00    +0.277 C 
ATOM     21  O   LIG A   1      -8.908  -3.307 127.599  0.00  0.00    -0.491 OA
ENDBRANCH  11  21
ENDBRANCH   1  18
BRANCH   5  22
ATOM     22  O   LIG A   1      -7.836   5.453 125.281  0.00  0.00    -0.503 OA
ATOM     23  H   LIG A   1      -7.487   5.343 124.379  0.00  0.00    +0.292 HD
ENDBRANCH   5  22
BRANCH   6  24
ATOM     24  O   LIG A   1      -8.701   5.031 128.038  0.00  0.00    -0.491 OA
ATOM     25  C   LIG A   1      -8.608   4.980 129.455  0.00  0.00    +0.277 C 
ENDBRANCH   6  24
BRANCH   4  26
ATOM     26  C   LIG A   1      -6.223   3.501 123.920  0.00  0.00    +0.069 C 
BRANCH  26  27
ATOM     27  C   LIG A   1      -7.072   2.648 123.006  0.00  0.00    -0.030 C 
ATOM     28  C   LIG A   1      -8.167   3.079 122.365  0.00  0.00    +0.004 C 
ENDBRANCH  26  27
ENDBRANCH   4  26
TORSDOF 6
ENDMDL
MODEL 7
REMARK VINA RESULT:      -7.0      3.322      6.593
REMARK  Name = NuBBE_2342
REMARK  9 active torsions:
REMARK  status: ('A' for Active; 'I' for Inactive)
REMARK    1  A    between atoms: C_1  and  O_2
REMARK    2  A    between atoms: O_2  and  C_3
REMARK    3  A    between atoms: C_10  and  C_11
REMARK    4  A    between atoms: C_15  and  C_16
REMARK    5  A    between atoms: C_16  and  C_17
REMARK    6  A    between atoms: C_19  and  O_20
REMARK    7  A    between atoms: C_21  and  O_22
REMARK    8  A    between atoms: O_22  and  C_23
REMARK    9  A    between atoms: C_26  and  C_28
REMARK                            x       y       z     vdW  Elec       q    Type
REMARK                         _______ _______ _______ _____ _____    ______ ____
ROOT
ATOM      1  C   LIG A   1      -7.481   2.401 124.367  0.00  0.00    +0.211 C 
ATOM      2  O   LIG A   1      -7.904   2.879 125.680  0.00  0.00    -0.483 OA
ATOM      3  C   LIG A   1      -6.730   3.016 126.387  0.00  0.00    +0.132 A 
ATOM      4  C   LIG A   1      -6.642   3.087 127.772  0.00  0.00    +0.043 A 
ATOM      5  C   LIG A   1      -5.338   3.123 128.316  0.00  0.00    +0.166 A 
ATOM      6  C   LIG A   1      -4.189   3.040 127.498  0.00  0.00    +0.162 A 
ATOM      7  C   LIG A   1      -4.333   2.990 126.107  0.00  0.00    +0.057 A 
ATOM      8  C   LIG A   1      -5.606   2.980 125.569  0.00  0.00    +0.005 A 
ATOM      9  C   LIG A   1      -6.023   2.866 124.143  0.00  0.00    +0.065 C 
ATOM     10  C   LIG A   1      -5.948   4.227 123.449  0.00  0.00    +0.016 C 
ENDROOT
BRANCH   1  18
ATOM     11  C   LIG A   1      -7.021  -1.343 123.476  0.00  0.00    +0.166 A 
ATOM     12  C   LIG A   1      -8.015  -1.891 124.260  0.00  0.00    +0.207 A 
ATOM     13  O   LIG A   1      -8.350  -3.206 124.375  0.00  0.00    -0.449 OA
ATOM     14  C   LIG A   1      -9.437  -3.145 125.313  0.00  0.00    +0.467 C 
ATOM     15  O   LIG A   1      -9.761  -1.805 125.726  0.00  0.00    -0.453 OA
ATOM     16  C   LIG A   1      -8.833  -1.090 125.029  0.00  0.00    +0.170 A 
ATOM     17  C   LIG A   1      -8.706   0.286 125.071  0.00  0.00    +0.057 A 
ATOM     18  C   LIG A   1      -7.701   0.887 124.297  0.00  0.00    +0.000 A 
ATOM     19  C   LIG A   1      -6.883   0.052 123.493  0.00  0.00    +0.057 A 
BRANCH  11  21
ATOM     20  C   LIG A   1      -5.173  -2.800 123.251  0.00  0.00    +0.277 C 
ATOM     21  O   LIG A   1      -6.171  -1.998 122.633  0.00  0.00    -0.491 OA
ENDBRANCH  11  21
ENDBRANCH   1  18
BRANCH   5  22
ATOM     22  O   LIG A   1      -5.196   3.263 129.671  0.00  0.00    -0.503 OA
ATOM     23  H   LIG A   1      -4.953   4.191 129.834  0.00  0.00    +0.292 HD
ENDBRANCH   5  22
BRANCH   6  24
ATOM     24  O   LIG A   1      -2.880   3.074 127.904  0.00  0.00    -0.491 OA
ATOM     25  C   LIG A   1      -1.885   3.112 126.889  0.00  0.00    +0.277 C 
ENDBRANCH   6  24
BRANCH   4  26
ATOM     26  C   LIG A   1      -7.870   3.057 128.636  0.00  0.00    +0.069 C 
BRANCH  26  27
ATOM     27  C   LIG A   1      -8.493   1.687 128.767  0.00  0.00    -0.030 C 
ATOM     28  C   LIG A   1      -7.802   0.548 128.915  0.00  0.00    +0.004 C 
ENDBRANCH  26  27
ENDBRANCH   4  26
TORSDOF 6
ENDMDL
MODEL 8
REMARK VINA RESULT:      -6.9      1.820      2.171
REMARK  Name = NuBBE_2342
REMARK  9 active torsions:
REMARK  status: ('A' for Active; 'I' for Inactive)
REMARK    1  A    between atoms: C_1  and  O_2
REMARK    2  A    between atoms: O_2  and  C_3
REMARK    3  A    between atoms: C_10  and  C_11
REMARK    4  A    between atoms: C_15  and  C_16
REMARK    5  A    between atoms: C_16  and  C_17
REMARK    6  A    between atoms: C_19  and  O_20
REMARK    7  A    between atoms: C_21  and  O_22
REMARK    8  A    between atoms: O_22  and  C_23
REMARK    9  A    between atoms: C_26  and  C_28
REMARK                            x       y       z     vdW  Elec       q    Type
REMARK                         _______ _______ _______ _____ _____    ______ ____
ROOT
ATOM      1  C   LIG A   1      -5.551   0.247 126.899  0.00  0.00    +0.211 C 
ATOM      2  O   LIG A   1      -5.325  -0.892 126.015  0.00  0.00    -0.483 OA
ATOM      3  C   LIG A   1      -6.394  -0.866 125.146  0.00  0.00    +0.132 A 
ATOM      4  C   LIG A   1      -6.812  -1.941 124.371  0.00  0.00    +0.043 A 
ATOM      5  C   LIG A   1      -7.992  -1.749 123.618  0.00  0.00    +0.166 A 
ATOM      6  C   LIG A   1      -8.732  -0.547 123.689  0.00  0.00    +0.162 A 
ATOM      7  C   LIG A   1      -8.255   0.512 124.469  0.00  0.00    +0.057 A 
ATOM      8  C   LIG A   1      -7.088   0.338 125.188  0.00  0.00    +0.005 A 
ATOM      9  C   LIG A   1      -6.416   1.275 126.131  0.00  0.00    +0.065 C 
ATOM     10  C   LIG A   1      -5.567   2.293 125.368  0.00  0.00    +0.016 C 
ENDROOT
BRANCH   1  18
ATOM     11  C   LIG A   1      -7.756  -0.002 130.078  0.00  0.00    +0.166 A 
ATOM     12  C   LIG A   1      -7.343  -1.231 130.549  0.00  0.00    +0.207 A 
ATOM     13  O   LIG A   1      -7.773  -1.877 131.667  0.00  0.00    -0.449 OA
ATOM     14  C   LIG A   1      -6.989  -3.080 131.625  0.00  0.00    +0.467 C 
ATOM     15  O   LIG A   1      -6.083  -3.132 130.508  0.00  0.00    -0.453 OA
ATOM     16  C   LIG A   1      -6.367  -1.950 129.892  0.00  0.00    +0.170 A 
ATOM     17  C   LIG A   1      -5.757  -1.499 128.736  0.00  0.00    +0.057 A 
ATOM     18  C   LIG A   1      -6.152  -0.258 128.214  0.00  0.00    +0.000 A 
ATOM     19  C   LIG A   1      -7.140   0.481 128.914  0.00  0.00    +0.057 A 
BRANCH  11  21
ATOM     20  C   LIG A   1      -8.438   2.231 130.450  0.00  0.00    +0.277 C 
ATOM     21  O   LIG A   1      -8.670   0.841 130.640  0.00  0.00    -0.491 OA
ENDBRANCH  11  21
ENDBRANCH   1  18
BRANCH   5  22
ATOM     22  O   LIG A   1      -8.410  -2.753 122.784  0.00  0.00    -0.503 OA
ATOM     23  H   LIG A   1      -7.833  -3.518 122.955  0.00  0.00    +0.292 HD
ENDBRANCH   5  22
BRANCH   6  24
ATOM     24  O   LIG A   1      -9.879  -0.239 123.004  0.00  0.00    -0.491 OA
ATOM     25  C   LIG A   1     -10.083   1.124 122.657  0.00  0.00    +0.277 C 
ENDBRANCH   6  24
BRANCH   4  26
ATOM     26  C   LIG A   1      -6.082  -3.253 124.395  0.00  0.00    +0.069 C 
BRANCH  26  27
ATOM     27  C   LIG A   1      -4.870  -3.296 123.494  0.00  0.00    -0.030 C 
ATOM     28  C   LIG A   1      -4.025  -4.333 123.405  0.00  0.00    +0.004 C 
ENDBRANCH  26  27
ENDBRANCH   4  26
TORSDOF 6
ENDMDL
MODEL 9
REMARK VINA RESULT:      -6.9      2.936      5.347
REMARK  Name = NuBBE_2342
REMARK  9 active torsions:
REMARK  status: ('A' for Active; 'I' for Inactive)
REMARK    1  A    between atoms: C_1  and  O_2
REMARK    2  A    between atoms: O_2  and  C_3
REMARK    3  A    between atoms: C_10  and  C_11
REMARK    4  A    between atoms: C_15  and  C_16
REMARK    5  A    between atoms: C_16  and  C_17
REMARK    6  A    between atoms: C_19  and  O_20
REMARK    7  A    between atoms: C_21  and  O_22
REMARK    8  A    between atoms: O_22  and  C_23
REMARK    9  A    between atoms: C_26  and  C_28
REMARK                            x       y       z     vdW  Elec       q    Type
REMARK                         _______ _______ _______ _____ _____    ______ ____
ROOT
ATOM      1  C   LIG A   1      -8.936   0.567 125.130  0.00  0.00    +0.211 C 
ATOM      2  O   LIG A   1      -9.014   1.860 125.802  0.00  0.00    -0.483 OA
ATOM      3  C   LIG A   1      -8.199   2.682 125.056  0.00  0.00    +0.132 A 
ATOM      4  C   LIG A   1      -7.667   3.887 125.500  0.00  0.00    +0.043 A 
ATOM      5  C   LIG A   1      -6.770   4.537 124.623  0.00  0.00    +0.166 A 
ATOM      6  C   LIG A   1      -6.395   3.966 123.385  0.00  0.00    +0.162 A 
ATOM      7  C   LIG A   1      -6.976   2.760 122.977  0.00  0.00    +0.057 A 
ATOM      8  C   LIG A   1      -7.873   2.134 123.820  0.00  0.00    +0.005 A 
ATOM      9  C   LIG A   1      -8.569   0.827 123.649  0.00  0.00    +0.065 C 
ATOM     10  C   LIG A   1      -9.807   0.987 122.765  0.00  0.00    +0.016 C 
ENDROOT
BRANCH   1  18
ATOM     11  C   LIG A   1      -6.112  -1.972 125.904  0.00  0.00    +0.166 A 
ATOM     12  C   LIG A   1      -6.091  -1.882 127.280  0.00  0.00    +0.207 A 
ATOM     13  O   LIG A   1      -5.283  -2.557 128.143  0.00  0.00    -0.449 OA
ATOM     14  C   LIG A   1      -5.729  -2.052 129.412  0.00  0.00    +0.467 C 
ATOM     15  O   LIG A   1      -6.811  -1.109 129.302  0.00  0.00    -0.453 OA
ATOM     16  C   LIG A   1      -6.972  -1.059 127.949  0.00  0.00    +0.170 A 
ATOM     17  C   LIG A   1      -7.909  -0.279 127.297  0.00  0.00    +0.057 A 
ATOM     18  C   LIG A   1      -7.960  -0.331 125.896  0.00  0.00    +0.000 A 
ATOM     19  C   LIG A   1      -7.063  -1.200 125.223  0.00  0.00    +0.057 A 
BRANCH  11  21
ATOM     20  C   LIG A   1      -5.812  -2.978 123.785  0.00  0.00    +0.277 C 
ATOM     21  O   LIG A   1      -5.340  -2.771 125.111  0.00  0.00    -0.491 OA
ENDBRANCH  11  21
ENDBRANCH   1  18
BRANCH   5  22
ATOM     22  O   LIG A   1      -6.270   5.761 124.982  0.00  0.00    -0.503 OA
ATOM     23  H   LIG A   1      -6.705   6.007 125.818  0.00  0.00    +0.292 HD
ENDBRANCH   5  22
BRANCH   6  24
ATOM     24  O   LIG A   1      -5.546   4.500 122.450  0.00  0.00    -0.491 OA
ATOM     25  C   LIG A   1      -5.433   3.815 121.209  0.00  0.00    +0.277 C 
ENDBRANCH   6  24
BRANCH   4  26
ATOM     26  C   LIG A   1      -7.982   4.425 126.866  0.00  0.00    +0.069 C 
BRANCH  26  27
ATOM     27  C   LIG A   1      -7.099   3.873 127.961  0.00  0.00    -0.030 C 
ATOM     28  C   LIG A   1      -7.498   2.992 128.888  0.00  0.00    +0.004 C 
ENDBRANCH  26  27
ENDBRANCH   4  26
TORSDOF 6
ENDMDL
