MODEL 1
REMARK VINA RESULT:      -7.2      0.000      0.000
REMARK  Name = NuBBE_865
REMARK  9 active torsions:
REMARK  status: ('A' for Active; 'I' for Inactive)
REMARK    1  A    between atoms: O_1  and  C_2
REMARK    2  A    between atoms: O_1  and  C_3
REMARK    3  A    between atoms: C_9  and  C_10
REMARK    4  A    between atoms: C_9  and  C_11
REMARK    5  A    between atoms: C_14  and  O_16
REMARK    6  A    between atoms: O_16  and  C_17
REMARK    7  A    between atoms: C_19  and  O_23
REMARK    8  A    between atoms: C_20  and  C_22
REMARK    9  A    between atoms: O_23  and  C_24
REMARK                            x       y       z     vdW  Elec       q    Type
REMARK                         _______ _______ _______ _____ _____    ______ ____
ROOT
ATOM      1  C   LIG A   1      -7.319   5.641 133.870  0.00  0.00    +0.128 A 
ATOM      2  C   LIG A   1      -8.063   6.039 132.741  0.00  0.00    +0.025 A 
ATOM      3  C   LIG A   1      -7.390   6.483 131.572  0.00  0.00    -0.003 A 
ATOM      4  C   LIG A   1      -5.953   6.542 131.575  0.00  0.00    -0.009 A 
ATOM      5  C   LIG A   1      -5.226   6.116 132.700  0.00  0.00    -0.023 A 
ATOM      6  C   LIG A   1      -5.928   5.691 133.841  0.00  0.00    +0.051 A 
ATOM      7  C   LIG A   1      -3.696   6.110 132.726  0.00  0.00    +0.057 C 
ATOM      8  C   LIG A   1      -3.192   7.134 133.762  0.00  0.00    +0.024 C 
ATOM      9  C   LIG A   1      -3.186   4.696 133.085  0.00  0.00    +0.024 C 
ATOM     10  C   LIG A   1      -3.030   6.479 131.395  0.00  0.00    +0.207 C 
ATOM     11  O   LIG A   1      -1.821   6.316 131.236  0.00  0.00    -0.288 OA
ATOM     12  C   LIG A   1      -3.862   7.087 130.310  0.00  0.00    +0.164 C 
ATOM     13  C   LIG A   1      -5.193   7.085 130.435  0.00  0.00    +0.058 C 
ATOM     14  C   LIG A   1      -8.204   6.823 130.456  0.00  0.00    +0.055 A 
ATOM     15  C   LIG A   1      -9.605   6.767 130.481  0.00  0.00    +0.124 A 
ATOM     16  C   LIG A   1     -10.252   6.352 131.643  0.00  0.00    -0.008 A 
ATOM     17  C   LIG A   1      -9.475   5.985 132.749  0.00  0.00    +0.019 A 
ATOM     18  C   LIG A   1     -11.747   6.226 131.730  0.00  0.00    +0.048 C 
ENDROOT
BRANCH   1  19
ATOM     19  O   LIG A   1      -8.021   5.268 134.995  0.00  0.00    -0.494 OA
ATOM     20  C   LIG A   1      -7.615   5.867 136.221  0.00  0.00    +0.277 C 
ENDBRANCH   1  19
BRANCH  12  21
ATOM     21  O   LIG A   1      -3.319   7.614 129.143  0.00  0.00    -0.492 OA
ATOM     22  C   LIG A   1      -3.303   6.754 128.009  0.00  0.00    +0.277 C 
ENDBRANCH  12  21
BRANCH  15  23
ATOM     23  O   LIG A   1     -10.398   7.033 129.395  0.00  0.00    -0.495 OA
ATOM     24  C   LIG A   1     -10.228   8.309 128.788  0.00  0.00    +0.277 C 
ENDBRANCH  15  23
TORSDOF 3
ENDMDL
MODEL 2
REMARK VINA RESULT:      -6.9      8.079      9.194
REMARK  Name = NuBBE_865
REMARK  9 active torsions:
REMARK  status: ('A' for Active; 'I' for Inactive)
REMARK    1  A    between atoms: O_1  and  C_2
REMARK    2  A    between atoms: O_1  and  C_3
REMARK    3  A    between atoms: C_9  and  C_10
REMARK    4  A    between atoms: C_9  and  C_11
REMARK    5  A    between atoms: C_14  and  O_16
REMARK    6  A    between atoms: O_16  and  C_17
REMARK    7  A    between atoms: C_19  and  O_23
REMARK    8  A    between atoms: C_20  and  C_22
REMARK    9  A    between atoms: O_23  and  C_24
REMARK                            x       y       z     vdW  Elec       q    Type
REMARK                         _______ _______ _______ _____ _____    ______ ____
ROOT
ATOM      1  C   LIG A   1      -6.706   0.802 127.659  0.00  0.00    +0.128 A 
ATOM      2  C   LIG A   1      -7.417  -0.108 126.852  0.00  0.00    +0.025 A 
ATOM      3  C   LIG A   1      -7.641   0.190 125.481  0.00  0.00    -0.003 A 
ATOM      4  C   LIG A   1      -7.156   1.435 124.950  0.00  0.00    -0.009 A 
ATOM      5  C   LIG A   1      -6.426   2.319 125.763  0.00  0.00    -0.023 A 
ATOM      6  C   LIG A   1      -6.232   1.993 127.116  0.00  0.00    +0.051 A 
ATOM      7  C   LIG A   1      -5.845   3.629 125.225  0.00  0.00    +0.057 C 
ATOM      8  C   LIG A   1      -6.545   4.823 125.903  0.00  0.00    +0.024 C 
ATOM      9  C   LIG A   1      -4.325   3.677 125.500  0.00  0.00    +0.024 C 
ATOM     10  C   LIG A   1      -6.012   3.832 123.714  0.00  0.00    +0.207 C 
ATOM     11  O   LIG A   1      -5.416   4.741 123.137  0.00  0.00    -0.288 OA
ATOM     12  C   LIG A   1      -6.948   2.940 122.959  0.00  0.00    +0.164 C 
ATOM     13  C   LIG A   1      -7.438   1.854 123.566  0.00  0.00    +0.058 C 
ATOM     14  C   LIG A   1      -8.325  -0.796 124.716  0.00  0.00    +0.055 A 
ATOM     15  C   LIG A   1      -8.797  -2.000 125.259  0.00  0.00    +0.124 A 
ATOM     16  C   LIG A   1      -8.590  -2.267 126.612  0.00  0.00    -0.008 A 
ATOM     17  C   LIG A   1      -7.896  -1.326 127.383  0.00  0.00    +0.019 A 
ATOM     18  C   LIG A   1      -9.030  -3.553 127.254  0.00  0.00    +0.048 C 
ENDROOT
BRANCH   1  19
ATOM     19  O   LIG A   1      -6.561   0.490 128.992  0.00  0.00    -0.494 OA
ATOM     20  C   LIG A   1      -5.323   0.852 129.596  0.00  0.00    +0.277 C 
ENDBRANCH   1  19
BRANCH  12  21
ATOM     21  O   LIG A   1      -7.298   3.159 121.632  0.00  0.00    -0.492 OA
ATOM     22  C   LIG A   1      -8.670   3.446 121.379  0.00  0.00    +0.277 C 
ENDBRANCH  12  21
BRANCH  15  23
ATOM     23  O   LIG A   1      -9.402  -2.983 124.521  0.00  0.00    -0.495 OA
ATOM     24  C   LIG A   1      -9.251  -2.895 123.109  0.00  0.00    +0.277 C 
ENDBRANCH  15  23
TORSDOF 3
ENDMDL
MODEL 3
REMARK VINA RESULT:      -6.8      8.229      9.557
REMARK  Name = NuBBE_865
REMARK  9 active torsions:
REMARK  status: ('A' for Active; 'I' for Inactive)
REMARK    1  A    between atoms: O_1  and  C_2
REMARK    2  A    between atoms: O_1  and  C_3
REMARK    3  A    between atoms: C_9  and  C_10
REMARK    4  A    between atoms: C_9  and  C_11
REMARK    5  A    between atoms: C_14  and  O_16
REMARK    6  A    between atoms: O_16  and  C_17
REMARK    7  A    between atoms: C_19  and  O_23
REMARK    8  A    between atoms: C_20  and  C_22
REMARK    9  A    between atoms: O_23  and  C_24
REMARK                            x       y       z     vdW  Elec       q    Type
REMARK                         _______ _______ _______ _____ _____    ______ ____
ROOT
ATOM      1  C   LIG A   1      -7.711  -1.500 125.218  0.00  0.00    +0.128 A 
ATOM      2  C   LIG A   1      -8.018  -0.124 125.213  0.00  0.00    +0.025 A 
ATOM      3  C   LIG A   1      -8.086   0.588 126.440  0.00  0.00    -0.003 A 
ATOM      4  C   LIG A   1      -7.864  -0.121 127.671  0.00  0.00    -0.009 A 
ATOM      5  C   LIG A   1      -7.533  -1.487 127.656  0.00  0.00    -0.023 A 
ATOM      6  C   LIG A   1      -7.483  -2.159 126.422  0.00  0.00    +0.051 A 
ATOM      7  C   LIG A   1      -7.236  -2.267 128.938  0.00  0.00    +0.057 C 
ATOM      8  C   LIG A   1      -8.324  -3.336 129.158  0.00  0.00    +0.024 C 
ATOM      9  C   LIG A   1      -5.847  -2.937 128.831  0.00  0.00    +0.024 C 
ATOM     10  C   LIG A   1      -7.202  -1.417 130.213  0.00  0.00    +0.207 C 
ATOM     11  O   LIG A   1      -6.780  -1.889 131.268  0.00  0.00    -0.288 OA
ATOM     12  C   LIG A   1      -7.736  -0.019 130.170  0.00  0.00    +0.164 C 
ATOM     13  C   LIG A   1      -8.017   0.530 128.984  0.00  0.00    +0.058 C 
ATOM     14  C   LIG A   1      -8.354   1.983 126.355  0.00  0.00    +0.055 A 
ATOM     15  C   LIG A   1      -8.576   2.651 125.142  0.00  0.00    +0.124 A 
ATOM     16  C   LIG A   1      -8.529   1.933 123.948  0.00  0.00    -0.008 A 
ATOM     17  C   LIG A   1      -8.241   0.563 124.000  0.00  0.00    +0.019 A 
ATOM     18  C   LIG A   1      -8.716   2.588 122.608  0.00  0.00    +0.048 C 
ENDROOT
BRANCH   1  19
ATOM     19  O   LIG A   1      -7.708  -2.155 124.006  0.00  0.00    -0.494 OA
ATOM     20  C   LIG A   1      -8.673  -3.188 123.843  0.00  0.00    +0.277 C 
ENDBRANCH   1  19
BRANCH  12  21
ATOM     21  O   LIG A   1      -7.911   0.762 131.307  0.00  0.00    -0.492 OA
ATOM     22  C   LIG A   1      -9.243   0.878 131.796  0.00  0.00    +0.277 C 
ENDBRANCH  12  21
BRANCH  15  23
ATOM     23  O   LIG A   1      -8.774   4.003 125.042  0.00  0.00    -0.495 OA
ATOM     24  C   LIG A   1      -7.776   4.832 125.626  0.00  0.00    +0.277 C 
ENDBRANCH  15  23
TORSDOF 3
ENDMDL
MODEL 4
REMARK VINA RESULT:      -6.8      8.625      9.546
REMARK  Name = NuBBE_865
REMARK  9 active torsions:
REMARK  status: ('A' for Active; 'I' for Inactive)
REMARK    1  A    between atoms: O_1  and  C_2
REMARK    2  A    between atoms: O_1  and  C_3
REMARK    3  A    between atoms: C_9  and  C_10
REMARK    4  A    between atoms: C_9  and  C_11
REMARK    5  A    between atoms: C_14  and  O_16
REMARK    6  A    between atoms: O_16  and  C_17
REMARK    7  A    between atoms: C_19  and  O_23
REMARK    8  A    between atoms: C_20  and  C_22
REMARK    9  A    between atoms: O_23  and  C_24
REMARK                            x       y       z     vdW  Elec       q    Type
REMARK                         _______ _______ _______ _____ _____    ______ ____
ROOT
ATOM      1  C   LIG A   1      -7.640  -2.489 128.698  0.00  0.00    +0.128 A 
ATOM      2  C   LIG A   1      -7.849  -1.130 129.007  0.00  0.00    +0.025 A 
ATOM      3  C   LIG A   1      -7.927  -0.172 127.962  0.00  0.00    -0.003 A 
ATOM      4  C   LIG A   1      -7.764  -0.609 126.601  0.00  0.00    -0.009 A 
ATOM      5  C   LIG A   1      -7.584  -1.972 126.309  0.00  0.00    -0.023 A 
ATOM      6  C   LIG A   1      -7.504  -2.889 127.372  0.00  0.00    +0.051 A 
ATOM      7  C   LIG A   1      -7.461  -2.488 124.873  0.00  0.00    +0.057 C 
ATOM      8  C   LIG A   1      -6.047  -3.056 124.646  0.00  0.00    +0.024 C 
ATOM      9  C   LIG A   1      -8.522  -3.584 124.621  0.00  0.00    +0.024 C 
ATOM     10  C   LIG A   1      -7.679  -1.425 123.790  0.00  0.00    +0.207 C 
ATOM     11  O   LIG A   1      -7.804  -1.753 122.610  0.00  0.00    -0.288 OA
ATOM     12  C   LIG A   1      -7.688   0.020 124.179  0.00  0.00    +0.164 C 
ATOM     13  C   LIG A   1      -7.734   0.341 125.476  0.00  0.00    +0.058 C 
ATOM     14  C   LIG A   1      -8.186   1.174 128.346  0.00  0.00    +0.055 A 
ATOM     15  C   LIG A   1      -8.331   1.577 129.681  0.00  0.00    +0.124 A 
ATOM     16  C   LIG A   1      -8.228   0.629 130.697  0.00  0.00    -0.008 A 
ATOM     17  C   LIG A   1      -8.000  -0.708 130.347  0.00  0.00    +0.019 A 
ATOM     18  C   LIG A   1      -8.414   0.979 132.147  0.00  0.00    +0.048 C 
ENDROOT
BRANCH   1  19
ATOM     19  O   LIG A   1      -7.521  -3.370 129.750  0.00  0.00    -0.494 OA
ATOM     20  C   LIG A   1      -6.217  -3.886 129.998  0.00  0.00    +0.277 C 
ENDBRANCH   1  19
BRANCH  12  21
ATOM     21  O   LIG A   1      -7.700   1.055 123.251  0.00  0.00    -0.492 OA
ATOM     22  C   LIG A   1      -8.890   1.836 123.191  0.00  0.00    +0.277 C 
ENDBRANCH  12  21
BRANCH  15  23
ATOM     23  O   LIG A   1      -8.641   2.857 130.061  0.00  0.00    -0.495 OA
ATOM     24  C   LIG A   1      -8.325   3.885 129.129  0.00  0.00    +0.277 C 
ENDBRANCH  15  23
TORSDOF 3
ENDMDL
MODEL 5
REMARK VINA RESULT:      -6.7      6.933      8.511
REMARK  Name = NuBBE_865
REMARK  9 active torsions:
REMARK  status: ('A' for Active; 'I' for Inactive)
REMARK    1  A    between atoms: O_1  and  C_2
REMARK    2  A    between atoms: O_1  and  C_3
REMARK    3  A    between atoms: C_9  and  C_10
REMARK    4  A    between atoms: C_9  and  C_11
REMARK    5  A    between atoms: C_14  and  O_16
REMARK    6  A    between atoms: O_16  and  C_17
REMARK    7  A    between atoms: C_19  and  O_23
REMARK    8  A    between atoms: C_20  and  C_22
REMARK    9  A    between atoms: O_23  and  C_24
REMARK                            x       y       z     vdW  Elec       q    Type
REMARK                         _______ _______ _______ _____ _____    ______ ____
ROOT
ATOM      1  C   LIG A   1      -8.358   1.133 128.479  0.00  0.00    +0.128 A 
ATOM      2  C   LIG A   1      -8.653   1.638 129.760  0.00  0.00    +0.025 A 
ATOM      3  C   LIG A   1      -8.452   0.821 130.905  0.00  0.00    -0.003 A 
ATOM      4  C   LIG A   1      -7.971  -0.523 130.727  0.00  0.00    -0.009 A 
ATOM      5  C   LIG A   1      -7.656  -1.001 129.443  0.00  0.00    -0.023 A 
ATOM      6  C   LIG A   1      -7.877  -0.166 128.334  0.00  0.00    +0.051 A 
ATOM      7  C   LIG A   1      -7.091  -2.405 129.213  0.00  0.00    +0.057 C 
ATOM      8  C   LIG A   1      -8.110  -3.251 128.425  0.00  0.00    +0.024 C 
ATOM      9  C   LIG A   1      -5.761  -2.310 128.432  0.00  0.00    +0.024 C 
ATOM     10  C   LIG A   1      -6.779  -3.188 130.494  0.00  0.00    +0.207 C 
ATOM     11  O   LIG A   1      -6.140  -4.239 130.443  0.00  0.00    -0.288 OA
ATOM     12  C   LIG A   1      -7.305  -2.684 131.801  0.00  0.00    +0.164 C 
ATOM     13  C   LIG A   1      -7.833  -1.457 131.857  0.00  0.00    +0.058 C 
ATOM     14  C   LIG A   1      -8.726   1.413 132.170  0.00  0.00    +0.055 A 
ATOM     15  C   LIG A   1      -9.203   2.723 132.317  0.00  0.00    +0.124 A 
ATOM     16  C   LIG A   1      -9.419   3.504 131.183  0.00  0.00    -0.008 A 
ATOM     17  C   LIG A   1      -9.132   2.956 129.926  0.00  0.00    +0.019 A 
ATOM     18  C   LIG A   1      -9.889   4.930 131.265  0.00  0.00    +0.048 C 
ENDROOT
BRANCH   1  19
ATOM     19  O   LIG A   1      -8.620   1.946 127.399  0.00  0.00    -0.494 OA
ATOM     20  C   LIG A   1      -8.858   1.292 126.157  0.00  0.00    +0.277 C 
ENDBRANCH   1  19
BRANCH  12  21
ATOM     21  O   LIG A   1      -7.225  -3.414 132.982  0.00  0.00    -0.492 OA
ATOM     22  C   LIG A   1      -8.195  -3.108 133.980  0.00  0.00    +0.277 C 
ENDBRANCH  12  21
BRANCH  15  23
ATOM     23  O   LIG A   1      -9.414   3.325 133.530  0.00  0.00    -0.495 OA
ATOM     24  C   LIG A   1      -8.254   3.784 134.216  0.00  0.00    +0.277 C 
ENDBRANCH  15  23
TORSDOF 3
ENDMDL
MODEL 6
REMARK VINA RESULT:      -6.6      7.445      9.134
REMARK  Name = NuBBE_865
REMARK  9 active torsions:
REMARK  status: ('A' for Active; 'I' for Inactive)
REMARK    1  A    between atoms: O_1  and  C_2
REMARK    2  A    between atoms: O_1  and  C_3
REMARK    3  A    between atoms: C_9  and  C_10
REMARK    4  A    between atoms: C_9  and  C_11
REMARK    5  A    between atoms: C_14  and  O_16
REMARK    6  A    between atoms: O_16  and  C_17
REMARK    7  A    between atoms: C_19  and  O_23
REMARK    8  A    between atoms: C_20  and  C_22
REMARK    9  A    between atoms: O_23  and  C_24
REMARK                            x       y       z     vdW  Elec       q    Type
REMARK                         _______ _______ _______ _____ _____    ______ ____
ROOT
ATOM      1  C   LIG A   1      -8.853   0.767 124.987  0.00  0.00    +0.128 A 
ATOM      2  C   LIG A   1      -8.265  -0.148 125.882  0.00  0.00    +0.025 A 
ATOM      3  C   LIG A   1      -7.125   0.235 126.637  0.00  0.00    -0.003 A 
ATOM      4  C   LIG A   1      -6.576   1.552 126.451  0.00  0.00    -0.009 A 
ATOM      5  C   LIG A   1      -7.192   2.462 125.575  0.00  0.00    -0.023 A 
ATOM      6  C   LIG A   1      -8.314   2.042 124.839  0.00  0.00    +0.051 A 
ATOM      7  C   LIG A   1      -6.674   3.890 125.388  0.00  0.00    +0.057 C 
ATOM      8  C   LIG A   1      -6.148   4.066 123.951  0.00  0.00    +0.024 C 
ATOM      9  C   LIG A   1      -7.814   4.898 125.665  0.00  0.00    +0.024 C 
ATOM     10  C   LIG A   1      -5.523   4.282 126.321  0.00  0.00    +0.207 C 
ATOM     11  O   LIG A   1      -5.159   5.455 126.406  0.00  0.00    -0.288 OA
ATOM     12  C   LIG A   1      -4.814   3.212 127.091  0.00  0.00    +0.164 C 
ATOM     13  C   LIG A   1      -5.339   1.982 127.126  0.00  0.00    +0.058 C 
ATOM     14  C   LIG A   1      -6.612  -0.724 127.554  0.00  0.00    +0.055 A 
ATOM     15  C   LIG A   1      -7.159  -2.006 127.710  0.00  0.00    +0.124 A 
ATOM     16  C   LIG A   1      -8.263  -2.376 126.944  0.00  0.00    -0.008 A 
ATOM     17  C   LIG A   1      -8.805  -1.442 126.053  0.00  0.00    +0.019 A 
ATOM     18  C   LIG A   1      -8.928  -3.717 127.088  0.00  0.00    +0.048 C 
ENDROOT
BRANCH   1  19
ATOM     19  O   LIG A   1      -9.925   0.329 124.242  0.00  0.00    -0.494 OA
ATOM     20  C   LIG A   1      -9.909   0.658 122.856  0.00  0.00    +0.277 C 
ENDBRANCH   1  19
BRANCH  12  21
ATOM     21  O   LIG A   1      -3.653   3.444 127.820  0.00  0.00    -0.492 OA
ATOM     22  C   LIG A   1      -2.423   3.246 127.129  0.00  0.00    +0.277 C 
ENDBRANCH  12  21
BRANCH  15  23
ATOM     23  O   LIG A   1      -6.714  -2.917 128.632  0.00  0.00    -0.495 OA
ATOM     24  C   LIG A   1      -5.404  -2.706 129.145  0.00  0.00    +0.277 C 
ENDBRANCH  15  23
TORSDOF 3
ENDMDL
MODEL 7
REMARK VINA RESULT:      -6.6      8.546     10.114
REMARK  Name = NuBBE_865
REMARK  9 active torsions:
REMARK  status: ('A' for Active; 'I' for Inactive)
REMARK    1  A    between atoms: O_1  and  C_2
REMARK    2  A    between atoms: O_1  and  C_3
REMARK    3  A    between atoms: C_9  and  C_10
REMARK    4  A    between atoms: C_9  and  C_11
REMARK    5  A    between atoms: C_14  and  O_16
REMARK    6  A    between atoms: O_16  and  C_17
REMARK    7  A    between atoms: C_19  and  O_23
REMARK    8  A    between atoms: C_20  and  C_22
REMARK    9  A    between atoms: O_23  and  C_24
REMARK                            x       y       z     vdW  Elec       q    Type
REMARK                         _______ _______ _______ _____ _____    ______ ____
ROOT
ATOM      1  C   LIG A   1      -5.719  -0.897 127.592  0.00  0.00    +0.128 A 
ATOM      2  C   LIG A   1      -5.933   0.458 127.269  0.00  0.00    +0.025 A 
ATOM      3  C   LIG A   1      -6.828   0.801 126.220  0.00  0.00    -0.003 A 
ATOM      4  C   LIG A   1      -7.481  -0.252 125.489  0.00  0.00    -0.009 A 
ATOM      5  C   LIG A   1      -7.277  -1.596 125.843  0.00  0.00    -0.023 A 
ATOM      6  C   LIG A   1      -6.378  -1.896 126.881  0.00  0.00    +0.051 A 
ATOM      7  C   LIG A   1      -7.994  -2.744 125.128  0.00  0.00    +0.057 C 
ATOM      8  C   LIG A   1      -6.965  -3.603 124.367  0.00  0.00    +0.024 C 
ATOM      9  C   LIG A   1      -8.749  -3.611 126.161  0.00  0.00    +0.024 C 
ATOM     10  C   LIG A   1      -9.037  -2.304 124.095  0.00  0.00    +0.207 C 
ATOM     11  O   LIG A   1      -9.814  -3.124 123.605  0.00  0.00    -0.288 OA
ATOM     12  C   LIG A   1      -9.066  -0.875 123.654  0.00  0.00    +0.164 C 
ATOM     13  C   LIG A   1      -8.344   0.026 124.328  0.00  0.00    +0.058 C 
ATOM     14  C   LIG A   1      -7.031   2.189 125.981  0.00  0.00    +0.055 A 
ATOM     15  C   LIG A   1      -6.374   3.196 126.701  0.00  0.00    +0.124 A 
ATOM     16  C   LIG A   1      -5.481   2.844 127.711  0.00  0.00    -0.008 A 
ATOM     17  C   LIG A   1      -5.282   1.485 127.987  0.00  0.00    +0.019 A 
ATOM     18  C   LIG A   1      -4.773   3.868 128.553  0.00  0.00    +0.048 C 
ENDROOT
BRANCH   1  19
ATOM     19  O   LIG A   1      -4.803  -1.177 128.582  0.00  0.00    -0.494 OA
ATOM     20  C   LIG A   1      -4.543  -2.555 128.831  0.00  0.00    +0.277 C 
ENDBRANCH   1  19
BRANCH  12  21
ATOM     21  O   LIG A   1      -9.852  -0.422 122.600  0.00  0.00    -0.492 OA
ATOM     22  C   LIG A   1     -10.190   0.961 122.612  0.00  0.00    +0.277 C 
ENDBRANCH  12  21
BRANCH  15  23
ATOM     23  O   LIG A   1      -6.606   4.535 126.522  0.00  0.00    -0.495 OA
ATOM     24  C   LIG A   1      -6.358   5.049 125.218  0.00  0.00    +0.277 C 
ENDBRANCH  15  23
TORSDOF 3
ENDMDL
MODEL 8
REMARK VINA RESULT:      -6.6      8.092      9.834
REMARK  Name = NuBBE_865
REMARK  9 active torsions:
REMARK  status: ('A' for Active; 'I' for Inactive)
REMARK    1  A    between atoms: O_1  and  C_2
REMARK    2  A    between atoms: O_1  and  C_3
REMARK    3  A    between atoms: C_9  and  C_10
REMARK    4  A    between atoms: C_9  and  C_11
REMARK    5  A    between atoms: C_14  and  O_16
REMARK    6  A    between atoms: O_16  and  C_17
REMARK    7  A    between atoms: C_19  and  O_23
REMARK    8  A    between atoms: C_20  and  C_22
REMARK    9  A    between atoms: O_23  and  C_24
REMARK                            x       y       z     vdW  Elec       q    Type
REMARK                         _______ _______ _______ _____ _____    ______ ____
ROOT
ATOM      1  C   LIG A   1      -8.571  -0.803 124.633  0.00  0.00    +0.128 A 
ATOM      2  C   LIG A   1      -8.006  -0.962 125.914  0.00  0.00    +0.025 A 
ATOM      3  C   LIG A   1      -7.080  -0.001 126.401  0.00  0.00    -0.003 A 
ATOM      4  C   LIG A   1      -6.718   1.108 125.560  0.00  0.00    -0.009 A 
ATOM      5  C   LIG A   1      -7.312   1.265 124.296  0.00  0.00    -0.023 A 
ATOM      6  C   LIG A   1      -8.218   0.289 123.845  0.00  0.00    +0.051 A 
ATOM      7  C   LIG A   1      -6.997   2.459 123.391  0.00  0.00    +0.057 C 
ATOM      8  C   LIG A   1      -6.272   1.969 122.122  0.00  0.00    +0.024 C 
ATOM      9  C   LIG A   1      -8.308   3.183 123.008  0.00  0.00    +0.024 C 
ATOM     10  C   LIG A   1      -6.091   3.521 124.023  0.00  0.00    +0.207 C 
ATOM     11  O   LIG A   1      -5.932   4.612 123.476  0.00  0.00    -0.288 OA
ATOM     12  C   LIG A   1      -5.364   3.197 125.291  0.00  0.00    +0.164 C 
ATOM     13  C   LIG A   1      -5.692   2.086 125.959  0.00  0.00    +0.058 C 
ATOM     14  C   LIG A   1      -6.586  -0.201 127.721  0.00  0.00    +0.055 A 
ATOM     15  C   LIG A   1      -6.947  -1.296 128.518  0.00  0.00    +0.124 A 
ATOM     16  C   LIG A   1      -7.838  -2.243 128.017  0.00  0.00    -0.008 A 
ATOM     17  C   LIG A   1      -8.361  -2.058 126.731  0.00  0.00    +0.019 A 
ATOM     18  C   LIG A   1      -8.303  -3.420 128.829  0.00  0.00    +0.048 C 
ENDROOT
BRANCH   1  19
ATOM     19  O   LIG A   1      -9.423  -1.789 124.187  0.00  0.00    -0.494 OA
ATOM     20  C   LIG A   1      -8.965  -2.573 123.091  0.00  0.00    +0.277 C 
ENDBRANCH   1  19
BRANCH  12  21
ATOM     21  O   LIG A   1      -4.390   4.024 125.839  0.00  0.00    -0.492 OA
ATOM     22  C   LIG A   1      -3.289   3.374 126.465  0.00  0.00    +0.277 C 
ENDBRANCH  12  21
BRANCH  15  23
ATOM     23  O   LIG A   1      -6.527  -1.468 129.811  0.00  0.00    -0.495 OA
ATOM     24  C   LIG A   1      -6.887  -0.445 130.733  0.00  0.00    +0.277 C 
ENDBRANCH  15  23
TORSDOF 3
ENDMDL
MODEL 9
REMARK VINA RESULT:      -6.5      8.127      9.579
REMARK  Name = NuBBE_865
REMARK  9 active torsions:
REMARK  status: ('A' for Active; 'I' for Inactive)
REMARK    1  A    between atoms: O_1  and  C_2
REMARK    2  A    between atoms: O_1  and  C_3
REMARK    3  A    between atoms: C_9  and  C_10
REMARK    4  A    between atoms: C_9  and  C_11
REMARK    5  A    between atoms: C_14  and  O_16
REMARK    6  A    between atoms: O_16  and  C_17
REMARK    7  A    between atoms: C_19  and  O_23
REMARK    8  A    between atoms: C_20  and  C_22
REMARK    9  A    between atoms: O_23  and  C_24
REMARK                            x       y       z     vdW  Elec       q    Type
REMARK                         _______ _______ _______ _____ _____    ______ ____
ROOT
ATOM      1  C   LIG A   1      -5.343   1.417 127.666  0.00  0.00    +0.128 A 
ATOM      2  C   LIG A   1      -5.828   1.678 126.369  0.00  0.00    +0.025 A 
ATOM      3  C   LIG A   1      -6.740   0.774 125.761  0.00  0.00    -0.003 A 
ATOM      4  C   LIG A   1      -7.132  -0.409 126.479  0.00  0.00    -0.009 A 
ATOM      5  C   LIG A   1      -6.659  -0.639 127.783  0.00  0.00    -0.023 A 
ATOM      6  C   LIG A   1      -5.751   0.274 128.347  0.00  0.00    +0.051 A 
ATOM      7  C   LIG A   1      -7.093  -1.856 128.603  0.00  0.00    +0.057 C 
ATOM      8  C   LIG A   1      -5.881  -2.779 128.842  0.00  0.00    +0.024 C 
ATOM      9  C   LIG A   1      -7.682  -1.392 129.954  0.00  0.00    +0.024 C 
ATOM     10  C   LIG A   1      -8.171  -2.723 127.943  0.00  0.00    +0.207 C 
ATOM     11  O   LIG A   1      -8.741  -3.607 128.583  0.00  0.00    -0.288 OA
ATOM     12  C   LIG A   1      -8.488  -2.514 126.495  0.00  0.00    +0.164 C 
ATOM     13  C   LIG A   1      -7.994  -1.438 125.873  0.00  0.00    +0.058 C 
ATOM     14  C   LIG A   1      -7.224   1.125 124.470  0.00  0.00    +0.055 A 
ATOM     15  C   LIG A   1      -6.819   2.281 123.786  0.00  0.00    +0.124 A 
ATOM     16  C   LIG A   1      -5.905   3.146 124.386  0.00  0.00    -0.008 A 
ATOM     17  C   LIG A   1      -5.432   2.839 125.668  0.00  0.00    +0.019 A 
ATOM     18  C   LIG A   1      -5.458   4.423 123.732  0.00  0.00    +0.048 C 
ENDROOT
BRANCH   1  19
ATOM     19  O   LIG A   1      -4.421   2.297 128.189  0.00  0.00    -0.494 OA
ATOM     20  C   LIG A   1      -4.169   2.193 129.586  0.00  0.00    +0.277 C 
ENDBRANCH   1  19
BRANCH  12  21
ATOM     21  O   LIG A   1      -9.316  -3.362 125.769  0.00  0.00    -0.492 OA
ATOM     22  C   LIG A   1      -9.247  -3.253 124.351  0.00  0.00    +0.277 C 
ENDBRANCH  12  21
BRANCH  15  23
ATOM     23  O   LIG A   1      -7.322   2.662 122.570  0.00  0.00    -0.495 OA
ATOM     24  C   LIG A   1      -8.738   2.774 122.481  0.00  0.00    +0.277 C 
ENDBRANCH  15  23
TORSDOF 3
ENDMDL
