MODEL 1
REMARK VINA RESULT:      -7.0      0.000      0.000
REMARK  Name = NuBBE_27
REMARK  9 active torsions:
REMARK  status: ('A' for Active; 'I' for Inactive)
REMARK    1  A    between atoms: C_1  and  O_2
REMARK    2  A    between atoms: O_2  and  C_3
REMARK    3  A    between atoms: C_4  and  O_5
REMARK    4  A    between atoms: O_5  and  C_6
REMARK    5  A    between atoms: C_7  and  O_8
REMARK    6  A    between atoms: O_8  and  C_9
REMARK    7  A    between atoms: C_11  and  C_12
REMARK    8  A    between atoms: C_12  and  C_13
REMARK    9  A    between atoms: C_13  and  C_14
REMARK                            x       y       z     vdW  Elec       q    Type
REMARK                         _______ _______ _______ _____ _____    ______ ____
ROOT
ATOM      1  C   LIG A   1      -4.168   6.352 132.959  0.00  0.00    +0.165 A 
ATOM      2  C   LIG A   1      -3.597   7.079 131.890  0.00  0.00    +0.203 A 
ATOM      3  C   LIG A   1      -4.427   7.478 130.809  0.00  0.00    +0.165 A 
ATOM      4  C   LIG A   1      -5.790   7.147 130.815  0.00  0.00    +0.053 A 
ATOM      5  C   LIG A   1      -6.357   6.448 131.881  0.00  0.00    -0.040 A 
ATOM      6  C   LIG A   1      -5.544   6.094 132.956  0.00  0.00    +0.053 A 
ENDROOT
BRANCH   1   8
ATOM      7  C   LIG A   1      -3.351   4.507 134.224  0.00  0.00    +0.277 C 
ATOM      8  O   LIG A   1      -3.388   5.916 134.000  0.00  0.00    -0.491 OA
ENDBRANCH   1   8
BRANCH   2   9
ATOM      9  O   LIG A   1      -2.257   7.372 131.750  0.00  0.00    -0.488 OA
ATOM     10  C   LIG A   1      -1.377   6.311 131.399  0.00  0.00    +0.277 C 
ENDBRANCH   2   9
BRANCH   3  11
ATOM     11  O   LIG A   1      -3.839   8.185 129.781  0.00  0.00    -0.491 OA
ATOM     12  C   LIG A   1      -3.540   7.464 128.588  0.00  0.00    +0.277 C 
ENDBRANCH   3  11
BRANCH   5  13
ATOM     13  C   LIG A   1      -7.803   6.017 131.847  0.00  0.00    +0.044 C 
BRANCH  13  14
ATOM     14  C   LIG A   1      -8.548   6.524 130.619  0.00  0.00    +0.101 C 
BRANCH  14  15
ATOM     15  C   LIG A   1     -10.042   6.607 130.893  0.00  0.00    +0.222 C 
ATOM     16  N   LIG A   1     -10.906   6.592 129.805  0.00  0.00    -0.242 N 
ATOM     17  C   LIG A   1     -12.331   6.752 130.064  0.00  0.00    +0.116 C 
ATOM     18  C   LIG A   1     -12.771   8.204 129.900  0.00  0.00    +0.020 C 
ATOM     19  C   LIG A   1     -12.364   8.707 128.517  0.00  0.00    +0.011 C 
ATOM     20  C   LIG A   1     -10.879   8.480 128.273  0.00  0.00    +0.096 C 
ATOM     21  C   LIG A   1     -10.467   7.053 128.576  0.00  0.00    +0.222 C 
ATOM     22  O   LIG A   1      -9.720   6.408 127.835  0.00  0.00    -0.275 OA
ATOM     23  O   LIG A   1     -10.440   6.722 132.055  0.00  0.00    -0.275 OA
ENDBRANCH  14  15
ENDBRANCH  13  14
ENDBRANCH   5  13
TORSDOF 6
ENDMDL
MODEL 2
REMARK VINA RESULT:      -6.7      1.068      2.683
REMARK  Name = NuBBE_27
REMARK  9 active torsions:
REMARK  status: ('A' for Active; 'I' for Inactive)
REMARK    1  A    between atoms: C_1  and  O_2
REMARK    2  A    between atoms: O_2  and  C_3
REMARK    3  A    between atoms: C_4  and  O_5
REMARK    4  A    between atoms: O_5  and  C_6
REMARK    5  A    between atoms: C_7  and  O_8
REMARK    6  A    between atoms: O_8  and  C_9
REMARK    7  A    between atoms: C_11  and  C_12
REMARK    8  A    between atoms: C_12  and  C_13
REMARK    9  A    between atoms: C_13  and  C_14
REMARK                            x       y       z     vdW  Elec       q    Type
REMARK                         _______ _______ _______ _____ _____    ______ ____
ROOT
ATOM      1  C   LIG A   1      -3.855   6.758 131.216  0.00  0.00    +0.165 A 
ATOM      2  C   LIG A   1      -3.729   6.049 132.431  0.00  0.00    +0.203 A 
ATOM      3  C   LIG A   1      -4.905   5.679 133.136  0.00  0.00    +0.165 A 
ATOM      4  C   LIG A   1      -6.165   6.021 132.622  0.00  0.00    +0.053 A 
ATOM      5  C   LIG A   1      -6.289   6.703 131.412  0.00  0.00    -0.040 A 
ATOM      6  C   LIG A   1      -5.131   7.028 130.708  0.00  0.00    +0.053 A 
ENDROOT
BRANCH   1   8
ATOM      7  C   LIG A   1      -2.335   6.354 129.427  0.00  0.00    +0.277 C 
ATOM      8  O   LIG A   1      -2.740   7.166 130.529  0.00  0.00    -0.491 OA
ENDBRANCH   1   8
BRANCH   2   9
ATOM      9  O   LIG A   1      -2.540   5.747 133.060  0.00  0.00    -0.488 OA
ATOM     10  C   LIG A   1      -1.853   4.569 132.653  0.00  0.00    +0.277 C 
ENDBRANCH   2   9
BRANCH   3  11
ATOM     11  O   LIG A   1      -4.749   4.987 134.319  0.00  0.00    -0.491 OA
ATOM     12  C   LIG A   1      -5.934   4.692 135.057  0.00  0.00    +0.277 C 
ENDBRANCH   3  11
BRANCH   5  13
ATOM     13  C   LIG A   1      -7.639   7.147 130.903  0.00  0.00    +0.044 C 
BRANCH  13  14
ATOM     14  C   LIG A   1      -8.556   5.983 130.550  0.00  0.00    +0.101 C 
BRANCH  14  15
ATOM     15  C   LIG A   1     -10.004   6.325 130.864  0.00  0.00    +0.222 C 
ATOM     16  N   LIG A   1     -10.882   6.482 129.799  0.00  0.00    -0.242 N 
ATOM     17  C   LIG A   1     -12.249   6.887 130.097  0.00  0.00    +0.116 C 
ATOM     18  C   LIG A   1     -12.429   8.396 129.963  0.00  0.00    +0.020 C 
ATOM     19  C   LIG A   1     -11.972   8.843 128.576  0.00  0.00    +0.011 C 
ATOM     20  C   LIG A   1     -10.556   8.360 128.290  0.00  0.00    +0.096 C 
ATOM     21  C   LIG A   1     -10.397   6.878 128.565  0.00  0.00    +0.222 C 
ATOM     22  O   LIG A   1      -9.795   6.124 127.796  0.00  0.00    -0.275 OA
ATOM     23  O   LIG A   1     -10.348   6.489 132.037  0.00  0.00    -0.275 OA
ENDBRANCH  14  15
ENDBRANCH  13  14
ENDBRANCH   5  13
TORSDOF 6
ENDMDL
MODEL 3
REMARK VINA RESULT:      -6.7      1.706      2.640
REMARK  Name = NuBBE_27
REMARK  9 active torsions:
REMARK  status: ('A' for Active; 'I' for Inactive)
REMARK    1  A    between atoms: C_1  and  O_2
REMARK    2  A    between atoms: O_2  and  C_3
REMARK    3  A    between atoms: C_4  and  O_5
REMARK    4  A    between atoms: O_5  and  C_6
REMARK    5  A    between atoms: C_7  and  O_8
REMARK    6  A    between atoms: O_8  and  C_9
REMARK    7  A    between atoms: C_11  and  C_12
REMARK    8  A    between atoms: C_12  and  C_13
REMARK    9  A    between atoms: C_13  and  C_14
REMARK                            x       y       z     vdW  Elec       q    Type
REMARK                         _______ _______ _______ _____ _____    ______ ____
ROOT
ATOM      1  C   LIG A   1      -4.625   4.970 129.403  0.00  0.00    +0.165 A 
ATOM      2  C   LIG A   1      -3.717   5.971 129.814  0.00  0.00    +0.203 A 
ATOM      3  C   LIG A   1      -4.148   6.948 130.750  0.00  0.00    +0.165 A 
ATOM      4  C   LIG A   1      -5.459   6.907 131.249  0.00  0.00    +0.053 A 
ATOM      5  C   LIG A   1      -6.348   5.906 130.858  0.00  0.00    -0.040 A 
ATOM      6  C   LIG A   1      -5.905   4.930 129.968  0.00  0.00    +0.053 A 
ENDROOT
BRANCH   1   8
ATOM      7  C   LIG A   1      -4.725   4.240 127.137  0.00  0.00    +0.277 C 
ATOM      8  O   LIG A   1      -4.256   4.034 128.470  0.00  0.00    -0.491 OA
ENDBRANCH   1   8
BRANCH   2   9
ATOM      9  O   LIG A   1      -2.444   6.147 129.316  0.00  0.00    -0.488 OA
ATOM     10  C   LIG A   1      -2.299   6.880 128.105  0.00  0.00    +0.277 C 
ENDBRANCH   2   9
BRANCH   3  11
ATOM     11  O   LIG A   1      -3.238   7.911 131.132  0.00  0.00    -0.491 OA
ATOM     12  C   LIG A   1      -2.838   7.917 132.501  0.00  0.00    +0.277 C 
ENDBRANCH   3  11
BRANCH   5  13
ATOM     13  C   LIG A   1      -7.783   5.914 131.327  0.00  0.00    +0.044 C 
BRANCH  13  14
ATOM     14  C   LIG A   1      -8.625   6.991 130.654  0.00  0.00    +0.101 C 
BRANCH  14  15
ATOM     15  C   LIG A   1     -10.107   6.701 130.827  0.00  0.00    +0.222 C 
ATOM     16  N   LIG A   1     -10.851   6.413 129.689  0.00  0.00    -0.242 N 
ATOM     17  C   LIG A   1     -12.286   6.213 129.846  0.00  0.00    +0.116 C 
ATOM     18  C   LIG A   1     -13.065   7.494 129.560  0.00  0.00    +0.020 C 
ATOM     19  C   LIG A   1     -12.692   8.019 128.176  0.00  0.00    +0.011 C 
ATOM     20  C   LIG A   1     -11.183   8.170 128.042  0.00  0.00    +0.096 C 
ATOM     21  C   LIG A   1     -10.449   6.913 128.464  0.00  0.00    +0.222 C 
ATOM     22  O   LIG A   1      -9.508   6.447 127.815  0.00  0.00    -0.275 OA
ATOM     23  O   LIG A   1     -10.611   6.764 131.951  0.00  0.00    -0.275 OA
ENDBRANCH  14  15
ENDBRANCH  13  14
ENDBRANCH   5  13
TORSDOF 6
ENDMDL
MODEL 4
REMARK VINA RESULT:      -6.6      2.117      2.809
REMARK  Name = NuBBE_27
REMARK  9 active torsions:
REMARK  status: ('A' for Active; 'I' for Inactive)
REMARK    1  A    between atoms: C_1  and  O_2
REMARK    2  A    between atoms: O_2  and  C_3
REMARK    3  A    between atoms: C_4  and  O_5
REMARK    4  A    between atoms: O_5  and  C_6
REMARK    5  A    between atoms: C_7  and  O_8
REMARK    6  A    between atoms: O_8  and  C_9
REMARK    7  A    between atoms: C_11  and  C_12
REMARK    8  A    between atoms: C_12  and  C_13
REMARK    9  A    between atoms: C_13  and  C_14
REMARK                            x       y       z     vdW  Elec       q    Type
REMARK                         _______ _______ _______ _____ _____    ______ ____
ROOT
ATOM      1  C   LIG A   1      -6.185   4.219 131.118  0.00  0.00    +0.165 A 
ATOM      2  C   LIG A   1      -5.070   5.081 131.025  0.00  0.00    +0.203 A 
ATOM      3  C   LIG A   1      -5.284   6.485 131.040  0.00  0.00    +0.165 A 
ATOM      4  C   LIG A   1      -6.588   6.993 131.146  0.00  0.00    +0.053 A 
ATOM      5  C   LIG A   1      -7.686   6.140 131.259  0.00  0.00    -0.040 A 
ATOM      6  C   LIG A   1      -7.464   4.764 131.282  0.00  0.00    +0.053 A 
ENDROOT
BRANCH   1   8
ATOM      7  C   LIG A   1      -6.177   2.147 132.295  0.00  0.00    +0.277 C 
ATOM      8  O   LIG A   1      -6.019   2.858 131.066  0.00  0.00    -0.491 OA
ENDBRANCH   1   8
BRANCH   2   9
ATOM      9  O   LIG A   1      -3.766   4.682 130.828  0.00  0.00    -0.488 OA
ATOM     10  C   LIG A   1      -3.017   4.274 131.967  0.00  0.00    +0.277 C 
ENDBRANCH   2   9
BRANCH   3  11
ATOM     11  O   LIG A   1      -4.176   7.301 130.947  0.00  0.00    -0.491 OA
ATOM     12  C   LIG A   1      -4.089   8.146 129.801  0.00  0.00    +0.277 C 
ENDBRANCH   3  11
BRANCH   5  13
ATOM     13  C   LIG A   1      -9.094   6.684 131.284  0.00  0.00    +0.044 C 
BRANCH  13  14
ATOM     14  C   LIG A   1     -10.055   5.890 130.408  0.00  0.00    +0.101 C 
BRANCH  14  15
ATOM     15  C   LIG A   1     -10.066   6.438 128.990  0.00  0.00    +0.222 C 
ATOM     16  N   LIG A   1     -11.000   7.418 128.677  0.00  0.00    -0.242 N 
ATOM     17  C   LIG A   1     -11.062   7.885 127.297  0.00  0.00    +0.116 C 
ATOM     18  C   LIG A   1     -12.141   7.151 126.506  0.00  0.00    +0.020 C 
ATOM     19  C   LIG A   1     -13.479   7.276 127.230  0.00  0.00    +0.011 C 
ATOM     20  C   LIG A   1     -13.356   6.820 128.677  0.00  0.00    +0.096 C 
ATOM     21  C   LIG A   1     -12.189   7.481 129.382  0.00  0.00    +0.222 C 
ATOM     22  O   LIG A   1     -12.278   7.936 130.526  0.00  0.00    -0.275 OA
ATOM     23  O   LIG A   1      -9.282   5.978 128.156  0.00  0.00    -0.275 OA
ENDBRANCH  14  15
ENDBRANCH  13  14
ENDBRANCH   5  13
TORSDOF 6
ENDMDL
MODEL 5
REMARK VINA RESULT:      -6.6      4.021      5.559
REMARK  Name = NuBBE_27
REMARK  9 active torsions:
REMARK  status: ('A' for Active; 'I' for Inactive)
REMARK    1  A    between atoms: C_1  and  O_2
REMARK    2  A    between atoms: O_2  and  C_3
REMARK    3  A    between atoms: C_4  and  O_5
REMARK    4  A    between atoms: O_5  and  C_6
REMARK    5  A    between atoms: C_7  and  O_8
REMARK    6  A    between atoms: O_8  and  C_9
REMARK    7  A    between atoms: C_11  and  C_12
REMARK    8  A    between atoms: C_12  and  C_13
REMARK    9  A    between atoms: C_13  and  C_14
REMARK                            x       y       z     vdW  Elec       q    Type
REMARK                         _______ _______ _______ _____ _____    ______ ____
ROOT
ATOM      1  C   LIG A   1      -8.738   2.281 129.869  0.00  0.00    +0.165 A 
ATOM      2  C   LIG A   1      -8.410   1.206 130.725  0.00  0.00    +0.203 A 
ATOM      3  C   LIG A   1      -8.115   1.479 132.088  0.00  0.00    +0.165 A 
ATOM      4  C   LIG A   1      -8.150   2.799 132.560  0.00  0.00    +0.053 A 
ATOM      5  C   LIG A   1      -8.495   3.856 131.719  0.00  0.00    -0.040 A 
ATOM      6  C   LIG A   1      -8.821   3.576 130.393  0.00  0.00    +0.053 A 
ENDROOT
BRANCH   1   8
ATOM      7  C   LIG A   1      -7.979   2.470 127.619  0.00  0.00    +0.277 C 
ATOM      8  O   LIG A   1      -8.991   2.059 128.539  0.00  0.00    -0.491 OA
ENDBRANCH   1   8
BRANCH   2   9
ATOM      9  O   LIG A   1      -8.261  -0.108 130.337  0.00  0.00    -0.488 OA
ATOM     10  C   LIG A   1      -7.026  -0.489 129.743  0.00  0.00    +0.277 C 
ENDBRANCH   2   9
BRANCH   3  11
ATOM     11  O   LIG A   1      -7.798   0.408 132.898  0.00  0.00    -0.491 OA
ATOM     12  C   LIG A   1      -6.468   0.359 133.414  0.00  0.00    +0.277 C 
ENDBRANCH   3  11
BRANCH   5  13
ATOM     13  C   LIG A   1      -8.449   5.285 132.205  0.00  0.00    +0.044 C 
BRANCH  13  14
ATOM     14  C   LIG A   1      -8.867   6.291 131.141  0.00  0.00    +0.101 C 
BRANCH  14  15
ATOM     15  C   LIG A   1     -10.365   6.545 131.199  0.00  0.00    +0.222 C 
ATOM     16  N   LIG A   1     -11.068   6.574 130.002  0.00  0.00    -0.242 N 
ATOM     17  C   LIG A   1     -12.488   6.896 130.053  0.00  0.00    +0.116 C 
ATOM     18  C   LIG A   1     -12.737   8.377 129.787  0.00  0.00    +0.020 C 
ATOM     19  C   LIG A   1     -12.092   8.774 128.462  0.00  0.00    +0.011 C 
ATOM     20  C   LIG A   1     -10.622   8.379 128.436  0.00  0.00    +0.096 C 
ATOM     21  C   LIG A   1     -10.417   6.931 128.834  0.00  0.00    +0.222 C 
ATOM     22  O   LIG A   1      -9.653   6.179 128.224  0.00  0.00    -0.275 OA
ATOM     23  O   LIG A   1     -10.903   6.752 132.290  0.00  0.00    -0.275 OA
ENDBRANCH  14  15
ENDBRANCH  13  14
ENDBRANCH   5  13
TORSDOF 6
ENDMDL
MODEL 6
REMARK VINA RESULT:      -6.5      8.598     10.601
REMARK  Name = NuBBE_27
REMARK  9 active torsions:
REMARK  status: ('A' for Active; 'I' for Inactive)
REMARK    1  A    between atoms: C_1  and  O_2
REMARK    2  A    between atoms: O_2  and  C_3
REMARK    3  A    between atoms: C_4  and  O_5
REMARK    4  A    between atoms: O_5  and  C_6
REMARK    5  A    between atoms: C_7  and  O_8
REMARK    6  A    between atoms: O_8  and  C_9
REMARK    7  A    between atoms: C_11  and  C_12
REMARK    8  A    between atoms: C_12  and  C_13
REMARK    9  A    between atoms: C_13  and  C_14
REMARK                            x       y       z     vdW  Elec       q    Type
REMARK                         _______ _______ _______ _____ _____    ______ ____
ROOT
ATOM      1  C   LIG A   1      -9.535   1.393 124.586  0.00  0.00    +0.165 A 
ATOM      2  C   LIG A   1      -8.652   2.472 124.357  0.00  0.00    +0.203 A 
ATOM      3  C   LIG A   1      -7.537   2.643 125.219  0.00  0.00    +0.165 A 
ATOM      4  C   LIG A   1      -7.330   1.748 126.280  0.00  0.00    +0.053 A 
ATOM      5  C   LIG A   1      -8.190   0.671 126.492  0.00  0.00    -0.040 A 
ATOM      6  C   LIG A   1      -9.259   0.488 125.618  0.00  0.00    +0.053 A 
ENDROOT
BRANCH   1   8
ATOM      7  C   LIG A   1     -10.472   0.437 122.615  0.00  0.00    +0.277 C 
ATOM      8  O   LIG A   1     -10.644   1.220 123.797  0.00  0.00    -0.491 OA
ENDBRANCH   1   8
BRANCH   2   9
ATOM      9  O   LIG A   1      -8.820   3.451 123.402  0.00  0.00    -0.488 OA
ATOM     10  C   LIG A   1      -8.309   3.203 122.098  0.00  0.00    +0.277 C 
ENDBRANCH   2   9
BRANCH   3  11
ATOM     11  O   LIG A   1      -6.695   3.706 124.969  0.00  0.00    -0.491 OA
ATOM     12  C   LIG A   1      -5.294   3.466 125.100  0.00  0.00    +0.277 C 
ENDBRANCH   3  11
BRANCH   5  13
ATOM     13  C   LIG A   1      -8.016  -0.240 127.684  0.00  0.00    +0.044 C 
BRANCH  13  14
ATOM     14  C   LIG A   1      -7.117  -1.435 127.395  0.00  0.00    +0.101 C 
BRANCH  14  15
ATOM     15  C   LIG A   1      -7.863  -2.488 126.592  0.00  0.00    +0.222 C 
ATOM     16  N   LIG A   1      -7.310  -2.903 125.387  0.00  0.00    -0.242 N 
ATOM     17  C   LIG A   1      -8.065  -3.853 124.581  0.00  0.00    +0.116 C 
ATOM     18  C   LIG A   1      -8.894  -3.147 123.512  0.00  0.00    +0.020 C 
ATOM     19  C   LIG A   1      -7.987  -2.252 122.671  0.00  0.00    +0.011 C 
ATOM     20  C   LIG A   1      -7.185  -1.308 123.556  0.00  0.00    +0.096 C 
ATOM     21  C   LIG A   1      -6.486  -2.044 124.682  0.00  0.00    +0.222 C 
ATOM     22  O   LIG A   1      -5.315  -1.812 124.997  0.00  0.00    -0.275 OA
ATOM     23  O   LIG A   1      -8.944  -2.914 127.007  0.00  0.00    -0.275 OA
ENDBRANCH  14  15
ENDBRANCH  13  14
ENDBRANCH   5  13
TORSDOF 6
ENDMDL
MODEL 7
REMARK VINA RESULT:      -6.5      8.780     10.250
REMARK  Name = NuBBE_27
REMARK  9 active torsions:
REMARK  status: ('A' for Active; 'I' for Inactive)
REMARK    1  A    between atoms: C_1  and  O_2
REMARK    2  A    between atoms: O_2  and  C_3
REMARK    3  A    between atoms: C_4  and  O_5
REMARK    4  A    between atoms: O_5  and  C_6
REMARK    5  A    between atoms: C_7  and  O_8
REMARK    6  A    between atoms: O_8  and  C_9
REMARK    7  A    between atoms: C_11  and  C_12
REMARK    8  A    between atoms: C_12  and  C_13
REMARK    9  A    between atoms: C_13  and  C_14
REMARK                            x       y       z     vdW  Elec       q    Type
REMARK                         _______ _______ _______ _____ _____    ______ ____
ROOT
ATOM      1  C   LIG A   1      -6.819   2.176 124.078  0.00  0.00    +0.165 A 
ATOM      2  C   LIG A   1      -5.915   3.224 124.357  0.00  0.00    +0.203 A 
ATOM      3  C   LIG A   1      -5.053   3.108 125.481  0.00  0.00    +0.165 A 
ATOM      4  C   LIG A   1      -5.112   1.964 126.291  0.00  0.00    +0.053 A 
ATOM      5  C   LIG A   1      -5.991   0.921 126.002  0.00  0.00    -0.040 A 
ATOM      6  C   LIG A   1      -6.806   1.026 124.876  0.00  0.00    +0.053 A 
ENDROOT
BRANCH   1   8
ATOM      7  C   LIG A   1      -9.084   2.206 123.340  0.00  0.00    +0.277 C 
ATOM      8  O   LIG A   1      -7.693   2.272 123.025  0.00  0.00    -0.491 OA
ENDBRANCH   1   8
BRANCH   2   9
ATOM      9  O   LIG A   1      -5.844   4.421 123.677  0.00  0.00    -0.488 OA
ATOM     10  C   LIG A   1      -5.164   4.436 122.427  0.00  0.00    +0.277 C 
ENDBRANCH   2   9
BRANCH   3  11
ATOM     11  O   LIG A   1      -4.181   4.148 125.727  0.00  0.00    -0.491 OA
ATOM     12  C   LIG A   1      -3.020   3.850 126.499  0.00  0.00    +0.277 C 
ENDBRANCH   3  11
BRANCH   5  13
ATOM     13  C   LIG A   1      -6.117  -0.269 126.923  0.00  0.00    +0.044 C 
BRANCH  13  14
ATOM     14  C   LIG A   1      -5.685  -1.576 126.271  0.00  0.00    +0.101 C 
BRANCH  14  15
ATOM     15  C   LIG A   1      -6.870  -2.517 126.118  0.00  0.00    +0.222 C 
ATOM     16  N   LIG A   1      -7.040  -3.158 124.898  0.00  0.00    -0.242 N 
ATOM     17  C   LIG A   1      -8.219  -3.998 124.727  0.00  0.00    +0.116 C 
ATOM     18  C   LIG A   1      -9.353  -3.238 124.046  0.00  0.00    +0.020 C 
ATOM     19  C   LIG A   1      -8.855  -2.648 122.729  0.00  0.00    +0.011 C 
ATOM     20  C   LIG A   1      -7.598  -1.817 122.948  0.00  0.00    +0.096 C 
ATOM     21  C   LIG A   1      -6.552  -2.572 123.743  0.00  0.00    +0.222 C 
ATOM     22  O   LIG A   1      -5.357  -2.569 123.434  0.00  0.00    -0.275 OA
ATOM     23  O   LIG A   1      -7.659  -2.656 127.056  0.00  0.00    -0.275 OA
ENDBRANCH  14  15
ENDBRANCH  13  14
ENDBRANCH   5  13
TORSDOF 6
ENDMDL
MODEL 8
REMARK VINA RESULT:      -6.3      6.480      8.410
REMARK  Name = NuBBE_27
REMARK  9 active torsions:
REMARK  status: ('A' for Active; 'I' for Inactive)
REMARK    1  A    between atoms: C_1  and  O_2
REMARK    2  A    between atoms: O_2  and  C_3
REMARK    3  A    between atoms: C_4  and  O_5
REMARK    4  A    between atoms: O_5  and  C_6
REMARK    5  A    between atoms: C_7  and  O_8
REMARK    6  A    between atoms: O_8  and  C_9
REMARK    7  A    between atoms: C_11  and  C_12
REMARK    8  A    between atoms: C_12  and  C_13
REMARK    9  A    between atoms: C_13  and  C_14
REMARK                            x       y       z     vdW  Elec       q    Type
REMARK                         _______ _______ _______ _____ _____    ______ ____
ROOT
ATOM      1  C   LIG A   1      -8.178  -1.586 126.876  0.00  0.00    +0.165 A 
ATOM      2  C   LIG A   1      -9.026  -1.196 125.816  0.00  0.00    +0.203 A 
ATOM      3  C   LIG A   1      -9.383   0.174 125.690  0.00  0.00    +0.165 A 
ATOM      4  C   LIG A   1      -8.894   1.111 126.611  0.00  0.00    +0.053 A 
ATOM      5  C   LIG A   1      -8.039   0.728 127.645  0.00  0.00    -0.040 A 
ATOM      6  C   LIG A   1      -7.663  -0.611 127.739  0.00  0.00    +0.053 A 
ENDROOT
BRANCH   1   8
ATOM      7  C   LIG A   1      -8.684  -3.666 127.920  0.00  0.00    +0.277 C 
ATOM      8  O   LIG A   1      -7.844  -2.905 127.052  0.00  0.00    -0.491 OA
ENDBRANCH   1   8
BRANCH   2   9
ATOM      9  O   LIG A   1      -9.627  -2.051 124.918  0.00  0.00    -0.488 OA
ATOM     10  C   LIG A   1      -8.854  -2.506 123.814  0.00  0.00    +0.277 C 
ENDBRANCH   2   9
BRANCH   3  11
ATOM     11  O   LIG A   1     -10.212   0.522 124.644  0.00  0.00    -0.491 OA
ATOM     12  C   LIG A   1      -9.835   1.661 123.872  0.00  0.00    +0.277 C 
ENDBRANCH   3  11
BRANCH   5  13
ATOM     13  C   LIG A   1      -7.584   1.721 128.687  0.00  0.00    +0.044 C 
BRANCH  13  14
ATOM     14  C   LIG A   1      -8.735   2.312 129.491  0.00  0.00    +0.101 C 
BRANCH  14  15
ATOM     15  C   LIG A   1      -8.212   3.226 130.588  0.00  0.00    +0.222 C 
ATOM     16  N   LIG A   1      -9.055   4.222 131.064  0.00  0.00    -0.242 N 
ATOM     17  C   LIG A   1      -8.525   5.146 132.058  0.00  0.00    +0.116 C 
ATOM     18  C   LIG A   1      -8.011   6.429 131.412  0.00  0.00    +0.020 C 
ATOM     19  C   LIG A   1      -9.115   7.050 130.560  0.00  0.00    +0.011 C 
ATOM     20  C   LIG A   1      -9.670   6.037 129.568  0.00  0.00    +0.096 C 
ATOM     21  C   LIG A   1     -10.044   4.732 130.242  0.00  0.00    +0.222 C 
ATOM     22  O   LIG A   1     -11.094   4.135 129.990  0.00  0.00    -0.275 OA
ATOM     23  O   LIG A   1      -7.055   3.085 130.994  0.00  0.00    -0.275 OA
ENDBRANCH  14  15
ENDBRANCH  13  14
ENDBRANCH   5  13
TORSDOF 6
ENDMDL
MODEL 9
REMARK VINA RESULT:      -6.2     10.236     10.793
REMARK  Name = NuBBE_27
REMARK  9 active torsions:
REMARK  status: ('A' for Active; 'I' for Inactive)
REMARK    1  A    between atoms: C_1  and  O_2
REMARK    2  A    between atoms: O_2  and  C_3
REMARK    3  A    between atoms: C_4  and  O_5
REMARK    4  A    between atoms: O_5  and  C_6
REMARK    5  A    between atoms: C_7  and  O_8
REMARK    6  A    between atoms: O_8  and  C_9
REMARK    7  A    between atoms: C_11  and  C_12
REMARK    8  A    between atoms: C_12  and  C_13
REMARK    9  A    between atoms: C_13  and  C_14
REMARK                            x       y       z     vdW  Elec       q    Type
REMARK                         _______ _______ _______ _____ _____    ______ ____
ROOT
ATOM      1  C   LIG A   1      -6.390  -3.201 132.469  0.00  0.00    +0.165 A 
ATOM      2  C   LIG A   1      -5.027  -3.374 132.144  0.00  0.00    +0.203 A 
ATOM      3  C   LIG A   1      -4.650  -3.445 130.776  0.00  0.00    +0.165 A 
ATOM      4  C   LIG A   1      -5.628  -3.345 129.776  0.00  0.00    +0.053 A 
ATOM      5  C   LIG A   1      -6.972  -3.152 130.098  0.00  0.00    -0.040 A 
ATOM      6  C   LIG A   1      -7.327  -3.045 131.441  0.00  0.00    +0.053 A 
ENDROOT
BRANCH   1   8
ATOM      7  C   LIG A   1      -8.201  -3.077 134.012  0.00  0.00    +0.277 C 
ATOM      8  O   LIG A   1      -6.796  -3.168 133.780  0.00  0.00    -0.491 OA
ENDBRANCH   1   8
BRANCH   2   9
ATOM      9  O   LIG A   1      -4.008  -3.572 133.051  0.00  0.00    -0.488 OA
ATOM     10  C   LIG A   1      -3.439  -2.426 133.673  0.00  0.00    +0.277 C 
ENDBRANCH   2   9
BRANCH   3  11
ATOM     11  O   LIG A   1      -3.311  -3.615 130.492  0.00  0.00    -0.491 OA
ATOM     12  C   LIG A   1      -2.945  -3.671 129.114  0.00  0.00    +0.277 C 
ENDBRANCH   3  11
BRANCH   5  13
ATOM     13  C   LIG A   1      -8.034  -3.132 129.025  0.00  0.00    +0.044 C 
BRANCH  13  14
ATOM     14  C   LIG A   1      -7.522  -2.609 127.689  0.00  0.00    +0.101 C 
BRANCH  14  15
ATOM     15  C   LIG A   1      -8.357  -3.157 126.542  0.00  0.00    +0.222 C 
ATOM     16  N   LIG A   1      -7.744  -3.306 125.304  0.00  0.00    -0.242 N 
ATOM     17  C   LIG A   1      -8.566  -3.756 124.188  0.00  0.00    +0.116 C 
ATOM     18  C   LIG A   1      -9.078  -2.582 123.359  0.00  0.00    +0.020 C 
ATOM     19  C   LIG A   1      -7.899  -1.720 122.913  0.00  0.00    +0.011 C 
ATOM     20  C   LIG A   1      -7.045  -1.311 124.105  0.00  0.00    +0.096 C 
ATOM     21  C   LIG A   1      -6.672  -2.499 124.969  0.00  0.00    +0.222 C 
ATOM     22  O   LIG A   1      -5.533  -2.662 125.414  0.00  0.00    -0.275 OA
ATOM     23  O   LIG A   1      -9.548  -3.416 126.729  0.00  0.00    -0.275 OA
ENDBRANCH  14  15
ENDBRANCH  13  14
ENDBRANCH   5  13
TORSDOF 6
ENDMDL
