MODEL 1
REMARK VINA RESULT:      -8.7      0.000      0.000
REMARK  Name = NuBBE_1207
REMARK  12 active torsions:
REMARK  status: ('A' for Active; 'I' for Inactive)
REMARK    1  A    between atoms: O_1  and  C_2
REMARK    2  A    between atoms: C_4  and  O_37
REMARK    3  A    between atoms: C_7  and  C_36
REMARK    4  A    between atoms: C_9  and  C_10
REMARK    5  A    between atoms: C_9  and  C_11
REMARK    6  A    between atoms: C_11  and  O_12
REMARK    7  A    between atoms: C_15  and  C_35
REMARK    8  A    between atoms: C_20  and  C_34
REMARK    9  A    between atoms: C_23  and  C_31
REMARK   10  A    between atoms: C_26  and  C_27
REMARK   11  A    between atoms: C_26  and  C_30
REMARK   12  A    between atoms: C_31  and  O_32
REMARK                            x       y       z     vdW  Elec       q    Type
REMARK                         _______ _______ _______ _____ _____    ______ ____
ROOT
ATOM      1  C   LIG A   1      -3.872  -3.969 134.508  0.00  0.00    +0.151 C 
ATOM      2  C   LIG A   1      -3.315  -4.733 133.299  0.00  0.00    +0.144 C 
ATOM      3  C   LIG A   1      -3.624  -4.036 131.977  0.00  0.00    +0.041 C 
ATOM      4  C   LIG A   1      -5.141  -3.756 131.750  0.00  0.00    -0.022 C 
ATOM      5  C   LIG A   1      -5.672  -2.981 133.022  0.00  0.00    +0.006 C 
ATOM      6  C   LIG A   1      -5.403  -3.690 134.416  0.00  0.00    +0.023 C 
ATOM      7  C   LIG A   1      -5.770  -2.714 135.570  0.00  0.00    +0.016 C 
ATOM      8  C   LIG A   1      -7.094  -2.419 132.810  0.00  0.00    +0.005 C 
ATOM      9  C   LIG A   1      -7.193  -1.515 131.567  0.00  0.00    +0.008 C 
ATOM     10  C   LIG A   1      -6.741  -2.202 130.254  0.00  0.00    -0.019 C 
ATOM     11  C   LIG A   1      -5.298  -2.794 130.498  0.00  0.00    +0.006 C 
ATOM     12  C   LIG A   1      -4.615  -3.300 129.192  0.00  0.00    +0.031 C 
ATOM     13  C   LIG A   1      -5.281  -2.918 127.895  0.00  0.00    -0.026 C 
ATOM     14  C   LIG A   1      -6.273  -2.012 127.781  0.00  0.00    -0.063 C 
ATOM     15  C   LIG A   1      -6.647  -1.174 129.015  0.00  0.00    -0.005 C 
ATOM     16  C   LIG A   1      -7.969  -0.392 128.760  0.00  0.00    +0.012 C 
ATOM     17  C   LIG A   1      -7.965   0.401 127.442  0.00  0.00    +0.019 C 
ATOM     18  C   LIG A   1      -7.576  -0.452 126.192  0.00  0.00    +0.074 C 
ATOM     19  C   LIG A   1      -7.228  -1.919 126.578  0.00  0.00    +0.033 C 
ATOM     20  C   LIG A   1      -6.881  -2.767 125.322  0.00  0.00    +0.015 C 
ATOM     21  C   LIG A   1      -5.927  -2.097 124.305  0.00  0.00    -0.034 C 
ATOM     22  C   LIG A   1      -4.764  -3.057 123.979  0.00  0.00    +0.011 C 
ATOM     23  C   LIG A   1      -5.350  -0.785 124.860  0.00  0.00    +0.007 C 
ATOM     24  C   LIG A   1      -6.392   0.198 125.414  0.00  0.00    +0.019 C 
ATOM     25  C   LIG A   1      -6.670  -1.835 122.977  0.00  0.00    +0.011 C 
ATOM     26  C   LIG A   1      -5.539  -0.092 129.219  0.00  0.00    +0.016 C 
ATOM     27  C   LIG A   1      -7.796  -3.305 129.921  0.00  0.00    +0.012 C 
ATOM     28  C   LIG A   1      -5.850  -5.109 131.505  0.00  0.00    +0.012 C 
ENDROOT
BRANCH   1  29
ATOM     29  O   LIG A   1      -3.528  -4.728 135.678  0.00  0.00    -0.389 OA
ATOM     30  H   LIG A   1      -3.506  -4.111 136.430  0.00  0.00    +0.210 HD
ENDBRANCH   1  29
BRANCH  18  31
ATOM     31  C   LIG A   1      -8.858  -0.475 125.344  0.00  0.00    +0.311 C 
ATOM     32  O   LIG A   1      -9.834  -1.198 125.513  0.00  0.00    -0.250 OA
BRANCH  31  33
ATOM     33  O   LIG A   1      -8.916   0.472 124.392  0.00  0.00    -0.480 OA
ATOM     34  H   LIG A   1      -9.598   1.095 124.720  0.00  0.00    +0.295 HD
ENDBRANCH  31  33
ENDBRANCH  18  31
BRANCH   2  35
ATOM     35  O   LIG A   1      -1.890  -4.828 133.438  0.00  0.00    -0.389 OA
ATOM     36  H   LIG A   1      -1.688  -4.350 134.266  0.00  0.00    +0.210 HD
ENDBRANCH   2  35
BRANCH   6  37
ATOM     37  C   LIG A   1      -6.194  -4.996 134.682  0.00  0.00    +0.165 C 
BRANCH  37  38
ATOM     38  O   LIG A   1      -6.388  -5.222 136.072  0.00  0.00    -0.394 OA
ATOM     39  H   LIG A   1      -7.333  -5.417 136.200  0.00  0.00    +0.209 HD
ENDBRANCH  37  38
ENDBRANCH   6  37
TORSDOF 6
ENDMDL
MODEL 2
REMARK VINA RESULT:      -8.5      5.071      6.960
REMARK  Name = NuBBE_1207
REMARK  12 active torsions:
REMARK  status: ('A' for Active; 'I' for Inactive)
REMARK    1  A    between atoms: O_1  and  C_2
REMARK    2  A    between atoms: C_4  and  O_37
REMARK    3  A    between atoms: C_7  and  C_36
REMARK    4  A    between atoms: C_9  and  C_10
REMARK    5  A    between atoms: C_9  and  C_11
REMARK    6  A    between atoms: C_11  and  O_12
REMARK    7  A    between atoms: C_15  and  C_35
REMARK    8  A    between atoms: C_20  and  C_34
REMARK    9  A    between atoms: C_23  and  C_31
REMARK   10  A    between atoms: C_26  and  C_27
REMARK   11  A    between atoms: C_26  and  C_30
REMARK   12  A    between atoms: C_31  and  O_32
REMARK                            x       y       z     vdW  Elec       q    Type
REMARK                         _______ _______ _______ _____ _____    ______ ____
ROOT
ATOM      1  C   LIG A   1      -3.859   6.546 129.505  0.00  0.00    +0.151 C 
ATOM      2  C   LIG A   1      -2.847   5.554 128.915  0.00  0.00    +0.144 C 
ATOM      3  C   LIG A   1      -3.509   4.508 128.022  0.00  0.00    +0.041 C 
ATOM      4  C   LIG A   1      -4.655   3.715 128.721  0.00  0.00    -0.022 C 
ATOM      5  C   LIG A   1      -5.664   4.775 129.321  0.00  0.00    +0.006 C 
ATOM      6  C   LIG A   1      -5.021   5.859 130.285  0.00  0.00    +0.023 C 
ATOM      7  C   LIG A   1      -6.079   6.953 130.607  0.00  0.00    +0.016 C 
ATOM      8  C   LIG A   1      -6.973   4.120 129.813  0.00  0.00    +0.005 C 
ATOM      9  C   LIG A   1      -7.671   3.298 128.714  0.00  0.00    +0.008 C 
ATOM     10  C   LIG A   1      -6.777   2.193 128.094  0.00  0.00    -0.019 C 
ATOM     11  C   LIG A   1      -5.434   2.875 127.623  0.00  0.00    +0.006 C 
ATOM     12  C   LIG A   1      -4.540   1.935 126.759  0.00  0.00    +0.031 C 
ATOM     13  C   LIG A   1      -5.178   0.656 126.281  0.00  0.00    -0.026 C 
ATOM     14  C   LIG A   1      -6.495   0.380 126.360  0.00  0.00    -0.063 C 
ATOM     15  C   LIG A   1      -7.454   1.498 126.805  0.00  0.00    -0.005 C 
ATOM     16  C   LIG A   1      -8.870   0.917 127.089  0.00  0.00    +0.012 C 
ATOM     17  C   LIG A   1      -9.413   0.045 125.944  0.00  0.00    +0.019 C 
ATOM     18  C   LIG A   1      -8.433  -1.083 125.489  0.00  0.00    +0.074 C 
ATOM     19  C   LIG A   1      -7.091  -1.036 126.276  0.00  0.00    +0.033 C 
ATOM     20  C   LIG A   1      -6.141  -2.187 125.843  0.00  0.00    +0.015 C 
ATOM     21  C   LIG A   1      -6.016  -2.413 124.317  0.00  0.00    -0.034 C 
ATOM     22  C   LIG A   1      -4.525  -2.446 123.920  0.00  0.00    +0.011 C 
ATOM     23  C   LIG A   1      -6.718  -1.296 123.527  0.00  0.00    +0.007 C 
ATOM     24  C   LIG A   1      -8.164  -1.010 123.955  0.00  0.00    +0.019 C 
ATOM     25  C   LIG A   1      -6.606  -3.788 123.937  0.00  0.00    +0.011 C 
ATOM     26  C   LIG A   1      -7.626   2.491 125.611  0.00  0.00    +0.016 C 
ATOM     27  C   LIG A   1      -6.549   1.110 129.195  0.00  0.00    +0.012 C 
ATOM     28  C   LIG A   1      -4.021   2.787 129.784  0.00  0.00    +0.012 C 
ENDROOT
BRANCH   1  29
ATOM     29  O   LIG A   1      -3.119   7.460 130.328  0.00  0.00    -0.389 OA
ATOM     30  H   LIG A   1      -3.711   8.200 130.549  0.00  0.00    +0.210 HD
ENDBRANCH   1  29
BRANCH  18  31
ATOM     31  C   LIG A   1      -9.161  -2.383 125.869  0.00  0.00    +0.311 C 
ATOM     32  O   LIG A   1      -9.136  -2.944 126.959  0.00  0.00    -0.250 OA
BRANCH  31  33
ATOM     33  O   LIG A   1      -9.971  -2.870 124.913  0.00  0.00    -0.480 OA
ATOM     34  H   LIG A   1     -10.433  -3.615 125.352  0.00  0.00    +0.295 HD
ENDBRANCH  31  33
ENDBRANCH  18  31
BRANCH   2  35
ATOM     35  O   LIG A   1      -1.899   6.286 128.127  0.00  0.00    -0.389 OA
ATOM     36  H   LIG A   1      -1.106   5.716 128.097  0.00  0.00    +0.210 HD
ENDBRANCH   2  35
BRANCH   6  37
ATOM     37  C   LIG A   1      -4.504   5.339 131.651  0.00  0.00    +0.165 C 
BRANCH  37  38
ATOM     38  O   LIG A   1      -4.501   6.360 132.639  0.00  0.00    -0.394 OA
ATOM     39  H   LIG A   1      -5.422   6.656 132.748  0.00  0.00    +0.209 HD
ENDBRANCH  37  38
ENDBRANCH   6  37
TORSDOF 6
ENDMDL
MODEL 3
REMARK VINA RESULT:      -8.4      2.766      3.888
REMARK  Name = NuBBE_1207
REMARK  12 active torsions:
REMARK  status: ('A' for Active; 'I' for Inactive)
REMARK    1  A    between atoms: O_1  and  C_2
REMARK    2  A    between atoms: C_4  and  O_37
REMARK    3  A    between atoms: C_7  and  C_36
REMARK    4  A    between atoms: C_9  and  C_10
REMARK    5  A    between atoms: C_9  and  C_11
REMARK    6  A    between atoms: C_11  and  O_12
REMARK    7  A    between atoms: C_15  and  C_35
REMARK    8  A    between atoms: C_20  and  C_34
REMARK    9  A    between atoms: C_23  and  C_31
REMARK   10  A    between atoms: C_26  and  C_27
REMARK   11  A    between atoms: C_26  and  C_30
REMARK   12  A    between atoms: C_31  and  O_32
REMARK                            x       y       z     vdW  Elec       q    Type
REMARK                         _______ _______ _______ _____ _____    ______ ____
ROOT
ATOM      1  C   LIG A   1      -3.056   0.453 132.739  0.00  0.00    +0.151 C 
ATOM      2  C   LIG A   1      -3.477  -0.992 132.437  0.00  0.00    +0.144 C 
ATOM      3  C   LIG A   1      -4.006  -1.159 131.015  0.00  0.00    +0.041 C 
ATOM      4  C   LIG A   1      -5.181  -0.199 130.660  0.00  0.00    -0.022 C 
ATOM      5  C   LIG A   1      -4.707   1.272 130.998  0.00  0.00    +0.006 C 
ATOM      6  C   LIG A   1      -4.184   1.497 132.479  0.00  0.00    +0.023 C 
ATOM      7  C   LIG A   1      -3.546   2.911 132.590  0.00  0.00    +0.016 C 
ATOM      8  C   LIG A   1      -5.680   2.338 130.452  0.00  0.00    +0.005 C 
ATOM      9  C   LIG A   1      -5.919   2.200 128.936  0.00  0.00    +0.008 C 
ATOM     10  C   LIG A   1      -6.436   0.803 128.508  0.00  0.00    -0.019 C 
ATOM     11  C   LIG A   1      -5.445  -0.274 129.097  0.00  0.00    +0.006 C 
ATOM     12  C   LIG A   1      -5.699  -1.708 128.543  0.00  0.00    +0.031 C 
ATOM     13  C   LIG A   1      -6.633  -1.817 127.365  0.00  0.00    -0.026 C 
ATOM     14  C   LIG A   1      -7.076  -0.770 126.640  0.00  0.00    -0.063 C 
ATOM     15  C   LIG A   1      -6.467   0.618 126.906  0.00  0.00    -0.005 C 
ATOM     16  C   LIG A   1      -7.287   1.719 126.173  0.00  0.00    +0.012 C 
ATOM     17  C   LIG A   1      -7.525   1.414 124.683  0.00  0.00    +0.019 C 
ATOM     18  C   LIG A   1      -8.135   0.001 124.417  0.00  0.00    +0.074 C 
ATOM     19  C   LIG A   1      -8.320  -0.807 125.735  0.00  0.00    +0.033 C 
ATOM     20  C   LIG A   1      -8.964  -2.195 125.461  0.00  0.00    +0.015 C 
ATOM     21  C   LIG A   1      -8.372  -2.983 124.268  0.00  0.00    -0.034 C 
ATOM     22  C   LIG A   1      -8.011  -4.413 124.723  0.00  0.00    +0.011 C 
ATOM     23  C   LIG A   1      -7.110  -2.301 123.717  0.00  0.00    +0.007 C 
ATOM     24  C   LIG A   1      -7.265  -0.805 123.405  0.00  0.00    +0.019 C 
ATOM     25  C   LIG A   1      -9.431  -3.127 123.154  0.00  0.00    +0.011 C 
ATOM     26  C   LIG A   1      -5.040   0.649 126.272  0.00  0.00    +0.016 C 
ATOM     27  C   LIG A   1      -7.887   0.656 129.066  0.00  0.00    +0.012 C 
ATOM     28  C   LIG A   1      -6.429  -0.649 131.457  0.00  0.00    +0.012 C 
ENDROOT
BRANCH   1  29
ATOM     29  O   LIG A   1      -2.595   0.479 134.099  0.00  0.00    -0.389 OA
ATOM     30  H   LIG A   1      -3.256   0.014 134.641  0.00  0.00    +0.210 HD
ENDBRANCH   1  29
BRANCH  18  31
ATOM     31  C   LIG A   1      -9.529   0.300 123.844  0.00  0.00    +0.311 C 
ATOM     32  O   LIG A   1      -9.934   0.019 122.721  0.00  0.00    -0.250 OA
BRANCH  31  33
ATOM     33  O   LIG A   1     -10.392   0.838 124.723  0.00  0.00    -0.480 OA
ATOM     34  H   LIG A   1     -10.789   0.061 125.170  0.00  0.00    +0.295 HD
ENDBRANCH  31  33
ENDBRANCH  18  31
BRANCH   2  35
ATOM     35  O   LIG A   1      -2.334  -1.842 132.598  0.00  0.00    -0.389 OA
ATOM     36  H   LIG A   1      -2.391  -2.167 133.518  0.00  0.00    +0.210 HD
ENDBRANCH   2  35
BRANCH   6  37
ATOM     37  C   LIG A   1      -5.250   1.412 133.601  0.00  0.00    +0.165 C 
BRANCH  37  38
ATOM     38  O   LIG A   1      -4.822   2.065 134.788  0.00  0.00    -0.394 OA
ATOM     39  H   LIG A   1      -3.865   1.905 134.873  0.00  0.00    +0.209 HD
ENDBRANCH  37  38
ENDBRANCH   6  37
TORSDOF 6
ENDMDL
MODEL 4
REMARK VINA RESULT:      -8.3      1.999      8.414
REMARK  Name = NuBBE_1207
REMARK  12 active torsions:
REMARK  status: ('A' for Active; 'I' for Inactive)
REMARK    1  A    between atoms: O_1  and  C_2
REMARK    2  A    between atoms: C_4  and  O_37
REMARK    3  A    between atoms: C_7  and  C_36
REMARK    4  A    between atoms: C_9  and  C_10
REMARK    5  A    between atoms: C_9  and  C_11
REMARK    6  A    between atoms: C_11  and  O_12
REMARK    7  A    between atoms: C_15  and  C_35
REMARK    8  A    between atoms: C_20  and  C_34
REMARK    9  A    between atoms: C_23  and  C_31
REMARK   10  A    between atoms: C_26  and  C_27
REMARK   11  A    between atoms: C_26  and  C_30
REMARK   12  A    between atoms: C_31  and  O_32
REMARK                            x       y       z     vdW  Elec       q    Type
REMARK                         _______ _______ _______ _____ _____    ______ ____
ROOT
ATOM      1  C   LIG A   1      -6.911  -2.802 124.348  0.00  0.00    +0.151 C 
ATOM      2  C   LIG A   1      -5.652  -2.022 124.750  0.00  0.00    +0.144 C 
ATOM      3  C   LIG A   1      -5.244  -2.282 126.198  0.00  0.00    +0.041 C 
ATOM      4  C   LIG A   1      -6.374  -1.998 127.234  0.00  0.00    -0.022 C 
ATOM      5  C   LIG A   1      -7.650  -2.811 126.773  0.00  0.00    +0.006 C 
ATOM      6  C   LIG A   1      -8.130  -2.542 125.284  0.00  0.00    +0.023 C 
ATOM      7  C   LIG A   1      -9.237  -3.567 124.907  0.00  0.00    +0.016 C 
ATOM      8  C   LIG A   1      -8.755  -2.820 127.851  0.00  0.00    +0.005 C 
ATOM      9  C   LIG A   1      -8.255  -3.357 129.205  0.00  0.00    +0.008 C 
ATOM     10  C   LIG A   1      -7.032  -2.591 129.769  0.00  0.00    -0.019 C 
ATOM     11  C   LIG A   1      -5.924  -2.567 128.645  0.00  0.00    +0.006 C 
ATOM     12  C   LIG A   1      -4.546  -2.045 129.153  0.00  0.00    +0.031 C 
ATOM     13  C   LIG A   1      -4.392  -1.903 130.646  0.00  0.00    -0.026 C 
ATOM     14  C   LIG A   1      -5.259  -2.391 131.556  0.00  0.00    -0.063 C 
ATOM     15  C   LIG A   1      -6.397  -3.305 131.069  0.00  0.00    -0.005 C 
ATOM     16  C   LIG A   1      -7.430  -3.541 132.210  0.00  0.00    +0.012 C 
ATOM     17  C   LIG A   1      -6.786  -3.992 133.532  0.00  0.00    +0.019 C 
ATOM     18  C   LIG A   1      -5.625  -3.067 134.019  0.00  0.00    +0.074 C 
ATOM     19  C   LIG A   1      -5.348  -1.910 133.015  0.00  0.00    +0.033 C 
ATOM     20  C   LIG A   1      -4.218  -0.975 133.528  0.00  0.00    +0.015 C 
ATOM     21  C   LIG A   1      -2.966  -1.686 134.096  0.00  0.00    -0.034 C 
ATOM     22  C   LIG A   1      -1.699  -1.111 133.429  0.00  0.00    +0.011 C 
ATOM     23  C   LIG A   1      -3.020  -3.201 133.840  0.00  0.00    +0.007 C 
ATOM     24  C   LIG A   1      -4.324  -3.885 134.275  0.00  0.00    +0.019 C 
ATOM     25  C   LIG A   1      -2.838  -1.403 135.608  0.00  0.00    +0.011 C 
ATOM     26  C   LIG A   1      -5.787  -4.706 130.743  0.00  0.00    +0.016 C 
ATOM     27  C   LIG A   1      -7.521  -1.161 130.163  0.00  0.00    +0.012 C 
ATOM     28  C   LIG A   1      -6.598  -0.469 127.296  0.00  0.00    +0.012 C 
ENDROOT
BRANCH   1  29
ATOM     29  O   LIG A   1      -7.195  -2.464 122.981  0.00  0.00    -0.389 OA
ATOM     30  H   LIG A   1      -6.393  -2.648 122.462  0.00  0.00    +0.210 HD
ENDBRANCH   1  29
BRANCH  18  31
ATOM     31  C   LIG A   1      -6.163  -2.448 135.319  0.00  0.00    +0.311 C 
ATOM     32  O   LIG A   1      -6.911  -1.480 135.414  0.00  0.00    -0.250 OA
BRANCH  31  33
ATOM     33  O   LIG A   1      -5.836  -3.120 136.436  0.00  0.00    -0.480 OA
ATOM     34  H   LIG A   1      -5.568  -2.419 137.065  0.00  0.00    +0.295 HD
ENDBRANCH  31  33
ENDBRANCH  18  31
BRANCH   2  35
ATOM     35  O   LIG A   1      -4.573  -2.428 123.897  0.00  0.00    -0.389 OA
ATOM     36  H   LIG A   1      -4.842  -2.141 123.002  0.00  0.00    +0.210 HD
ENDBRANCH   2  35
BRANCH   6  37
ATOM     37  C   LIG A   1      -8.723  -1.138 125.000  0.00  0.00    +0.165 C 
BRANCH  37  38
ATOM     38  O   LIG A   1      -9.554  -1.138 123.848  0.00  0.00    -0.394 OA
ATOM     39  H   LIG A   1      -9.332  -0.340 123.335  0.00  0.00    +0.209 HD
ENDBRANCH  37  38
ENDBRANCH   6  37
TORSDOF 6
ENDMDL
MODEL 5
REMARK VINA RESULT:      -8.1      5.053      9.556
REMARK  Name = NuBBE_1207
REMARK  12 active torsions:
REMARK  status: ('A' for Active; 'I' for Inactive)
REMARK    1  A    between atoms: O_1  and  C_2
REMARK    2  A    between atoms: C_4  and  O_37
REMARK    3  A    between atoms: C_7  and  C_36
REMARK    4  A    between atoms: C_9  and  C_10
REMARK    5  A    between atoms: C_9  and  C_11
REMARK    6  A    between atoms: C_11  and  O_12
REMARK    7  A    between atoms: C_15  and  C_35
REMARK    8  A    between atoms: C_20  and  C_34
REMARK    9  A    between atoms: C_23  and  C_31
REMARK   10  A    between atoms: C_26  and  C_27
REMARK   11  A    between atoms: C_26  and  C_30
REMARK   12  A    between atoms: C_31  and  O_32
REMARK                            x       y       z     vdW  Elec       q    Type
REMARK                         _______ _______ _______ _____ _____    ______ ____
ROOT
ATOM      1  C   LIG A   1      -8.927   0.076 123.609  0.00  0.00    +0.151 C 
ATOM      2  C   LIG A   1      -9.843   0.633 124.707  0.00  0.00    +0.144 C 
ATOM      3  C   LIG A   1      -9.123   1.622 125.620  0.00  0.00    +0.041 C 
ATOM      4  C   LIG A   1      -7.828   1.051 126.274  0.00  0.00    -0.022 C 
ATOM      5  C   LIG A   1      -6.924   0.480 125.109  0.00  0.00    +0.006 C 
ATOM      6  C   LIG A   1      -7.624  -0.580 124.158  0.00  0.00    +0.023 C 
ATOM      7  C   LIG A   1      -6.699  -0.871 122.942  0.00  0.00    +0.016 C 
ATOM      8  C   LIG A   1      -5.504   0.122 125.596  0.00  0.00    +0.005 C 
ATOM      9  C   LIG A   1      -4.795   1.308 126.275  0.00  0.00    +0.008 C 
ATOM     10  C   LIG A   1      -5.581   1.909 127.468  0.00  0.00    -0.019 C 
ATOM     11  C   LIG A   1      -7.037   2.244 126.960  0.00  0.00    +0.006 C 
ATOM     12  C   LIG A   1      -7.866   3.080 127.981  0.00  0.00    +0.031 C 
ATOM     13  C   LIG A   1      -7.105   3.665 129.143  0.00  0.00    -0.026 C 
ATOM     14  C   LIG A   1      -5.760   3.699 129.239  0.00  0.00    -0.063 C 
ATOM     15  C   LIG A   1      -4.926   3.277 128.017  0.00  0.00    -0.005 C 
ATOM     16  C   LIG A   1      -3.427   3.130 128.409  0.00  0.00    +0.012 C 
ATOM     17  C   LIG A   1      -2.868   4.352 129.157  0.00  0.00    +0.019 C 
ATOM     18  C   LIG A   1      -3.723   4.784 130.392  0.00  0.00    +0.074 C 
ATOM     19  C   LIG A   1      -4.990   3.895 130.556  0.00  0.00    +0.033 C 
ATOM     20  C   LIG A   1      -5.811   4.308 131.810  0.00  0.00    +0.015 C 
ATOM     21  C   LIG A   1      -6.029   5.829 131.996  0.00  0.00    -0.034 C 
ATOM     22  C   LIG A   1      -7.529   6.112 132.217  0.00  0.00    +0.011 C 
ATOM     23  C   LIG A   1      -5.550   6.617 130.766  0.00  0.00    +0.007 C 
ATOM     24  C   LIG A   1      -4.124   6.287 130.300  0.00  0.00    +0.019 C 
ATOM     25  C   LIG A   1      -5.294   6.317 133.263  0.00  0.00    +0.011 C 
ATOM     26  C   LIG A   1      -4.986   4.432 126.968  0.00  0.00    +0.016 C 
ATOM     27  C   LIG A   1      -5.572   0.845 128.611  0.00  0.00    +0.012 C 
ATOM     28  C   LIG A   1      -8.244  -0.013 127.318  0.00  0.00    +0.012 C 
ENDROOT
BRANCH   1  29
ATOM     29  O   LIG A   1      -9.713  -0.843 122.834  0.00  0.00    -0.389 OA
ATOM     30  H   LIG A   1     -10.643  -0.569 122.912  0.00  0.00    +0.210 HD
ENDBRANCH   1  29
BRANCH  18  31
ATOM     31  C   LIG A   1      -2.800   4.522 131.593  0.00  0.00    +0.311 C 
ATOM     32  O   LIG A   1      -2.708   3.479 132.232  0.00  0.00    -0.250 OA
BRANCH  31  33
ATOM     33  O   LIG A   1      -1.956   5.528 131.879  0.00  0.00    -0.480 OA
ATOM     34  H   LIG A   1      -1.117   5.263 131.447  0.00  0.00    +0.295 HD
ENDBRANCH  31  33
ENDBRANCH  18  31
BRANCH   2  35
ATOM     35  O   LIG A   1     -10.942   1.311 124.083  0.00  0.00    -0.389 OA
ATOM     36  H   LIG A   1     -11.164   2.041 124.694  0.00  0.00    +0.210 HD
ENDBRANCH   2  35
BRANCH   6  37
ATOM     37  C   LIG A   1      -7.953  -1.955 124.793  0.00  0.00    +0.165 C 
BRANCH  37  38
ATOM     38  O   LIG A   1      -8.013  -2.987 123.818  0.00  0.00    -0.394 OA
ATOM     39  H   LIG A   1      -8.428  -2.606 123.023  0.00  0.00    +0.209 HD
ENDBRANCH  37  38
ENDBRANCH   6  37
TORSDOF 6
ENDMDL
MODEL 6
REMARK VINA RESULT:      -8.0      2.115      3.109
REMARK  Name = NuBBE_1207
REMARK  12 active torsions:
REMARK  status: ('A' for Active; 'I' for Inactive)
REMARK    1  A    between atoms: O_1  and  C_2
REMARK    2  A    between atoms: C_4  and  O_37
REMARK    3  A    between atoms: C_7  and  C_36
REMARK    4  A    between atoms: C_9  and  C_10
REMARK    5  A    between atoms: C_9  and  C_11
REMARK    6  A    between atoms: C_11  and  O_12
REMARK    7  A    between atoms: C_15  and  C_35
REMARK    8  A    between atoms: C_20  and  C_34
REMARK    9  A    between atoms: C_23  and  C_31
REMARK   10  A    between atoms: C_26  and  C_27
REMARK   11  A    between atoms: C_26  and  C_30
REMARK   12  A    between atoms: C_31  and  O_32
REMARK                            x       y       z     vdW  Elec       q    Type
REMARK                         _______ _______ _______ _____ _____    ______ ____
ROOT
ATOM      1  C   LIG A   1      -3.574  -1.213 134.609  0.00  0.00    +0.151 C 
ATOM      2  C   LIG A   1      -3.085  -0.218 133.548  0.00  0.00    +0.144 C 
ATOM      3  C   LIG A   1      -4.009  -0.161 132.334  0.00  0.00    +0.041 C 
ATOM      4  C   LIG A   1      -4.257  -1.545 131.663  0.00  0.00    -0.022 C 
ATOM      5  C   LIG A   1      -4.746  -2.537 132.793  0.00  0.00    +0.006 C 
ATOM      6  C   LIG A   1      -3.794  -2.654 134.058  0.00  0.00    +0.023 C 
ATOM      7  C   LIG A   1      -4.510  -3.475 135.167  0.00  0.00    +0.016 C 
ATOM      8  C   LIG A   1      -5.271  -3.868 132.214  0.00  0.00    +0.005 C 
ATOM      9  C   LIG A   1      -6.393  -3.660 131.179  0.00  0.00    +0.008 C 
ATOM     10  C   LIG A   1      -5.994  -2.739 129.998  0.00  0.00    -0.019 C 
ATOM     11  C   LIG A   1      -5.434  -1.396 130.609  0.00  0.00    +0.006 C 
ATOM     12  C   LIG A   1      -5.222  -0.279 129.543  0.00  0.00    +0.031 C 
ATOM     13  C   LIG A   1      -5.816  -0.531 128.181  0.00  0.00    -0.026 C 
ATOM     14  C   LIG A   1      -6.680  -1.526 127.893  0.00  0.00    -0.063 C 
ATOM     15  C   LIG A   1      -7.246  -2.364 129.053  0.00  0.00    -0.005 C 
ATOM     16  C   LIG A   1      -7.999  -3.611 128.503  0.00  0.00    +0.012 C 
ATOM     17  C   LIG A   1      -9.031  -3.270 127.415  0.00  0.00    +0.019 C 
ATOM     18  C   LIG A   1      -8.455  -2.410 126.244  0.00  0.00    +0.074 C 
ATOM     19  C   LIG A   1      -6.959  -2.048 126.474  0.00  0.00    +0.033 C 
ATOM     20  C   LIG A   1      -6.387  -1.228 125.284  0.00  0.00    +0.015 C 
ATOM     21  C   LIG A   1      -7.285  -0.076 124.773  0.00  0.00    -0.034 C 
ATOM     22  C   LIG A   1      -6.462   1.227 124.700  0.00  0.00    +0.011 C 
ATOM     23  C   LIG A   1      -8.490   0.147 125.700  0.00  0.00    +0.007 C 
ATOM     24  C   LIG A   1      -9.298  -1.117 126.029  0.00  0.00    +0.019 C 
ATOM     25  C   LIG A   1      -7.764  -0.378 123.336  0.00  0.00    +0.011 C 
ATOM     26  C   LIG A   1      -8.318  -1.504 129.794  0.00  0.00    +0.016 C 
ATOM     27  C   LIG A   1      -4.928  -3.506 129.152  0.00  0.00    +0.012 C 
ATOM     28  C   LIG A   1      -2.945  -1.987 130.972  0.00  0.00    +0.012 C 
ENDROOT
BRANCH   1  29
ATOM     29  O   LIG A   1      -2.620  -1.183 135.683  0.00  0.00    -0.389 OA
ATOM     30  H   LIG A   1      -2.265  -2.083 135.783  0.00  0.00    +0.210 HD
ENDBRANCH   1  29
BRANCH  18  31
ATOM     31  C   LIG A   1      -8.537  -3.342 125.024  0.00  0.00    +0.311 C 
ATOM     32  O   LIG A   1      -7.740  -4.225 124.723  0.00  0.00    -0.250 OA
BRANCH  31  33
ATOM     33  O   LIG A   1      -9.656  -3.209 124.292  0.00  0.00    -0.480 OA
ATOM     34  H   LIG A   1      -9.343  -3.281 123.366  0.00  0.00    +0.295 HD
ENDBRANCH  31  33
ENDBRANCH  18  31
BRANCH   2  35
ATOM     35  O   LIG A   1      -3.032   1.088 134.138  0.00  0.00    -0.389 OA
ATOM     36  H   LIG A   1      -3.955   1.407 134.121  0.00  0.00    +0.210 HD
ENDBRANCH   2  35
BRANCH   6  37
ATOM     37  C   LIG A   1      -2.426  -3.343 133.822  0.00  0.00    +0.165 C 
BRANCH  37  38
ATOM     38  O   LIG A   1      -1.960  -4.008 134.988  0.00  0.00    -0.394 OA
ATOM     39  H   LIG A   1      -2.524  -3.718 135.727  0.00  0.00    +0.209 HD
ENDBRANCH  37  38
ENDBRANCH   6  37
TORSDOF 6
ENDMDL
MODEL 7
REMARK VINA RESULT:      -7.9      2.240      3.454
REMARK  Name = NuBBE_1207
REMARK  12 active torsions:
REMARK  status: ('A' for Active; 'I' for Inactive)
REMARK    1  A    between atoms: O_1  and  C_2
REMARK    2  A    between atoms: C_4  and  O_37
REMARK    3  A    between atoms: C_7  and  C_36
REMARK    4  A    between atoms: C_9  and  C_10
REMARK    5  A    between atoms: C_9  and  C_11
REMARK    6  A    between atoms: C_11  and  O_12
REMARK    7  A    between atoms: C_15  and  C_35
REMARK    8  A    between atoms: C_20  and  C_34
REMARK    9  A    between atoms: C_23  and  C_31
REMARK   10  A    between atoms: C_26  and  C_27
REMARK   11  A    between atoms: C_26  and  C_30
REMARK   12  A    between atoms: C_31  and  O_32
REMARK                            x       y       z     vdW  Elec       q    Type
REMARK                         _______ _______ _______ _____ _____    ______ ____
ROOT
ATOM      1  C   LIG A   1      -4.926  -3.591 132.337  0.00  0.00    +0.151 C 
ATOM      2  C   LIG A   1      -5.930  -4.295 131.415  0.00  0.00    +0.144 C 
ATOM      3  C   LIG A   1      -6.120  -3.559 130.091  0.00  0.00    +0.041 C 
ATOM      4  C   LIG A   1      -6.534  -2.065 130.252  0.00  0.00    -0.022 C 
ATOM      5  C   LIG A   1      -5.480  -1.385 131.217  0.00  0.00    +0.006 C 
ATOM      6  C   LIG A   1      -5.280  -2.099 132.620  0.00  0.00    +0.023 C 
ATOM      7  C   LIG A   1      -4.066  -1.461 133.353  0.00  0.00    +0.016 C 
ATOM      8  C   LIG A   1      -5.629   0.151 131.252  0.00  0.00    +0.005 C 
ATOM      9  C   LIG A   1      -5.540   0.785 129.851  0.00  0.00    +0.008 C 
ATOM     10  C   LIG A   1      -6.570   0.220 128.841  0.00  0.00    -0.019 C 
ATOM     11  C   LIG A   1      -6.424  -1.351 128.839  0.00  0.00    +0.006 C 
ATOM     12  C   LIG A   1      -7.224  -2.040 127.693  0.00  0.00    +0.031 C 
ATOM     13  C   LIG A   1      -7.779  -1.134 126.624  0.00  0.00    -0.026 C 
ATOM     14  C   LIG A   1      -7.453   0.167 126.477  0.00  0.00    -0.063 C 
ATOM     15  C   LIG A   1      -6.313   0.739 127.336  0.00  0.00    -0.005 C 
ATOM     16  C   LIG A   1      -6.271   2.291 127.217  0.00  0.00    +0.012 C 
ATOM     17  C   LIG A   1      -6.272   2.792 125.762  0.00  0.00    +0.019 C 
ATOM     18  C   LIG A   1      -7.426   2.201 124.891  0.00  0.00    +0.074 C 
ATOM     19  C   LIG A   1      -8.295   1.187 125.691  0.00  0.00    +0.033 C 
ATOM     20  C   LIG A   1      -9.463   0.637 124.826  0.00  0.00    +0.015 C 
ATOM     21  C   LIG A   1      -9.085   0.208 123.387  0.00  0.00    -0.034 C 
ATOM     22  C   LIG A   1      -9.607  -1.219 123.121  0.00  0.00    +0.011 C 
ATOM     23  C   LIG A   1      -7.562   0.229 123.179  0.00  0.00    +0.007 C 
ATOM     24  C   LIG A   1      -6.868   1.533 123.597  0.00  0.00    +0.019 C 
ATOM     25  C   LIG A   1      -9.778   1.132 122.363  0.00  0.00    +0.011 C 
ATOM     26  C   LIG A   1      -4.960   0.225 126.749  0.00  0.00    +0.016 C 
ATOM     27  C   LIG A   1      -7.984   0.692 129.308  0.00  0.00    +0.012 C 
ATOM     28  C   LIG A   1      -7.985  -2.021 130.786  0.00  0.00    +0.012 C 
ENDROOT
BRANCH   1  29
ATOM     29  O   LIG A   1      -4.848  -4.368 133.542  0.00  0.00    -0.389 OA
ATOM     30  H   LIG A   1      -5.085  -3.783 134.283  0.00  0.00    +0.210 HD
ENDBRANCH   1  29
BRANCH  18  31
ATOM     31  C   LIG A   1      -8.303   3.420 124.559  0.00  0.00    +0.311 C 
ATOM     32  O   LIG A   1      -8.971   4.077 125.350  0.00  0.00    -0.250 OA
BRANCH  31  33
ATOM     33  O   LIG A   1      -8.226   3.833 123.282  0.00  0.00    -0.480 OA
ATOM     34  H   LIG A   1      -8.551   4.757 123.313  0.00  0.00    +0.295 HD
ENDBRANCH  31  33
ENDBRANCH  18  31
BRANCH   2  35
ATOM     35  O   LIG A   1      -5.442  -5.614 131.133  0.00  0.00    -0.389 OA
ATOM     36  H   LIG A   1      -6.033  -5.955 130.433  0.00  0.00    +0.210 HD
ENDBRANCH   2  35
BRANCH   6  37
ATOM     37  C   LIG A   1      -6.474  -2.019 133.605  0.00  0.00    +0.165 C 
BRANCH  37  38
ATOM     38  O   LIG A   1      -6.356  -0.913 134.489  0.00  0.00    -0.394 OA
ATOM     39  H   LIG A   1      -6.911  -0.198 134.129  0.00  0.00    +0.209 HD
ENDBRANCH  37  38
ENDBRANCH   6  37
TORSDOF 6
ENDMDL
MODEL 8
REMARK VINA RESULT:      -7.9      4.813      7.296
REMARK  Name = NuBBE_1207
REMARK  12 active torsions:
REMARK  status: ('A' for Active; 'I' for Inactive)
REMARK    1  A    between atoms: O_1  and  C_2
REMARK    2  A    between atoms: C_4  and  O_37
REMARK    3  A    between atoms: C_7  and  C_36
REMARK    4  A    between atoms: C_9  and  C_10
REMARK    5  A    between atoms: C_9  and  C_11
REMARK    6  A    between atoms: C_11  and  O_12
REMARK    7  A    between atoms: C_15  and  C_35
REMARK    8  A    between atoms: C_20  and  C_34
REMARK    9  A    between atoms: C_23  and  C_31
REMARK   10  A    between atoms: C_26  and  C_27
REMARK   11  A    between atoms: C_26  and  C_30
REMARK   12  A    between atoms: C_31  and  O_32
REMARK                            x       y       z     vdW  Elec       q    Type
REMARK                         _______ _______ _______ _____ _____    ______ ____
ROOT
ATOM      1  C   LIG A   1      -2.673   5.398 130.528  0.00  0.00    +0.151 C 
ATOM      2  C   LIG A   1      -3.374   4.288 131.323  0.00  0.00    +0.144 C 
ATOM      3  C   LIG A   1      -3.928   3.188 130.422  0.00  0.00    +0.041 C 
ATOM      4  C   LIG A   1      -4.890   3.707 129.310  0.00  0.00    -0.022 C 
ATOM      5  C   LIG A   1      -4.132   4.853 128.528  0.00  0.00    +0.006 C 
ATOM      6  C   LIG A   1      -3.571   6.036 129.425  0.00  0.00    +0.023 C 
ATOM      7  C   LIG A   1      -2.664   6.955 128.558  0.00  0.00    +0.016 C 
ATOM      8  C   LIG A   1      -4.875   5.271 127.241  0.00  0.00    +0.005 C 
ATOM      9  C   LIG A   1      -5.139   4.082 126.299  0.00  0.00    +0.008 C 
ATOM     10  C   LIG A   1      -5.925   2.921 126.960  0.00  0.00    -0.019 C 
ATOM     11  C   LIG A   1      -5.167   2.526 128.287  0.00  0.00    +0.006 C 
ATOM     12  C   LIG A   1      -5.702   1.212 128.930  0.00  0.00    +0.031 C 
ATOM     13  C   LIG A   1      -6.642   0.386 128.088  0.00  0.00    -0.026 C 
ATOM     14  C   LIG A   1      -6.870   0.587 126.774  0.00  0.00    -0.063 C 
ATOM     15  C   LIG A   1      -5.996   1.608 126.025  0.00  0.00    -0.005 C 
ATOM     16  C   LIG A   1      -6.582   1.889 124.611  0.00  0.00    +0.012 C 
ATOM     17  C   LIG A   1      -6.879   0.610 123.808  0.00  0.00    +0.019 C 
ATOM     18  C   LIG A   1      -7.759  -0.428 124.576  0.00  0.00    +0.074 C 
ATOM     19  C   LIG A   1      -8.098   0.054 126.017  0.00  0.00    +0.033 C 
ATOM     20  C   LIG A   1      -9.006  -0.969 126.756  0.00  0.00    +0.015 C 
ATOM     21  C   LIG A   1      -8.586  -2.453 126.626  0.00  0.00    -0.034 C 
ATOM     22  C   LIG A   1      -8.514  -3.093 128.028  0.00  0.00    +0.011 C 
ATOM     23  C   LIG A   1      -7.214  -2.588 125.946  0.00  0.00    +0.007 C 
ATOM     24  C   LIG A   1      -7.069  -1.825 124.621  0.00  0.00    +0.019 C 
ATOM     25  C   LIG A   1      -9.655  -3.236 125.835  0.00  0.00    +0.011 C 
ATOM     26  C   LIG A   1      -4.592   0.964 125.791  0.00  0.00    +0.016 C 
ATOM     27  C   LIG A   1      -7.376   3.436 127.226  0.00  0.00    +0.012 C 
ATOM     28  C   LIG A   1      -6.200   4.176 129.986  0.00  0.00    +0.012 C 
ENDROOT
BRANCH   1  29
ATOM     29  O   LIG A   1      -2.212   6.369 131.482  0.00  0.00    -0.389 OA
ATOM     30  H   LIG A   1      -2.617   7.223 131.248  0.00  0.00    +0.210 HD
ENDBRANCH   1  29
BRANCH  18  31
ATOM     31  C   LIG A   1      -9.068  -0.474 123.771  0.00  0.00    +0.311 C 
ATOM     32  O   LIG A   1      -9.455  -1.393 123.056  0.00  0.00    -0.250 OA
BRANCH  31  33
ATOM     33  O   LIG A   1      -9.886   0.573 123.972  0.00  0.00    -0.480 OA
ATOM     34  H   LIG A   1     -10.095   0.529 124.928  0.00  0.00    +0.295 HD
ENDBRANCH  31  33
ENDBRANCH  18  31
BRANCH   2  35
ATOM     35  O   LIG A   1      -2.422   3.701 132.221  0.00  0.00    -0.389 OA
ATOM     36  H   LIG A   1      -1.606   3.603 131.691  0.00  0.00    +0.210 HD
ENDBRANCH   2  35
BRANCH   6  37
ATOM     37  C   LIG A   1      -4.630   6.961 130.077  0.00  0.00    +0.165 C 
BRANCH  37  38
ATOM     38  O   LIG A   1      -4.574   8.280 129.554  0.00  0.00    -0.394 OA
ATOM     39  H   LIG A   1      -5.274   8.351 128.881  0.00  0.00    +0.209 HD
ENDBRANCH  37  38
ENDBRANCH   6  37
TORSDOF 6
ENDMDL
MODEL 9
REMARK VINA RESULT:      -7.8      1.667      1.952
REMARK  Name = NuBBE_1207
REMARK  12 active torsions:
REMARK  status: ('A' for Active; 'I' for Inactive)
REMARK    1  A    between atoms: O_1  and  C_2
REMARK    2  A    between atoms: C_4  and  O_37
REMARK    3  A    between atoms: C_7  and  C_36
REMARK    4  A    between atoms: C_9  and  C_10
REMARK    5  A    between atoms: C_9  and  C_11
REMARK    6  A    between atoms: C_11  and  O_12
REMARK    7  A    between atoms: C_15  and  C_35
REMARK    8  A    between atoms: C_20  and  C_34
REMARK    9  A    between atoms: C_23  and  C_31
REMARK   10  A    between atoms: C_26  and  C_27
REMARK   11  A    between atoms: C_26  and  C_30
REMARK   12  A    between atoms: C_31  and  O_32
REMARK                            x       y       z     vdW  Elec       q    Type
REMARK                         _______ _______ _______ _____ _____    ______ ____
ROOT
ATOM      1  C   LIG A   1      -3.670  -2.264 134.092  0.00  0.00    +0.151 C 
ATOM      2  C   LIG A   1      -3.869  -3.493 133.195  0.00  0.00    +0.144 C 
ATOM      3  C   LIG A   1      -4.286  -3.116 131.775  0.00  0.00    +0.041 C 
ATOM      4  C   LIG A   1      -5.560  -2.221 131.708  0.00  0.00    -0.022 C 
ATOM      5  C   LIG A   1      -5.314  -0.978 132.654  0.00  0.00    +0.006 C 
ATOM      6  C   LIG A   1      -4.915  -1.327 134.150  0.00  0.00    +0.023 C 
ATOM      7  C   LIG A   1      -4.486  -0.025 134.885  0.00  0.00    +0.016 C 
ATOM      8  C   LIG A   1      -6.393   0.112 132.476  0.00  0.00    +0.005 C 
ATOM      9  C   LIG A   1      -6.521   0.584 131.016  0.00  0.00    +0.008 C 
ATOM     10  C   LIG A   1      -6.815  -0.559 130.011  0.00  0.00    -0.019 C 
ATOM     11  C   LIG A   1      -5.720  -1.676 130.226  0.00  0.00    +0.006 C 
ATOM     12  C   LIG A   1      -5.740  -2.775 129.121  0.00  0.00    +0.031 C 
ATOM     13  C   LIG A   1      -6.580  -2.486 127.903  0.00  0.00    -0.026 C 
ATOM     14  C   LIG A   1      -7.121  -1.285 127.613  0.00  0.00    -0.063 C 
ATOM     15  C   LIG A   1      -6.727  -0.074 128.475  0.00  0.00    -0.005 C 
ATOM     16  C   LIG A   1      -7.647   1.140 128.158  0.00  0.00    +0.012 C 
ATOM     17  C   LIG A   1      -7.753   1.450 126.655  0.00  0.00    +0.019 C 
ATOM     18  C   LIG A   1      -8.145   0.215 125.781  0.00  0.00    +0.074 C 
ATOM     19  C   LIG A   1      -8.293  -1.076 126.638  0.00  0.00    +0.033 C 
ATOM     20  C   LIG A   1      -8.721  -2.288 125.764  0.00  0.00    +0.015 C 
ATOM     21  C   LIG A   1      -7.958  -2.452 124.428  0.00  0.00    -0.034 C 
ATOM     22  C   LIG A   1      -7.429  -3.897 124.310  0.00  0.00    +0.011 C 
ATOM     23  C   LIG A   1      -6.773  -1.478 124.337  0.00  0.00    +0.007 C 
ATOM     24  C   LIG A   1      -7.115  -0.011 124.634  0.00  0.00    +0.019 C 
ATOM     25  C   LIG A   1      -8.921  -2.235 123.240  0.00  0.00    +0.011 C 
ATOM     26  C   LIG A   1      -5.283   0.361 128.067  0.00  0.00    +0.016 C 
ATOM     27  C   LIG A   1      -8.261  -1.071 130.301  0.00  0.00    +0.012 C 
ATOM     28  C   LIG A   1      -6.778  -3.084 132.117  0.00  0.00    +0.012 C 
ENDROOT
BRANCH   1  29
ATOM     29  O   LIG A   1      -3.297  -2.750 135.391  0.00  0.00    -0.389 OA
ATOM     30  H   LIG A   1      -2.835  -3.597 135.265  0.00  0.00    +0.210 HD
ENDBRANCH   1  29
BRANCH  18  31
ATOM     31  C   LIG A   1      -9.532   0.578 125.226  0.00  0.00    +0.311 C 
ATOM     32  O   LIG A   1     -10.612   0.402 125.781  0.00  0.00    -0.250 OA
BRANCH  31  33
ATOM     33  O   LIG A   1      -9.511   1.240 124.056  0.00  0.00    -0.480 OA
ATOM     34  H   LIG A   1      -9.893   0.602 123.417  0.00  0.00    +0.295 HD
ENDBRANCH  31  33
ENDBRANCH  18  31
BRANCH   2  35
ATOM     35  O   LIG A   1      -2.630  -4.212 133.127  0.00  0.00    -0.389 OA
ATOM     36  H   LIG A   1      -2.740  -4.958 133.748  0.00  0.00    +0.210 HD
ENDBRANCH   2  35
BRANCH   6  37
ATOM     37  C   LIG A   1      -6.022  -1.974 135.020  0.00  0.00    +0.165 C 
BRANCH  37  38
ATOM     38  O   LIG A   1      -6.530  -1.067 135.989  0.00  0.00    -0.394 OA
ATOM     39  H   LIG A   1      -5.859  -0.992 136.690  0.00  0.00    +0.209 HD
ENDBRANCH  37  38
ENDBRANCH   6  37
TORSDOF 6
ENDMDL
