MODEL 1
REMARK VINA RESULT:      -6.0      0.000      0.000
REMARK  Name = NuBBE_666
REMARK  0 active torsions:
REMARK  status: ('A' for Active; 'I' for Inactive)
REMARK                            x       y       z     vdW  Elec       q    Type
REMARK                         _______ _______ _______ _____ _____    ______ ____
ROOT
ATOM      1  O   LIG A   1     -10.874   7.739 125.757  0.00  0.00    -0.245 OA
ATOM      2  C   LIG A   1     -11.138   7.570 126.940  0.00  0.00    +0.337 A 
ATOM      3  O   LIG A   1     -10.156   7.385 127.903  0.00  0.00    -0.422 OA
ATOM      4  C   LIG A   1     -10.496   7.099 129.239  0.00  0.00    +0.139 A 
ATOM      5  C   LIG A   1      -9.451   6.828 130.120  0.00  0.00    +0.047 A 
ATOM      6  C   LIG A   1      -9.748   6.490 131.439  0.00  0.00    +0.004 A 
ATOM      7  C   LIG A   1     -11.076   6.442 131.866  0.00  0.00    +0.001 A 
ATOM      8  C   LIG A   1     -12.115   6.736 130.976  0.00  0.00    +0.011 A 
ATOM      9  C   LIG A   1     -11.826   7.062 129.650  0.00  0.00    +0.018 A 
ATOM     10  C   LIG A   1     -12.871   7.342 128.679  0.00  0.00    +0.018 A 
ATOM     11  C   LIG A   1     -12.538   7.569 127.405  0.00  0.00    +0.092 A 
ENDROOT
TORSDOF 0
ENDMDL
MODEL 2
REMARK VINA RESULT:      -6.0      1.703      3.756
REMARK  Name = NuBBE_666
REMARK  0 active torsions:
REMARK  status: ('A' for Active; 'I' for Inactive)
REMARK                            x       y       z     vdW  Elec       q    Type
REMARK                         _______ _______ _______ _____ _____    ______ ____
ROOT
ATOM      1  O   LIG A   1      -7.255   7.093 130.941  0.00  0.00    -0.245 OA
ATOM      2  C   LIG A   1      -8.461   7.075 130.725  0.00  0.00    +0.337 A 
ATOM      3  O   LIG A   1      -9.027   7.683 129.614  0.00  0.00    -0.422 OA
ATOM      4  C   LIG A   1     -10.425   7.725 129.445  0.00  0.00    +0.139 A 
ATOM      5  C   LIG A   1     -10.915   8.441 128.355  0.00  0.00    +0.047 A 
ATOM      6  C   LIG A   1     -12.293   8.550 128.181  0.00  0.00    +0.004 A 
ATOM      7  C   LIG A   1     -13.162   7.932 129.083  0.00  0.00    +0.001 A 
ATOM      8  C   LIG A   1     -12.657   7.198 130.162  0.00  0.00    +0.011 A 
ATOM      9  C   LIG A   1     -11.277   7.097 130.350  0.00  0.00    +0.018 A 
ATOM     10  C   LIG A   1     -10.703   6.375 131.474  0.00  0.00    +0.018 A 
ATOM     11  C   LIG A   1      -9.378   6.380 131.647  0.00  0.00    +0.092 A 
ENDROOT
TORSDOF 0
ENDMDL
MODEL 3
REMARK VINA RESULT:      -5.9      2.132      4.034
REMARK  Name = NuBBE_666
REMARK  0 active torsions:
REMARK  status: ('A' for Active; 'I' for Inactive)
REMARK                            x       y       z     vdW  Elec       q    Type
REMARK                         _______ _______ _______ _____ _____    ______ ____
ROOT
ATOM      1  O   LIG A   1     -10.919   3.766 130.299  0.00  0.00    -0.245 OA
ATOM      2  C   LIG A   1     -11.363   4.906 130.237  0.00  0.00    +0.337 A 
ATOM      3  O   LIG A   1     -12.164   5.337 129.188  0.00  0.00    -0.422 OA
ATOM      4  C   LIG A   1     -12.580   6.679 129.099  0.00  0.00    +0.139 A 
ATOM      5  C   LIG A   1     -13.297   7.051 127.963  0.00  0.00    +0.047 A 
ATOM      6  C   LIG A   1     -13.683   8.381 127.812  0.00  0.00    +0.004 A 
ATOM      7  C   LIG A   1     -13.364   9.318 128.798  0.00  0.00    +0.001 A 
ATOM      8  C   LIG A   1     -12.662   8.927 129.943  0.00  0.00    +0.011 A 
ATOM      9  C   LIG A   1     -12.259   7.598 130.095  0.00  0.00    +0.018 A 
ATOM     10  C   LIG A   1     -11.498   7.150 131.249  0.00  0.00    +0.018 A 
ATOM     11  C   LIG A   1     -11.072   5.884 131.301  0.00  0.00    +0.092 A 
ENDROOT
TORSDOF 0
ENDMDL
MODEL 4
REMARK VINA RESULT:      -5.8      1.274      1.755
REMARK  Name = NuBBE_666
REMARK  0 active torsions:
REMARK  status: ('A' for Active; 'I' for Inactive)
REMARK                            x       y       z     vdW  Elec       q    Type
REMARK                         _______ _______ _______ _____ _____    ______ ____
ROOT
ATOM      1  O   LIG A   1     -10.853   8.612 127.350  0.00  0.00    -0.245 OA
ATOM      2  C   LIG A   1     -10.786   8.124 128.471  0.00  0.00    +0.337 A 
ATOM      3  O   LIG A   1      -9.576   7.829 129.083  0.00  0.00    -0.422 OA
ATOM      4  C   LIG A   1      -9.536   7.181 130.333  0.00  0.00    +0.139 A 
ATOM      5  C   LIG A   1      -8.282   6.831 130.830  0.00  0.00    +0.047 A 
ATOM      6  C   LIG A   1      -8.202   6.143 132.040  0.00  0.00    +0.004 A 
ATOM      7  C   LIG A   1      -9.367   5.828 132.743  0.00  0.00    +0.001 A 
ATOM      8  C   LIG A   1     -10.618   6.204 132.243  0.00  0.00    +0.011 A 
ATOM      9  C   LIG A   1     -10.707   6.881 131.025  0.00  0.00    +0.018 A 
ATOM     10  C   LIG A   1     -11.985   7.263 130.445  0.00  0.00    +0.018 A 
ATOM     11  C   LIG A   1     -12.012   7.837 129.239  0.00  0.00    +0.092 A 
ENDROOT
TORSDOF 0
ENDMDL
MODEL 5
REMARK VINA RESULT:      -5.7      2.391      4.458
REMARK  Name = NuBBE_666
REMARK  0 active torsions:
REMARK  status: ('A' for Active; 'I' for Inactive)
REMARK                            x       y       z     vdW  Elec       q    Type
REMARK                         _______ _______ _______ _____ _____    ______ ____
ROOT
ATOM      1  O   LIG A   1      -9.775   5.265 133.035  0.00  0.00    -0.245 OA
ATOM      2  C   LIG A   1      -9.972   5.986 132.066  0.00  0.00    +0.337 A 
ATOM      3  O   LIG A   1     -11.247   6.335 131.645  0.00  0.00    -0.422 OA
ATOM      4  C   LIG A   1     -11.442   7.089 130.472  0.00  0.00    +0.139 A 
ATOM      5  C   LIG A   1     -12.756   7.311 130.065  0.00  0.00    +0.047 A 
ATOM      6  C   LIG A   1     -12.990   8.008 128.882  0.00  0.00    +0.004 A 
ATOM      7  C   LIG A   1     -11.916   8.488 128.129  0.00  0.00    +0.001 A 
ATOM      8  C   LIG A   1     -10.602   8.276 128.559  0.00  0.00    +0.011 A 
ATOM      9  C   LIG A   1     -10.359   7.566 129.736  0.00  0.00    +0.018 A 
ATOM     10  C   LIG A   1      -9.011   7.290 130.207  0.00  0.00    +0.018 A 
ATOM     11  C   LIG A   1      -8.840   6.537 131.297  0.00  0.00    +0.092 A 
ENDROOT
TORSDOF 0
ENDMDL
MODEL 6
REMARK VINA RESULT:      -5.5      8.055      9.499
REMARK  Name = NuBBE_666
REMARK  0 active torsions:
REMARK  status: ('A' for Active; 'I' for Inactive)
REMARK                            x       y       z     vdW  Elec       q    Type
REMARK                         _______ _______ _______ _____ _____    ______ ____
ROOT
ATOM      1  O   LIG A   1      -6.790   4.940 118.377  0.00  0.00    -0.245 OA
ATOM      2  C   LIG A   1      -6.665   4.522 119.521  0.00  0.00    +0.337 A 
ATOM      3  O   LIG A   1      -7.699   3.897 120.202  0.00  0.00    -0.422 OA
ATOM      4  C   LIG A   1      -7.551   3.513 121.549  0.00  0.00    +0.139 A 
ATOM      5  C   LIG A   1      -8.670   2.983 122.189  0.00  0.00    +0.047 A 
ATOM      6  C   LIG A   1      -8.579   2.638 123.536  0.00  0.00    +0.004 A 
ATOM      7  C   LIG A   1      -7.375   2.809 124.222  0.00  0.00    +0.001 A 
ATOM      8  C   LIG A   1      -6.253   3.323 123.562  0.00  0.00    +0.011 A 
ATOM      9  C   LIG A   1      -6.340   3.684 122.216  0.00  0.00    +0.018 A 
ATOM     10  C   LIG A   1      -5.214   4.254 121.496  0.00  0.00    +0.018 A 
ATOM     11  C   LIG A   1      -5.380   4.655 120.232  0.00  0.00    +0.092 A 
ENDROOT
TORSDOF 0
ENDMDL
MODEL 7
REMARK VINA RESULT:      -5.4      7.656      9.417
REMARK  Name = NuBBE_666
REMARK  0 active torsions:
REMARK  status: ('A' for Active; 'I' for Inactive)
REMARK                            x       y       z     vdW  Elec       q    Type
REMARK                         _______ _______ _______ _____ _____    ______ ____
ROOT
ATOM      1  O   LIG A   1      -9.969   1.652 124.631  0.00  0.00    -0.245 OA
ATOM      2  C   LIG A   1      -9.063   2.167 123.988  0.00  0.00    +0.337 A 
ATOM      3  O   LIG A   1      -9.269   2.747 122.745  0.00  0.00    -0.422 OA
ATOM      4  C   LIG A   1      -8.190   3.246 121.990  0.00  0.00    +0.139 A 
ATOM      5  C   LIG A   1      -8.471   3.721 120.711  0.00  0.00    +0.047 A 
ATOM      6  C   LIG A   1      -7.424   4.176 119.912  0.00  0.00    +0.004 A 
ATOM      7  C   LIG A   1      -6.116   4.167 120.403  0.00  0.00    +0.001 A 
ATOM      8  C   LIG A   1      -5.850   3.706 121.697  0.00  0.00    +0.011 A 
ATOM      9  C   LIG A   1      -6.893   3.236 122.498  0.00  0.00    +0.018 A 
ATOM     10  C   LIG A   1      -6.664   2.715 123.835  0.00  0.00    +0.018 A 
ATOM     11  C   LIG A   1      -7.689   2.205 124.524  0.00  0.00    +0.092 A 
ENDROOT
TORSDOF 0
ENDMDL
MODEL 8
REMARK VINA RESULT:      -5.4     10.031     10.740
REMARK  Name = NuBBE_666
REMARK  0 active torsions:
REMARK  status: ('A' for Active; 'I' for Inactive)
REMARK                            x       y       z     vdW  Elec       q    Type
REMARK                         _______ _______ _______ _____ _____    ______ ____
ROOT
ATOM      1  O   LIG A   1     -10.892   0.586 122.628  0.00  0.00    -0.245 OA
ATOM      2  C   LIG A   1      -9.818   0.086 122.936  0.00  0.00    +0.337 A 
ATOM      3  O   LIG A   1      -9.661  -1.279 123.129  0.00  0.00    -0.422 OA
ATOM      4  C   LIG A   1      -8.436  -1.812 123.575  0.00  0.00    +0.139 A 
ATOM      5  C   LIG A   1      -8.393  -3.179 123.840  0.00  0.00    +0.047 A 
ATOM      6  C   LIG A   1      -7.215  -3.737 124.332  0.00  0.00    +0.004 A 
ATOM      7  C   LIG A   1      -6.093  -2.931 124.538  0.00  0.00    +0.001 A 
ATOM      8  C   LIG A   1      -6.144  -1.563 124.249  0.00  0.00    +0.011 A 
ATOM      9  C   LIG A   1      -7.325  -0.994 123.769  0.00  0.00    +0.018 A 
ATOM     10  C   LIG A   1      -7.439   0.427 123.487  0.00  0.00    +0.018 A 
ATOM     11  C   LIG A   1      -8.618   0.927 123.106  0.00  0.00    +0.092 A 
ENDROOT
TORSDOF 0
ENDMDL
MODEL 9
REMARK VINA RESULT:      -5.4      7.467      9.174
REMARK  Name = NuBBE_666
REMARK  0 active torsions:
REMARK  status: ('A' for Active; 'I' for Inactive)
REMARK                            x       y       z     vdW  Elec       q    Type
REMARK                         _______ _______ _______ _____ _____    ______ ____
ROOT
ATOM      1  O   LIG A   1      -9.017   2.582 125.216  0.00  0.00    -0.245 OA
ATOM      2  C   LIG A   1      -8.445   2.836 124.164  0.00  0.00    +0.337 A 
ATOM      3  O   LIG A   1      -7.143   3.313 124.120  0.00  0.00    -0.422 OA
ATOM      4  C   LIG A   1      -6.548   3.684 122.899  0.00  0.00    +0.139 A 
ATOM      5  C   LIG A   1      -5.275   4.248 122.954  0.00  0.00    +0.047 A 
ATOM      6  C   LIG A   1      -4.672   4.676 121.772  0.00  0.00    +0.004 A 
ATOM      7  C   LIG A   1      -5.336   4.522 120.554  0.00  0.00    +0.001 A 
ATOM      8  C   LIG A   1      -6.606   3.935 120.510  0.00  0.00    +0.011 A 
ATOM      9  C   LIG A   1      -7.222   3.517 121.691  0.00  0.00    +0.018 A 
ATOM     10  C   LIG A   1      -8.553   2.934 121.703  0.00  0.00    +0.018 A 
ATOM     11  C   LIG A   1      -9.124   2.627 122.871  0.00  0.00    +0.092 A 
ENDROOT
TORSDOF 0
ENDMDL
