MODEL 1
REMARK VINA RESULT:      -6.6      0.000      0.000
REMARK  Name = NuBBE_1935
REMARK  5 active torsions:
REMARK  status: ('A' for Active; 'I' for Inactive)
REMARK    1  A    between atoms: C_1  and  C_2
REMARK    2  A    between atoms: C_10  and  C_11
REMARK    3  A    between atoms: C_14  and  C_16
REMARK    4  A    between atoms: C_16  and  C_17
REMARK    5  A    between atoms: C_16  and  C_18
REMARK                            x       y       z     vdW  Elec       q    Type
REMARK                         _______ _______ _______ _____ _____    ______ ____
ROOT
ATOM      1  C   LIG A   1      -7.525   0.999 123.314  0.00  0.00    +0.039 C 
ATOM      2  C   LIG A   1      -7.342  -0.445 123.650  0.00  0.00    -0.073 C 
ATOM      3  C   LIG A   1      -6.451  -1.351 123.015  0.00  0.00    -0.027 C 
ATOM      4  C   LIG A   1      -6.358  -3.049 123.562  0.00  0.00    +0.031 C 
ATOM      5  C   LIG A   1      -7.469  -3.434 124.953  0.00  0.00    +0.003 C 
ATOM      6  C   LIG A   1      -8.472  -2.484 126.065  0.00  0.00    +0.004 C 
ATOM      7  C   LIG A   1      -8.390  -1.059 124.987  0.00  0.00    +0.024 C 
ATOM      8  C   LIG A   1      -7.861  -2.238 124.418  0.00  0.00    -0.022 C 
ATOM      9  C   LIG A   1      -8.843  -2.452 123.182  0.00  0.00    +0.012 C 
ATOM     10  C   LIG A   1      -6.387  -1.567 125.479  0.00  0.00    +0.008 C 
ATOM     11  C   LIG A   1      -6.342  -2.151 126.919  0.00  0.00    +0.004 C 
ATOM     12  C   LIG A   1      -7.775  -2.255 127.389  0.00  0.00    -0.004 C 
ENDROOT
BRANCH  12  13
ATOM     13  C   LIG A   1      -8.012  -3.397 128.399  0.00  0.00    -0.014 C 
ATOM     14  C   LIG A   1      -9.326  -4.135 128.112  0.00  0.00    +0.007 C 
ATOM     15  C   LIG A   1      -8.048  -2.878 129.842  0.00  0.00    +0.007 C 
ENDBRANCH  12  13
TORSDOF 1
ENDMDL
MODEL 2
REMARK VINA RESULT:      -6.4      1.722      4.668
REMARK  Name = NuBBE_1935
REMARK  5 active torsions:
REMARK  status: ('A' for Active; 'I' for Inactive)
REMARK    1  A    between atoms: C_1  and  C_2
REMARK    2  A    between atoms: C_10  and  C_11
REMARK    3  A    between atoms: C_14  and  C_16
REMARK    4  A    between atoms: C_16  and  C_17
REMARK    5  A    between atoms: C_16  and  C_18
REMARK                            x       y       z     vdW  Elec       q    Type
REMARK                         _______ _______ _______ _____ _____    ______ ____
ROOT
ATOM      1  C   LIG A   1      -4.635  -3.304 123.402  0.00  0.00    +0.039 C 
ATOM      2  C   LIG A   1      -5.794  -2.692 124.118  0.00  0.00    -0.073 C 
ATOM      3  C   LIG A   1      -6.108  -2.844 125.495  0.00  0.00    -0.027 C 
ATOM      4  C   LIG A   1      -7.536  -2.022 126.185  0.00  0.00    +0.031 C 
ATOM      5  C   LIG A   1      -8.463  -1.024 124.976  0.00  0.00    +0.003 C 
ATOM      6  C   LIG A   1      -8.180  -0.471 123.315  0.00  0.00    +0.004 C 
ATOM      7  C   LIG A   1      -6.885  -1.686 123.090  0.00  0.00    +0.024 C 
ATOM      8  C   LIG A   1      -7.620  -1.848 124.284  0.00  0.00    -0.022 C 
ATOM      9  C   LIG A   1      -8.274  -3.282 124.053  0.00  0.00    +0.012 C 
ATOM     10  C   LIG A   1      -6.319  -0.493 124.753  0.00  0.00    +0.008 C 
ATOM     11  C   LIG A   1      -6.832   0.960 124.545  0.00  0.00    +0.004 C 
ATOM     12  C   LIG A   1      -7.660   0.950 123.280  0.00  0.00    -0.004 C 
ENDROOT
BRANCH  12  13
ATOM     13  C   LIG A   1      -8.787   2.003 123.271  0.00  0.00    -0.014 C 
ATOM     14  C   LIG A   1      -8.595   3.019 122.138  0.00  0.00    +0.007 C 
ATOM     15  C   LIG A   1      -8.864   2.761 124.601  0.00  0.00    +0.007 C 
ENDBRANCH  12  13
TORSDOF 1
ENDMDL
MODEL 3
REMARK VINA RESULT:      -6.2      9.137     11.001
REMARK  Name = NuBBE_1935
REMARK  5 active torsions:
REMARK  status: ('A' for Active; 'I' for Inactive)
REMARK    1  A    between atoms: C_1  and  C_2
REMARK    2  A    between atoms: C_10  and  C_11
REMARK    3  A    between atoms: C_14  and  C_16
REMARK    4  A    between atoms: C_16  and  C_17
REMARK    5  A    between atoms: C_16  and  C_18
REMARK                            x       y       z     vdW  Elec       q    Type
REMARK                         _______ _______ _______ _____ _____    ______ ____
ROOT
ATOM      1  C   LIG A   1      -8.252   6.008 133.607  0.00  0.00    +0.039 C 
ATOM      2  C   LIG A   1      -8.998   5.560 132.393  0.00  0.00    -0.073 C 
ATOM      3  C   LIG A   1      -9.572   4.279 132.182  0.00  0.00    -0.027 C 
ATOM      4  C   LIG A   1     -10.443   3.925 130.663  0.00  0.00    +0.031 C 
ATOM      5  C   LIG A   1     -10.503   5.331 129.507  0.00  0.00    +0.003 C 
ATOM      6  C   LIG A   1     -10.105   7.057 129.599  0.00  0.00    +0.004 C 
ATOM      7  C   LIG A   1      -9.140   6.796 131.083  0.00  0.00    +0.024 C 
ATOM      8  C   LIG A   1      -9.554   5.603 130.452  0.00  0.00    -0.022 C 
ATOM      9  C   LIG A   1      -8.151   4.956 130.065  0.00  0.00    +0.012 C 
ATOM     10  C   LIG A   1     -11.103   6.101 131.502  0.00  0.00    +0.008 C 
ATOM     11  C   LIG A   1     -12.134   6.961 130.719  0.00  0.00    +0.004 C 
ATOM     12  C   LIG A   1     -11.336   7.902 129.845  0.00  0.00    -0.004 C 
ENDROOT
BRANCH  12  13
ATOM     13  C   LIG A   1     -12.062   8.300 128.543  0.00  0.00    -0.014 C 
ATOM     14  C   LIG A   1     -13.286   7.412 128.290  0.00  0.00    +0.007 C 
ATOM     15  C   LIG A   1     -11.132   8.211 127.327  0.00  0.00    +0.007 C 
ENDBRANCH  12  13
TORSDOF 1
ENDMDL
MODEL 4
REMARK VINA RESULT:      -6.2      1.246      4.944
REMARK  Name = NuBBE_1935
REMARK  5 active torsions:
REMARK  status: ('A' for Active; 'I' for Inactive)
REMARK    1  A    between atoms: C_1  and  C_2
REMARK    2  A    between atoms: C_10  and  C_11
REMARK    3  A    between atoms: C_14  and  C_16
REMARK    4  A    between atoms: C_16  and  C_17
REMARK    5  A    between atoms: C_16  and  C_18
REMARK                            x       y       z     vdW  Elec       q    Type
REMARK                         _______ _______ _______ _____ _____    ______ ____
ROOT
ATOM      1  C   LIG A   1      -8.263  -3.121 127.392  0.00  0.00    +0.039 C 
ATOM      2  C   LIG A   1      -8.234  -2.749 125.946  0.00  0.00    -0.073 C 
ATOM      3  C   LIG A   1      -8.986  -3.356 124.905  0.00  0.00    -0.027 C 
ATOM      4  C   LIG A   1      -8.831  -2.766 123.226  0.00  0.00    +0.031 C 
ATOM      5  C   LIG A   1      -7.672  -1.373 123.041  0.00  0.00    +0.003 C 
ATOM      6  C   LIG A   1      -6.815  -0.290 124.154  0.00  0.00    +0.004 C 
ATOM      7  C   LIG A   1      -7.105  -1.403 125.524  0.00  0.00    +0.024 C 
ATOM      8  C   LIG A   1      -7.459  -1.939 124.267  0.00  0.00    -0.022 C 
ATOM      9  C   LIG A   1      -6.459  -3.175 124.166  0.00  0.00    +0.012 C 
ATOM     10  C   LIG A   1      -9.012  -0.886 124.744  0.00  0.00    +0.008 C 
ATOM     11  C   LIG A   1      -8.969   0.568 124.197  0.00  0.00    +0.004 C 
ATOM     12  C   LIG A   1      -7.535   1.032 124.313  0.00  0.00    -0.004 C 
ENDROOT
BRANCH  12  13
ATOM     13  C   LIG A   1      -7.132   2.069 123.244  0.00  0.00    -0.014 C 
ATOM     14  C   LIG A   1      -6.235   3.163 123.835  0.00  0.00    +0.007 C 
ATOM     15  C   LIG A   1      -8.360   2.732 122.609  0.00  0.00    +0.007 C 
ENDBRANCH  12  13
TORSDOF 1
ENDMDL
MODEL 5
REMARK VINA RESULT:      -6.0      8.886     10.410
REMARK  Name = NuBBE_1935
REMARK  5 active torsions:
REMARK  status: ('A' for Active; 'I' for Inactive)
REMARK    1  A    between atoms: C_1  and  C_2
REMARK    2  A    between atoms: C_10  and  C_11
REMARK    3  A    between atoms: C_14  and  C_16
REMARK    4  A    between atoms: C_16  and  C_17
REMARK    5  A    between atoms: C_16  and  C_18
REMARK                            x       y       z     vdW  Elec       q    Type
REMARK                         _______ _______ _______ _____ _____    ______ ____
ROOT
ATOM      1  C   LIG A   1      -8.571   2.421 129.395  0.00  0.00    +0.039 C 
ATOM      2  C   LIG A   1      -8.737   3.765 130.025  0.00  0.00    -0.073 C 
ATOM      3  C   LIG A   1      -7.698   4.673 130.359  0.00  0.00    -0.027 C 
ATOM      4  C   LIG A   1      -8.089   6.251 131.100  0.00  0.00    +0.031 C 
ATOM      5  C   LIG A   1      -9.873   6.527 131.341  0.00  0.00    +0.003 C 
ATOM      6  C   LIG A   1     -11.358   5.710 130.815  0.00  0.00    +0.004 C 
ATOM      7  C   LIG A   1     -10.443   4.230 130.397  0.00  0.00    +0.024 C 
ATOM      8  C   LIG A   1      -9.682   5.196 131.091  0.00  0.00    -0.022 C 
ATOM      9  C   LIG A   1      -9.319   4.404 132.424  0.00  0.00    +0.012 C 
ATOM     10  C   LIG A   1      -9.599   5.811 129.256  0.00  0.00    +0.008 C 
ATOM     11  C   LIG A   1     -10.710   6.836 128.894  0.00  0.00    +0.004 C 
ATOM     12  C   LIG A   1     -11.965   6.383 129.603  0.00  0.00    -0.004 C 
ENDROOT
BRANCH  12  13
ATOM     13  C   LIG A   1     -12.919   7.538 129.971  0.00  0.00    -0.014 C 
ATOM     14  C   LIG A   1     -12.454   8.865 129.357  0.00  0.00    +0.007 C 
ATOM     15  C   LIG A   1     -13.034   7.715 131.489  0.00  0.00    +0.007 C 
ENDBRANCH  12  13
TORSDOF 1
ENDMDL
MODEL 6
REMARK VINA RESULT:      -6.0      1.764      5.380
REMARK  Name = NuBBE_1935
REMARK  5 active torsions:
REMARK  status: ('A' for Active; 'I' for Inactive)
REMARK    1  A    between atoms: C_1  and  C_2
REMARK    2  A    between atoms: C_10  and  C_11
REMARK    3  A    between atoms: C_14  and  C_16
REMARK    4  A    between atoms: C_16  and  C_17
REMARK    5  A    between atoms: C_16  and  C_18
REMARK                            x       y       z     vdW  Elec       q    Type
REMARK                         _______ _______ _______ _____ _____    ______ ____
ROOT
ATOM      1  C   LIG A   1      -8.687  -0.285 131.408  0.00  0.00    +0.039 C 
ATOM      2  C   LIG A   1      -7.863  -1.301 130.687  0.00  0.00    -0.073 C 
ATOM      3  C   LIG A   1      -7.168  -2.391 131.273  0.00  0.00    -0.027 C 
ATOM      4  C   LIG A   1      -6.238  -3.519 130.245  0.00  0.00    +0.031 C 
ATOM      5  C   LIG A   1      -6.306  -3.119 128.470  0.00  0.00    +0.003 C 
ATOM      6  C   LIG A   1      -7.256  -2.010 127.462  0.00  0.00    +0.004 C 
ATOM      7  C   LIG A   1      -7.754  -1.068 128.899  0.00  0.00    +0.024 C 
ATOM      8  C   LIG A   1      -6.757  -2.031 129.164  0.00  0.00    -0.022 C 
ATOM      9  C   LIG A   1      -5.549  -1.105 129.634  0.00  0.00    +0.012 C 
ATOM     10  C   LIG A   1      -8.392  -3.066 129.230  0.00  0.00    +0.008 C 
ATOM     11  C   LIG A   1      -8.768  -3.720 127.871  0.00  0.00    +0.004 C 
ATOM     12  C   LIG A   1      -8.417  -2.717 126.796  0.00  0.00    -0.004 C 
ENDROOT
BRANCH  12  13
ATOM     13  C   LIG A   1      -8.035  -3.364 125.449  0.00  0.00    -0.014 C 
ATOM     14  C   LIG A   1      -6.780  -2.715 124.852  0.00  0.00    +0.007 C 
ATOM     15  C   LIG A   1      -9.174  -3.259 124.428  0.00  0.00    +0.007 C 
ENDBRANCH  12  13
TORSDOF 1
ENDMDL
MODEL 7
REMARK VINA RESULT:      -5.9      8.638     10.327
REMARK  Name = NuBBE_1935
REMARK  5 active torsions:
REMARK  status: ('A' for Active; 'I' for Inactive)
REMARK    1  A    between atoms: C_1  and  C_2
REMARK    2  A    between atoms: C_10  and  C_11
REMARK    3  A    between atoms: C_14  and  C_16
REMARK    4  A    between atoms: C_16  and  C_17
REMARK    5  A    between atoms: C_16  and  C_18
REMARK                            x       y       z     vdW  Elec       q    Type
REMARK                         _______ _______ _______ _____ _____    ______ ____
ROOT
ATOM      1  C   LIG A   1      -3.905   9.208 129.745  0.00  0.00    +0.039 C 
ATOM      2  C   LIG A   1      -3.740   7.781 130.154  0.00  0.00    -0.073 C 
ATOM      3  C   LIG A   1      -4.263   7.175 131.327  0.00  0.00    -0.027 C 
ATOM      4  C   LIG A   1      -3.973   5.441 131.647  0.00  0.00    +0.031 C 
ATOM      5  C   LIG A   1      -2.997   4.610 130.354  0.00  0.00    +0.003 C 
ATOM      6  C   LIG A   1      -2.442   5.035 128.723  0.00  0.00    +0.004 C 
ATOM      7  C   LIG A   1      -2.756   6.770 129.026  0.00  0.00    +0.024 C 
ATOM      8  C   LIG A   1      -2.869   5.959 130.176  0.00  0.00    -0.022 C 
ATOM      9  C   LIG A   1      -1.709   6.556 131.090  0.00  0.00    +0.012 C 
ATOM     10  C   LIG A   1      -4.598   5.756 129.327  0.00  0.00    +0.008 C 
ATOM     11  C   LIG A   1      -4.679   4.536 128.367  0.00  0.00    +0.004 C 
ATOM     12  C   LIG A   1      -3.346   4.455 127.657  0.00  0.00    -0.004 C 
ENDROOT
BRANCH  12  13
ATOM     13  C   LIG A   1      -2.951   3.022 127.247  0.00  0.00    -0.014 C 
ATOM     14  C   LIG A   1      -1.641   3.008 126.450  0.00  0.00    +0.007 C 
ATOM     15  C   LIG A   1      -4.044   2.352 126.405  0.00  0.00    +0.007 C 
ENDBRANCH  12  13
TORSDOF 1
ENDMDL
MODEL 8
REMARK VINA RESULT:      -5.9      9.238     10.900
REMARK  Name = NuBBE_1935
REMARK  5 active torsions:
REMARK  status: ('A' for Active; 'I' for Inactive)
REMARK    1  A    between atoms: C_1  and  C_2
REMARK    2  A    between atoms: C_10  and  C_11
REMARK    3  A    between atoms: C_14  and  C_16
REMARK    4  A    between atoms: C_16  and  C_17
REMARK    5  A    between atoms: C_16  and  C_18
REMARK                            x       y       z     vdW  Elec       q    Type
REMARK                         _______ _______ _______ _____ _____    ______ ____
ROOT
ATOM      1  C   LIG A   1      -1.041   7.250 132.772  0.00  0.00    +0.039 C 
ATOM      2  C   LIG A   1      -2.193   7.038 131.844  0.00  0.00    -0.073 C 
ATOM      3  C   LIG A   1      -3.213   7.977 131.540  0.00  0.00    -0.027 C 
ATOM      4  C   LIG A   1      -4.512   7.550 130.391  0.00  0.00    +0.031 C 
ATOM      5  C   LIG A   1      -4.358   5.871 129.701  0.00  0.00    +0.003 C 
ATOM      6  C   LIG A   1      -3.105   4.615 129.707  0.00  0.00    +0.004 C 
ATOM      7  C   LIG A   1      -2.263   5.406 131.073  0.00  0.00    +0.024 C 
ATOM      8  C   LIG A   1      -3.530   5.959 130.785  0.00  0.00    -0.022 C 
ATOM      9  C   LIG A   1      -4.315   5.655 132.137  0.00  0.00    +0.012 C 
ATOM     10  C   LIG A   1      -2.369   6.841 129.510  0.00  0.00    +0.008 C 
ATOM     11  C   LIG A   1      -2.289   6.115 128.138  0.00  0.00    +0.004 C 
ATOM     12  C   LIG A   1      -2.291   4.632 128.431  0.00  0.00    -0.004 C 
ENDROOT
BRANCH  12  13
ATOM     13  C   LIG A   1      -2.917   3.782 127.306  0.00  0.00    -0.014 C 
ATOM     14  C   LIG A   1      -3.861   2.713 127.872  0.00  0.00    +0.007 C 
ATOM     15  C   LIG A   1      -1.844   3.088 126.458  0.00  0.00    +0.007 C 
ENDBRANCH  12  13
TORSDOF 1
ENDMDL
MODEL 9
REMARK VINA RESULT:      -5.7      1.632      5.161
REMARK  Name = NuBBE_1935
REMARK  5 active torsions:
REMARK  status: ('A' for Active; 'I' for Inactive)
REMARK    1  A    between atoms: C_1  and  C_2
REMARK    2  A    between atoms: C_10  and  C_11
REMARK    3  A    between atoms: C_14  and  C_16
REMARK    4  A    between atoms: C_16  and  C_17
REMARK    5  A    between atoms: C_16  and  C_18
REMARK                            x       y       z     vdW  Elec       q    Type
REMARK                         _______ _______ _______ _____ _____    ______ ____
ROOT
ATOM      1  C   LIG A   1      -5.498  -4.441 130.473  0.00  0.00    +0.039 C 
ATOM      2  C   LIG A   1      -5.999  -3.204 129.803  0.00  0.00    -0.073 C 
ATOM      3  C   LIG A   1      -5.418  -1.911 129.879  0.00  0.00    -0.027 C 
ATOM      4  C   LIG A   1      -6.154  -0.543 128.996  0.00  0.00    +0.031 C 
ATOM      5  C   LIG A   1      -7.637  -0.999 128.043  0.00  0.00    +0.003 C 
ATOM      6  C   LIG A   1      -8.421  -2.522 127.581  0.00  0.00    +0.004 C 
ATOM      7  C   LIG A   1      -7.505  -3.418 128.829  0.00  0.00    +0.024 C 
ATOM      8  C   LIG A   1      -7.369  -2.016 128.917  0.00  0.00    -0.022 C 
ATOM      9  C   LIG A   1      -8.008  -1.731 130.347  0.00  0.00    +0.012 C 
ATOM     10  C   LIG A   1      -6.069  -2.497 127.565  0.00  0.00    +0.008 C 
ATOM     11  C   LIG A   1      -6.626  -2.429 126.115  0.00  0.00    +0.004 C 
ATOM     12  C   LIG A   1      -8.049  -2.937 126.173  0.00  0.00    -0.004 C 
ENDROOT
BRANCH  12  13
ATOM     13  C   LIG A   1      -8.970  -2.320 125.101  0.00  0.00    -0.014 C 
ATOM     14  C   LIG A   1      -9.278  -3.323 123.982  0.00  0.00    +0.007 C 
ATOM     15  C   LIG A   1      -8.349  -1.065 124.476  0.00  0.00    +0.007 C 
ENDBRANCH  12  13
TORSDOF 1
ENDMDL
