MODEL 1
REMARK VINA RESULT:      -7.3      0.000      0.000
REMARK  Name = NuBBE_2054
REMARK  5 active torsions:
REMARK  status: ('A' for Active; 'I' for Inactive)
REMARK    1  A    between atoms: C_6  and  O_7
REMARK    2  A    between atoms: O_7  and  C_8
REMARK    3  A    between atoms: C_8  and  C_9
REMARK    4  A    between atoms: C_10  and  C_11
REMARK    5  A    between atoms: C_10  and  C_12
REMARK                            x       y       z     vdW  Elec       q    Type
REMARK                         _______ _______ _______ _____ _____    ______ ____
ROOT
ATOM      1  O   LIG A   1      -4.906   5.496 119.501  0.00  0.00    -0.245 OA
ATOM      2  C   LIG A   1      -5.649   4.877 120.256  0.00  0.00    +0.337 A 
ATOM      3  O   LIG A   1      -5.343   4.666 121.595  0.00  0.00    -0.422 OA
ATOM      4  C   LIG A   1      -6.212   3.946 122.439  0.00  0.00    +0.146 A 
ATOM      5  C   LIG A   1      -5.813   3.757 123.771  0.00  0.00    +0.096 A 
ATOM      6  C   LIG A   1      -6.628   3.042 124.660  0.00  0.00    +0.170 A 
ATOM      7  C   LIG A   1      -7.831   2.556 124.170  0.00  0.00    +0.208 A 
ATOM      8  C   LIG A   1      -8.209   2.753 122.852  0.00  0.00    +0.180 A 
ATOM      9  O   LIG A   1      -9.420   2.193 122.566  0.00  0.00    -0.452 OA
ATOM     10  C   LIG A   1      -9.768   1.619 123.837  0.00  0.00    +0.467 C 
ATOM     11  O   LIG A   1      -8.776   1.846 124.852  0.00  0.00    -0.449 OA
ATOM     12  C   LIG A   1      -7.415   3.443 121.953  0.00  0.00    +0.063 A 
ATOM     13  C   LIG A   1      -7.763   3.647 120.558  0.00  0.00    +0.022 A 
ATOM     14  C   LIG A   1      -6.923   4.319 119.766  0.00  0.00    +0.093 A 
ENDROOT
BRANCH   6  15
ATOM     15  O   LIG A   1      -6.113   2.913 125.917  0.00  0.00    -0.484 OA
BRANCH  15  16
ATOM     16  C   LIG A   1      -4.708   2.675 126.040  0.00  0.00    +0.257 C 
BRANCH  16  17
ATOM     17  C   LIG A   1      -4.153   3.733 126.954  0.00  0.00    +0.012 C 
ATOM     18  C   LIG A   1      -2.854   3.962 127.236  0.00  0.00    -0.076 C 
ATOM     19  C   LIG A   1      -1.709   3.132 126.724  0.00  0.00    +0.038 C 
ATOM     20  C   LIG A   1      -2.447   5.108 128.124  0.00  0.00    +0.038 C 
ENDBRANCH  16  17
ENDBRANCH  15  16
ENDBRANCH   6  15
TORSDOF 3
ENDMDL
MODEL 2
REMARK VINA RESULT:      -7.2      1.875      4.702
REMARK  Name = NuBBE_2054
REMARK  5 active torsions:
REMARK  status: ('A' for Active; 'I' for Inactive)
REMARK    1  A    between atoms: C_6  and  O_7
REMARK    2  A    between atoms: O_7  and  C_8
REMARK    3  A    between atoms: C_8  and  C_9
REMARK    4  A    between atoms: C_10  and  C_11
REMARK    5  A    between atoms: C_10  and  C_12
REMARK                            x       y       z     vdW  Elec       q    Type
REMARK                         _______ _______ _______ _____ _____    ______ ____
ROOT
ATOM      1  O   LIG A   1      -7.174   4.363 118.559  0.00  0.00    -0.245 OA
ATOM      2  C   LIG A   1      -6.909   4.205 119.747  0.00  0.00    +0.337 A 
ATOM      3  O   LIG A   1      -7.833   3.706 120.657  0.00  0.00    -0.422 OA
ATOM      4  C   LIG A   1      -7.503   3.541 122.018  0.00  0.00    +0.146 A 
ATOM      5  C   LIG A   1      -8.505   3.056 122.872  0.00  0.00    +0.096 A 
ATOM      6  C   LIG A   1      -8.245   2.877 124.238  0.00  0.00    +0.170 A 
ATOM      7  C   LIG A   1      -6.969   3.181 124.688  0.00  0.00    +0.208 A 
ATOM      8  C   LIG A   1      -5.992   3.658 123.829  0.00  0.00    +0.180 A 
ATOM      9  O   LIG A   1      -4.811   3.903 124.466  0.00  0.00    -0.452 OA
ATOM     10  C   LIG A   1      -5.141   3.536 125.815  0.00  0.00    +0.467 C 
ATOM     11  O   LIG A   1      -6.495   3.076 125.963  0.00  0.00    -0.449 OA
ATOM     12  C   LIG A   1      -6.230   3.856 122.481  0.00  0.00    +0.063 A 
ATOM     13  C   LIG A   1      -5.243   4.380 121.554  0.00  0.00    +0.022 A 
ATOM     14  C   LIG A   1      -5.572   4.546 120.270  0.00  0.00    +0.093 A 
ENDROOT
BRANCH   6  15
ATOM     15  O   LIG A   1      -9.309   2.420 124.960  0.00  0.00    -0.484 OA
BRANCH  15  16
ATOM     16  C   LIG A   1      -9.922   1.197 124.540  0.00  0.00    +0.257 C 
BRANCH  16  17
ATOM     17  C   LIG A   1      -9.306   0.086 125.347  0.00  0.00    +0.012 C 
ATOM     18  C   LIG A   1      -8.836  -1.089 124.883  0.00  0.00    -0.076 C 
ATOM     19  C   LIG A   1      -8.912  -1.534 123.448  0.00  0.00    +0.038 C 
ATOM     20  C   LIG A   1      -8.183  -2.080 125.810  0.00  0.00    +0.038 C 
ENDBRANCH  16  17
ENDBRANCH  15  16
ENDBRANCH   6  15
TORSDOF 3
ENDMDL
MODEL 3
REMARK VINA RESULT:      -7.1      8.075     10.160
REMARK  Name = NuBBE_2054
REMARK  5 active torsions:
REMARK  status: ('A' for Active; 'I' for Inactive)
REMARK    1  A    between atoms: C_6  and  O_7
REMARK    2  A    between atoms: O_7  and  C_8
REMARK    3  A    between atoms: C_8  and  C_9
REMARK    4  A    between atoms: C_10  and  C_11
REMARK    5  A    between atoms: C_10  and  C_12
REMARK                            x       y       z     vdW  Elec       q    Type
REMARK                         _______ _______ _______ _____ _____    ______ ____
ROOT
ATOM      1  O   LIG A   1      -3.945   8.312 129.647  0.00  0.00    -0.245 OA
ATOM      2  C   LIG A   1      -4.656   7.671 130.414  0.00  0.00    +0.337 A 
ATOM      3  O   LIG A   1      -6.039   7.627 130.287  0.00  0.00    -0.422 OA
ATOM      4  C   LIG A   1      -6.833   6.886 131.186  0.00  0.00    +0.146 A 
ATOM      5  C   LIG A   1      -8.223   6.917 131.000  0.00  0.00    +0.096 A 
ATOM      6  C   LIG A   1      -9.069   6.210 131.865  0.00  0.00    +0.170 A 
ATOM      7  C   LIG A   1      -8.473   5.480 132.883  0.00  0.00    +0.208 A 
ATOM      8  C   LIG A   1      -7.098   5.461 133.051  0.00  0.00    +0.180 A 
ATOM      9  O   LIG A   1      -6.712   4.692 134.110  0.00  0.00    -0.452 OA
ATOM     10  C   LIG A   1      -7.982   4.230 134.596  0.00  0.00    +0.467 C 
ATOM     11  O   LIG A   1      -9.096   4.717 133.828  0.00  0.00    -0.449 OA
ATOM     12  C   LIG A   1      -6.245   6.162 132.219  0.00  0.00    +0.063 A 
ATOM     13  C   LIG A   1      -4.802   6.190 132.378  0.00  0.00    +0.022 A 
ATOM     14  C   LIG A   1      -4.062   6.907 131.527  0.00  0.00    +0.093 A 
ENDROOT
BRANCH   6  15
ATOM     15  O   LIG A   1     -10.398   6.341 131.586  0.00  0.00    -0.484 OA
BRANCH  15  16
ATOM     16  C   LIG A   1     -10.801   6.264 130.216  0.00  0.00    +0.257 C 
BRANCH  16  17
ATOM     17  C   LIG A   1     -11.835   7.334 129.992  0.00  0.00    +0.012 C 
ATOM     18  C   LIG A   1     -11.811   8.303 129.054  0.00  0.00    -0.076 C 
ATOM     19  C   LIG A   1     -10.680   8.528 128.088  0.00  0.00    +0.038 C 
ATOM     20  C   LIG A   1     -12.957   9.267 128.909  0.00  0.00    +0.038 C 
ENDBRANCH  16  17
ENDBRANCH  15  16
ENDBRANCH   6  15
TORSDOF 3
ENDMDL
MODEL 4
REMARK VINA RESULT:      -7.1      8.211      9.189
REMARK  Name = NuBBE_2054
REMARK  5 active torsions:
REMARK  status: ('A' for Active; 'I' for Inactive)
REMARK    1  A    between atoms: C_6  and  O_7
REMARK    2  A    between atoms: O_7  and  C_8
REMARK    3  A    between atoms: C_8  and  C_9
REMARK    4  A    between atoms: C_10  and  C_11
REMARK    5  A    between atoms: C_10  and  C_12
REMARK                            x       y       z     vdW  Elec       q    Type
REMARK                         _______ _______ _______ _____ _____    ______ ____
ROOT
ATOM      1  O   LIG A   1     -13.702   6.876 128.397  0.00  0.00    -0.245 OA
ATOM      2  C   LIG A   1     -12.567   6.809 128.860  0.00  0.00    +0.337 A 
ATOM      3  O   LIG A   1     -12.072   5.654 129.454  0.00  0.00    -0.422 OA
ATOM      4  C   LIG A   1     -10.766   5.606 129.983  0.00  0.00    +0.146 A 
ATOM      5  C   LIG A   1     -10.356   4.409 130.588  0.00  0.00    +0.096 A 
ATOM      6  C   LIG A   1      -9.073   4.299 131.142  0.00  0.00    +0.170 A 
ATOM      7  C   LIG A   1      -8.242   5.405 131.047  0.00  0.00    +0.208 A 
ATOM      8  C   LIG A   1      -8.664   6.579 130.445  0.00  0.00    +0.180 A 
ATOM      9  O   LIG A   1      -7.703   7.548 130.460  0.00  0.00    -0.452 OA
ATOM     10  C   LIG A   1      -6.633   6.869 131.135  0.00  0.00    +0.467 C 
ATOM     11  O   LIG A   1      -6.961   5.519 131.505  0.00  0.00    -0.449 OA
ATOM     12  C   LIG A   1      -9.929   6.716 129.905  0.00  0.00    +0.063 A 
ATOM     13  C   LIG A   1     -10.419   7.937 129.290  0.00  0.00    +0.022 A 
ATOM     14  C   LIG A   1     -11.664   7.973 128.805  0.00  0.00    +0.093 A 
ENDROOT
BRANCH   6  15
ATOM     15  O   LIG A   1      -8.809   3.090 131.717  0.00  0.00    -0.484 OA
BRANCH  15  16
ATOM     16  C   LIG A   1      -9.462   2.784 132.952  0.00  0.00    +0.257 C 
BRANCH  16  17
ATOM     17  C   LIG A   1      -9.084   3.857 133.938  0.00  0.00    +0.012 C 
ATOM     18  C   LIG A   1      -7.882   4.036 134.521  0.00  0.00    -0.076 C 
ATOM     19  C   LIG A   1      -6.698   3.126 134.335  0.00  0.00    +0.038 C 
ATOM     20  C   LIG A   1      -7.635   5.202 135.441  0.00  0.00    +0.038 C 
ENDBRANCH  16  17
ENDBRANCH  15  16
ENDBRANCH   6  15
TORSDOF 3
ENDMDL
MODEL 5
REMARK VINA RESULT:      -7.0      2.967      6.954
REMARK  Name = NuBBE_2054
REMARK  5 active torsions:
REMARK  status: ('A' for Active; 'I' for Inactive)
REMARK    1  A    between atoms: C_6  and  O_7
REMARK    2  A    between atoms: O_7  and  C_8
REMARK    3  A    between atoms: C_8  and  C_9
REMARK    4  A    between atoms: C_10  and  C_11
REMARK    5  A    between atoms: C_10  and  C_12
REMARK                            x       y       z     vdW  Elec       q    Type
REMARK                         _______ _______ _______ _____ _____    ______ ____
ROOT
ATOM      1  O   LIG A   1     -10.135  -3.726 123.254  0.00  0.00    -0.245 OA
ATOM      2  C   LIG A   1      -9.361  -2.870 123.672  0.00  0.00    +0.337 A 
ATOM      3  O   LIG A   1      -9.460  -1.533 123.307  0.00  0.00    -0.422 OA
ATOM      4  C   LIG A   1      -8.553  -0.572 123.798  0.00  0.00    +0.146 A 
ATOM      5  C   LIG A   1      -8.710   0.751 123.358  0.00  0.00    +0.096 A 
ATOM      6  C   LIG A   1      -7.836   1.753 123.802  0.00  0.00    +0.170 A 
ATOM      7  C   LIG A   1      -6.839   1.380 124.691  0.00  0.00    +0.208 A 
ATOM      8  C   LIG A   1      -6.700   0.069 125.115  0.00  0.00    +0.180 A 
ATOM      9  O   LIG A   1      -5.658  -0.092 125.981  0.00  0.00    -0.452 OA
ATOM     10  C   LIG A   1      -5.151   1.249 126.060  0.00  0.00    +0.467 C 
ATOM     11  O   LIG A   1      -5.891   2.183 125.255  0.00  0.00    -0.449 OA
ATOM     12  C   LIG A   1      -7.541  -0.939 124.680  0.00  0.00    +0.063 A 
ATOM     13  C   LIG A   1      -7.412  -2.329 125.079  0.00  0.00    +0.022 A 
ATOM     14  C   LIG A   1      -8.270  -3.232 124.595  0.00  0.00    +0.093 A 
ENDROOT
BRANCH   6  15
ATOM     15  O   LIG A   1      -8.086   2.990 123.283  0.00  0.00    -0.484 OA
BRANCH  15  16
ATOM     16  C   LIG A   1      -7.462   3.329 122.041  0.00  0.00    +0.257 C 
BRANCH  16  17
ATOM     17  C   LIG A   1      -8.557   3.674 121.068  0.00  0.00    +0.012 C 
ATOM     18  C   LIG A   1      -8.408   4.109 119.801  0.00  0.00    -0.076 C 
ATOM     19  C   LIG A   1      -7.085   4.399 119.146  0.00  0.00    +0.038 C 
ATOM     20  C   LIG A   1      -9.606   4.351 118.922  0.00  0.00    +0.038 C 
ENDBRANCH  16  17
ENDBRANCH  15  16
ENDBRANCH   6  15
TORSDOF 3
ENDMDL
MODEL 6
REMARK VINA RESULT:      -6.9      4.376      7.451
REMARK  Name = NuBBE_2054
REMARK  5 active torsions:
REMARK  status: ('A' for Active; 'I' for Inactive)
REMARK    1  A    between atoms: C_6  and  O_7
REMARK    2  A    between atoms: O_7  and  C_8
REMARK    3  A    between atoms: C_8  and  C_9
REMARK    4  A    between atoms: C_10  and  C_11
REMARK    5  A    between atoms: C_10  and  C_12
REMARK                            x       y       z     vdW  Elec       q    Type
REMARK                         _______ _______ _______ _____ _____    ______ ____
ROOT
ATOM      1  O   LIG A   1      -7.570  -2.238 130.507  0.00  0.00    -0.245 OA
ATOM      2  C   LIG A   1      -7.882  -2.296 129.322  0.00  0.00    +0.337 A 
ATOM      3  O   LIG A   1      -7.807  -1.197 128.476  0.00  0.00    -0.422 OA
ATOM      4  C   LIG A   1      -8.179  -1.290 127.119  0.00  0.00    +0.146 A 
ATOM      5  C   LIG A   1      -8.097  -0.125 126.343  0.00  0.00    +0.096 A 
ATOM      6  C   LIG A   1      -8.461  -0.148 124.989  0.00  0.00    +0.170 A 
ATOM      7  C   LIG A   1      -8.880  -1.361 124.464  0.00  0.00    +0.208 A 
ATOM      8  C   LIG A   1      -8.953  -2.503 125.246  0.00  0.00    +0.180 A 
ATOM      9  O   LIG A   1      -9.394  -3.588 124.546  0.00  0.00    -0.452 OA
ATOM     10  C   LIG A   1      -9.594  -3.016 123.243  0.00  0.00    +0.467 C 
ATOM     11  O   LIG A   1      -9.269  -1.617 123.181  0.00  0.00    -0.449 OA
ATOM     12  C   LIG A   1      -8.614  -2.500 126.586  0.00  0.00    +0.063 A 
ATOM     13  C   LIG A   1      -8.703  -3.667 127.446  0.00  0.00    +0.022 A 
ATOM     14  C   LIG A   1      -8.361  -3.561 128.733  0.00  0.00    +0.093 A 
ENDROOT
BRANCH   6  15
ATOM     15  O   LIG A   1      -8.355   1.055 124.356  0.00  0.00    -0.484 OA
BRANCH  15  16
ATOM     16  C   LIG A   1      -7.057   1.652 124.274  0.00  0.00    +0.257 C 
BRANCH  16  17
ATOM     17  C   LIG A   1      -6.908   2.213 122.886  0.00  0.00    +0.012 C 
ATOM     18  C   LIG A   1      -6.249   3.334 122.530  0.00  0.00    -0.076 C 
ATOM     19  C   LIG A   1      -5.590   4.281 123.496  0.00  0.00    +0.038 C 
ATOM     20  C   LIG A   1      -6.130   3.735 121.084  0.00  0.00    +0.038 C 
ENDBRANCH  16  17
ENDBRANCH  15  16
ENDBRANCH   6  15
TORSDOF 3
ENDMDL
MODEL 7
REMARK VINA RESULT:      -6.9      4.908      6.350
REMARK  Name = NuBBE_2054
REMARK  5 active torsions:
REMARK  status: ('A' for Active; 'I' for Inactive)
REMARK    1  A    between atoms: C_6  and  O_7
REMARK    2  A    between atoms: O_7  and  C_8
REMARK    3  A    between atoms: C_8  and  C_9
REMARK    4  A    between atoms: C_10  and  C_11
REMARK    5  A    between atoms: C_10  and  C_12
REMARK                            x       y       z     vdW  Elec       q    Type
REMARK                         _______ _______ _______ _____ _____    ______ ____
ROOT
ATOM      1  O   LIG A   1      -8.651   3.949 125.106  0.00  0.00    -0.245 OA
ATOM      2  C   LIG A   1      -8.749   2.741 124.912  0.00  0.00    +0.337 A 
ATOM      3  O   LIG A   1      -8.292   1.800 125.826  0.00  0.00    -0.422 OA
ATOM      4  C   LIG A   1      -8.412   0.418 125.575  0.00  0.00    +0.146 A 
ATOM      5  C   LIG A   1      -7.900  -0.462 126.540  0.00  0.00    +0.096 A 
ATOM      6  C   LIG A   1      -7.979  -1.849 126.346  0.00  0.00    +0.170 A 
ATOM      7  C   LIG A   1      -8.591  -2.295 125.185  0.00  0.00    +0.208 A 
ATOM      8  C   LIG A   1      -9.091  -1.411 124.243  0.00  0.00    +0.180 A 
ATOM      9  O   LIG A   1      -9.647  -2.047 123.171  0.00  0.00    -0.452 OA
ATOM     10  C   LIG A   1      -9.444  -3.423 123.530  0.00  0.00    +0.467 C 
ATOM     11  O   LIG A   1      -8.785  -3.589 124.796  0.00  0.00    -0.449 OA
ATOM     12  C   LIG A   1      -9.012  -0.040 124.405  0.00  0.00    +0.063 A 
ATOM     13  C   LIG A   1      -9.498   0.920 123.431  0.00  0.00    +0.022 A 
ATOM     14  C   LIG A   1      -9.366   2.227 123.675  0.00  0.00    +0.093 A 
ENDROOT
BRANCH   6  15
ATOM     15  O   LIG A   1      -7.427  -2.591 127.349  0.00  0.00    -0.484 OA
BRANCH  15  16
ATOM     16  C   LIG A   1      -8.307  -3.373 128.161  0.00  0.00    +0.257 C 
BRANCH  16  17
ATOM     17  C   LIG A   1      -8.165  -2.884 129.577  0.00  0.00    +0.012 C 
ATOM     18  C   LIG A   1      -7.219  -3.243 130.468  0.00  0.00    -0.076 C 
ATOM     19  C   LIG A   1      -6.155  -4.277 130.215  0.00  0.00    +0.038 C 
ATOM     20  C   LIG A   1      -7.166  -2.614 131.835  0.00  0.00    +0.038 C 
ENDBRANCH  16  17
ENDBRANCH  15  16
ENDBRANCH   6  15
TORSDOF 3
ENDMDL
MODEL 8
REMARK VINA RESULT:      -6.9      7.604      8.936
REMARK  Name = NuBBE_2054
REMARK  5 active torsions:
REMARK  status: ('A' for Active; 'I' for Inactive)
REMARK    1  A    between atoms: C_6  and  O_7
REMARK    2  A    between atoms: O_7  and  C_8
REMARK    3  A    between atoms: C_8  and  C_9
REMARK    4  A    between atoms: C_10  and  C_11
REMARK    5  A    between atoms: C_10  and  C_12
REMARK                            x       y       z     vdW  Elec       q    Type
REMARK                         _______ _______ _______ _____ _____    ______ ____
ROOT
ATOM      1  O   LIG A   1     -13.626   6.929 128.002  0.00  0.00    -0.245 OA
ATOM      2  C   LIG A   1     -12.537   6.848 128.562  0.00  0.00    +0.337 A 
ATOM      3  O   LIG A   1     -12.165   5.740 129.313  0.00  0.00    -0.422 OA
ATOM      4  C   LIG A   1     -10.909   5.676 129.952  0.00  0.00    +0.146 A 
ATOM      5  C   LIG A   1     -10.626   4.531 130.711  0.00  0.00    +0.096 A 
ATOM      6  C   LIG A   1      -9.399   4.409 131.378  0.00  0.00    +0.170 A 
ATOM      7  C   LIG A   1      -8.493   5.449 131.238  0.00  0.00    +0.208 A 
ATOM      8  C   LIG A   1      -8.790   6.572 130.483  0.00  0.00    +0.180 A 
ATOM      9  O   LIG A   1      -7.772   7.481 130.476  0.00  0.00    -0.452 OA
ATOM     10  C   LIG A   1      -6.803   6.820 131.305  0.00  0.00    +0.467 C 
ATOM     11  O   LIG A   1      -7.246   5.540 131.786  0.00  0.00    -0.449 OA
ATOM     12  C   LIG A   1      -9.998   6.721 129.828  0.00  0.00    +0.063 A 
ATOM     13  C   LIG A   1     -10.359   7.893 129.050  0.00  0.00    +0.022 A 
ATOM     14  C   LIG A   1     -11.557   7.946 128.462  0.00  0.00    +0.093 A 
ENDROOT
BRANCH   6  15
ATOM     15  O   LIG A   1      -9.260   3.258 132.097  0.00  0.00    -0.484 OA
BRANCH  15  16
ATOM     16  C   LIG A   1     -10.119   2.162 131.771  0.00  0.00    +0.257 C 
BRANCH  16  17
ATOM     17  C   LIG A   1      -9.266   0.923 131.720  0.00  0.00    +0.012 C 
ATOM     18  C   LIG A   1      -8.437   0.549 130.725  0.00  0.00    -0.076 C 
ATOM     19  C   LIG A   1      -8.270   1.291 129.427  0.00  0.00    +0.038 C 
ATOM     20  C   LIG A   1      -7.593  -0.692 130.848  0.00  0.00    +0.038 C 
ENDBRANCH  16  17
ENDBRANCH  15  16
ENDBRANCH   6  15
TORSDOF 3
ENDMDL
MODEL 9
REMARK VINA RESULT:      -6.5      4.241      6.734
REMARK  Name = NuBBE_2054
REMARK  5 active torsions:
REMARK  status: ('A' for Active; 'I' for Inactive)
REMARK    1  A    between atoms: C_6  and  O_7
REMARK    2  A    between atoms: O_7  and  C_8
REMARK    3  A    between atoms: C_8  and  C_9
REMARK    4  A    between atoms: C_10  and  C_11
REMARK    5  A    between atoms: C_10  and  C_12
REMARK                            x       y       z     vdW  Elec       q    Type
REMARK                         _______ _______ _______ _____ _____    ______ ____
ROOT
ATOM      1  O   LIG A   1      -7.730  -3.423 130.140  0.00  0.00    -0.245 OA
ATOM      2  C   LIG A   1      -7.906  -3.036 128.989  0.00  0.00    +0.337 A 
ATOM      3  O   LIG A   1      -7.252  -1.926 128.469  0.00  0.00    -0.422 OA
ATOM      4  C   LIG A   1      -7.477  -1.499 127.144  0.00  0.00    +0.146 A 
ATOM      5  C   LIG A   1      -6.795  -0.354 126.708  0.00  0.00    +0.096 A 
ATOM      6  C   LIG A   1      -6.981   0.128 125.405  0.00  0.00    +0.170 A 
ATOM      7  C   LIG A   1      -7.844  -0.580 124.581  0.00  0.00    +0.208 A 
ATOM      8  C   LIG A   1      -8.508  -1.710 125.029  0.00  0.00    +0.180 A 
ATOM      9  O   LIG A   1      -9.313  -2.257 124.072  0.00  0.00    -0.452 OA
ATOM     10  C   LIG A   1      -9.091  -1.356 122.975  0.00  0.00    +0.467 C 
ATOM     11  O   LIG A   1      -8.166  -0.301 123.285  0.00  0.00    -0.449 OA
ATOM     12  C   LIG A   1      -8.351  -2.196 126.314  0.00  0.00    +0.063 A 
ATOM     13  C   LIG A   1      -9.049  -3.359 126.831  0.00  0.00    +0.022 A 
ATOM     14  C   LIG A   1      -8.838  -3.745 128.092  0.00  0.00    +0.093 A 
ENDROOT
BRANCH   6  15
ATOM     15  O   LIG A   1      -6.276   1.260 125.115  0.00  0.00    -0.484 OA
BRANCH  15  16
ATOM     16  C   LIG A   1      -6.028   2.180 126.182  0.00  0.00    +0.257 C 
BRANCH  16  17
ATOM     17  C   LIG A   1      -4.595   2.625 126.068  0.00  0.00    +0.012 C 
ATOM     18  C   LIG A   1      -3.694   2.723 127.066  0.00  0.00    -0.076 C 
ATOM     19  C   LIG A   1      -3.995   2.465 128.517  0.00  0.00    +0.038 C 
ATOM     20  C   LIG A   1      -2.270   3.121 126.784  0.00  0.00    +0.038 C 
ENDBRANCH  16  17
ENDBRANCH  15  16
ENDBRANCH   6  15
TORSDOF 3
ENDMDL
