MODEL 1
REMARK VINA RESULT:      -6.2      0.000      0.000
REMARK  Name = NuBBE_404
REMARK  10 active torsions:
REMARK  status: ('A' for Active; 'I' for Inactive)
REMARK    1  A    between atoms: C_1  and  C_2
REMARK    2  A    between atoms: C_2  and  S_3
REMARK    3  A    between atoms: S_3  and  S_4
REMARK    4  A    between atoms: S_4  and  S_5
REMARK    5  A    between atoms: S_5  and  C_6
REMARK    6  A    between atoms: C_6  and  S_7
REMARK    7  A    between atoms: S_7  and  S_8
REMARK    8  A    between atoms: S_8  and  S_9
REMARK    9  A    between atoms: S_9  and  C_10
REMARK   10  A    between atoms: C_10  and  C_11
REMARK                            x       y       z     vdW  Elec       q    Type
REMARK                         _______ _______ _______ _____ _____    ______ ____
ROOT
ATOM      1  C   LIG A   1      -8.223   3.335 130.169  0.00  0.00    +0.163 C 
ENDROOT
BRANCH   1   2
ATOM      2  S   LIG A   1      -8.537   2.125 128.864  0.00  0.00    -0.070 S 
BRANCH   2   3
ATOM      3  S   LIG A   1      -7.739   3.047 127.210  0.00  0.00    -0.023 S 
BRANCH   3   4
ATOM      4  S   LIG A   1      -7.607   1.601 125.753  0.00  0.00    -0.077 S 
BRANCH   4   5
ATOM      5  C   LIG A   1      -8.684   0.255 126.320  0.00  0.00    +0.116 C 
BRANCH   5   6
ATOM      6  C   LIG A   1      -8.921  -0.852 125.332  0.00  0.00    -0.037 A 
ATOM      7  C   LIG A   1      -9.160  -2.161 125.770  0.00  0.00    +0.004 A 
ATOM      8  C   LIG A   1      -9.278  -3.202 124.848  0.00  0.00    +0.000 A 
ATOM      9  C   LIG A   1      -9.194  -2.940 123.481  0.00  0.00    +0.000 A 
ATOM     10  C   LIG A   1      -8.992  -1.635 123.033  0.00  0.00    +0.000 A 
ATOM     11  C   LIG A   1      -8.841  -0.603 123.952  0.00  0.00    +0.004 A 
ENDBRANCH   5   6
ENDBRANCH   4   5
ENDBRANCH   3   4
ENDBRANCH   2   3
ENDBRANCH   1   2
BRANCH   1  12
ATOM     12  S   LIG A   1      -9.018   4.937 129.867  0.00  0.00    -0.070 S 
BRANCH  12  13
ATOM     13  S   LIG A   1     -10.949   4.691 130.534  0.00  0.00    -0.023 S 
BRANCH  13  14
ATOM     14  S   LIG A   1     -11.341   6.344 131.687  0.00  0.00    -0.077 S 
BRANCH  14  15
ATOM     15  C   LIG A   1     -12.670   7.162 130.741  0.00  0.00    +0.116 C 
BRANCH  15  16
ATOM     16  C   LIG A   1     -12.262   7.380 129.312  0.00  0.00    -0.037 A 
ATOM     17  C   LIG A   1     -11.072   8.062 129.013  0.00  0.00    +0.004 A 
ATOM     18  C   LIG A   1     -10.673   8.240 127.687  0.00  0.00    +0.000 A 
ATOM     19  C   LIG A   1     -11.460   7.737 126.650  0.00  0.00    +0.000 A 
ATOM     20  C   LIG A   1     -12.640   7.054 126.936  0.00  0.00    +0.000 A 
ATOM     21  C   LIG A   1     -13.040   6.878 128.262  0.00  0.00    +0.004 A 
ENDBRANCH  15  16
ENDBRANCH  14  15
ENDBRANCH  13  14
ENDBRANCH  12  13
ENDBRANCH   1  12
TORSDOF 10
ENDMDL
MODEL 2
REMARK VINA RESULT:      -6.2      3.457      4.049
REMARK  Name = NuBBE_404
REMARK  10 active torsions:
REMARK  status: ('A' for Active; 'I' for Inactive)
REMARK    1  A    between atoms: C_1  and  C_2
REMARK    2  A    between atoms: C_2  and  S_3
REMARK    3  A    between atoms: S_3  and  S_4
REMARK    4  A    between atoms: S_4  and  S_5
REMARK    5  A    between atoms: S_5  and  C_6
REMARK    6  A    between atoms: C_6  and  S_7
REMARK    7  A    between atoms: S_7  and  S_8
REMARK    8  A    between atoms: S_8  and  S_9
REMARK    9  A    between atoms: S_9  and  C_10
REMARK   10  A    between atoms: C_10  and  C_11
REMARK                            x       y       z     vdW  Elec       q    Type
REMARK                         _______ _______ _______ _____ _____    ______ ____
ROOT
ATOM      1  C   LIG A   1      -8.278   3.361 130.500  0.00  0.00    +0.163 C 
ENDROOT
BRANCH   1   2
ATOM      2  S   LIG A   1      -8.256   2.509 128.907  0.00  0.00    -0.070 S 
BRANCH   2   3
ATOM      3  S   LIG A   1      -6.817   3.549 127.874  0.00  0.00    -0.023 S 
BRANCH   3   4
ATOM      4  S   LIG A   1      -7.274   3.337 125.880  0.00  0.00    -0.077 S 
BRANCH   4   5
ATOM      5  C   LIG A   1      -5.947   4.200 124.992  0.00  0.00    +0.116 C 
BRANCH   5   6
ATOM      6  C   LIG A   1      -5.942   4.031 123.500  0.00  0.00    -0.037 A 
ATOM      7  C   LIG A   1      -4.891   4.543 122.726  0.00  0.00    +0.004 A 
ATOM      8  C   LIG A   1      -4.942   4.473 121.335  0.00  0.00    +0.000 A 
ATOM      9  C   LIG A   1      -6.023   3.860 120.702  0.00  0.00    +0.000 A 
ATOM     10  C   LIG A   1      -7.057   3.316 121.463  0.00  0.00    +0.000 A 
ATOM     11  C   LIG A   1      -7.024   3.414 122.849  0.00  0.00    +0.004 A 
ENDBRANCH   5   6
ENDBRANCH   4   5
ENDBRANCH   3   4
ENDBRANCH   2   3
ENDBRANCH   1   2
BRANCH   1  12
ATOM     12  S   LIG A   1      -8.892   5.065 130.394  0.00  0.00    -0.070 S 
BRANCH  12  13
ATOM     13  S   LIG A   1     -10.937   4.889 130.533  0.00  0.00    -0.023 S 
BRANCH  13  14
ATOM     14  S   LIG A   1     -11.543   6.484 131.675  0.00  0.00    -0.077 S 
BRANCH  14  15
ATOM     15  C   LIG A   1     -12.854   7.218 130.638  0.00  0.00    +0.116 C 
BRANCH  15  16
ATOM     16  C   LIG A   1     -12.376   7.427 129.230  0.00  0.00    -0.037 A 
ATOM     17  C   LIG A   1     -11.191   8.141 128.984  0.00  0.00    +0.004 A 
ATOM     18  C   LIG A   1     -10.727   8.311 127.679  0.00  0.00    +0.000 A 
ATOM     19  C   LIG A   1     -11.443   7.771 126.609  0.00  0.00    +0.000 A 
ATOM     20  C   LIG A   1     -12.616   7.057 126.843  0.00  0.00    +0.000 A 
ATOM     21  C   LIG A   1     -13.082   6.888 128.148  0.00  0.00    +0.004 A 
ENDBRANCH  15  16
ENDBRANCH  14  15
ENDBRANCH  13  14
ENDBRANCH  12  13
ENDBRANCH   1  12
TORSDOF 10
ENDMDL
MODEL 3
REMARK VINA RESULT:      -6.1      2.384      3.104
REMARK  Name = NuBBE_404
REMARK  10 active torsions:
REMARK  status: ('A' for Active; 'I' for Inactive)
REMARK    1  A    between atoms: C_1  and  C_2
REMARK    2  A    between atoms: C_2  and  S_3
REMARK    3  A    between atoms: S_3  and  S_4
REMARK    4  A    between atoms: S_4  and  S_5
REMARK    5  A    between atoms: S_5  and  C_6
REMARK    6  A    between atoms: C_6  and  S_7
REMARK    7  A    between atoms: S_7  and  S_8
REMARK    8  A    between atoms: S_8  and  S_9
REMARK    9  A    between atoms: S_9  and  C_10
REMARK   10  A    between atoms: C_10  and  C_11
REMARK                            x       y       z     vdW  Elec       q    Type
REMARK                         _______ _______ _______ _____ _____    ______ ____
ROOT
ATOM      1  C   LIG A   1      -9.129   2.736 131.620  0.00  0.00    +0.163 C 
ENDROOT
BRANCH   1   2
ATOM      2  S   LIG A   1      -7.693   1.696 131.275  0.00  0.00    -0.070 S 
BRANCH   2   3
ATOM      3  S   LIG A   1      -8.449  -0.197 131.537  0.00  0.00    -0.023 S 
BRANCH   3   4
ATOM      4  S   LIG A   1      -6.844  -1.478 131.420  0.00  0.00    -0.077 S 
BRANCH   4   5
ATOM      5  C   LIG A   1      -7.494  -2.985 130.646  0.00  0.00    +0.116 C 
BRANCH   5   6
ATOM      6  C   LIG A   1      -7.838  -2.874 129.188  0.00  0.00    -0.037 A 
ATOM      7  C   LIG A   1      -8.764  -3.749 128.604  0.00  0.00    +0.004 A 
ATOM      8  C   LIG A   1      -9.003  -3.708 127.231  0.00  0.00    +0.000 A 
ATOM      9  C   LIG A   1      -8.347  -2.772 126.433  0.00  0.00    +0.000 A 
ATOM     10  C   LIG A   1      -7.451  -1.873 127.009  0.00  0.00    +0.000 A 
ATOM     11  C   LIG A   1      -7.187  -1.934 128.372  0.00  0.00    +0.004 A 
ENDBRANCH   5   6
ENDBRANCH   4   5
ENDBRANCH   3   4
ENDBRANCH   2   3
ENDBRANCH   1   2
BRANCH   1  12
ATOM     12  S   LIG A   1      -9.166   4.258 130.634  0.00  0.00    -0.070 S 
BRANCH  12  13
ATOM     13  S   LIG A   1     -11.162   4.736 130.494  0.00  0.00    -0.023 S 
BRANCH  13  14
ATOM     14  S   LIG A   1     -11.401   6.416 131.651  0.00  0.00    -0.077 S 
BRANCH  14  15
ATOM     15  C   LIG A   1     -12.674   7.338 130.725  0.00  0.00    +0.116 C 
BRANCH  15  16
ATOM     16  C   LIG A   1     -12.294   7.481 129.279  0.00  0.00    -0.037 A 
ATOM     17  C   LIG A   1     -11.100   8.127 128.922  0.00  0.00    +0.004 A 
ATOM     18  C   LIG A   1     -10.728   8.233 127.581  0.00  0.00    +0.000 A 
ATOM     19  C   LIG A   1     -11.546   7.696 126.586  0.00  0.00    +0.000 A 
ATOM     20  C   LIG A   1     -12.731   7.049 126.930  0.00  0.00    +0.000 A 
ATOM     21  C   LIG A   1     -13.104   6.943 128.271  0.00  0.00    +0.004 A 
ENDBRANCH  15  16
ENDBRANCH  14  15
ENDBRANCH  13  14
ENDBRANCH  12  13
ENDBRANCH   1  12
TORSDOF 10
ENDMDL
MODEL 4
REMARK VINA RESULT:      -6.0      2.497      9.642
REMARK  Name = NuBBE_404
REMARK  10 active torsions:
REMARK  status: ('A' for Active; 'I' for Inactive)
REMARK    1  A    between atoms: C_1  and  C_2
REMARK    2  A    between atoms: C_2  and  S_3
REMARK    3  A    between atoms: S_3  and  S_4
REMARK    4  A    between atoms: S_4  and  S_5
REMARK    5  A    between atoms: S_5  and  C_6
REMARK    6  A    between atoms: C_6  and  S_7
REMARK    7  A    between atoms: S_7  and  S_8
REMARK    8  A    between atoms: S_8  and  S_9
REMARK    9  A    between atoms: S_9  and  C_10
REMARK   10  A    between atoms: C_10  and  C_11
REMARK                            x       y       z     vdW  Elec       q    Type
REMARK                         _______ _______ _______ _____ _____    ______ ____
ROOT
ATOM      1  C   LIG A   1      -8.447   3.119 131.421  0.00  0.00    +0.163 C 
ENDROOT
BRANCH   1   2
ATOM      2  S   LIG A   1      -7.652   4.306 132.526  0.00  0.00    -0.070 S 
BRANCH   2   3
ATOM      3  S   LIG A   1      -9.119   5.724 132.774  0.00  0.00    -0.023 S 
BRANCH   3   4
ATOM      4  S   LIG A   1     -10.062   5.899 130.955  0.00  0.00    -0.077 S 
BRANCH   4   5
ATOM      5  C   LIG A   1     -11.677   6.638 131.325  0.00  0.00    +0.116 C 
BRANCH   5   6
ATOM      6  C   LIG A   1     -12.399   7.250 130.158  0.00  0.00    -0.037 A 
ATOM      7  C   LIG A   1     -12.870   6.447 129.110  0.00  0.00    +0.004 A 
ATOM      8  C   LIG A   1     -13.448   7.030 127.982  0.00  0.00    +0.000 A 
ATOM      9  C   LIG A   1     -13.592   8.414 127.904  0.00  0.00    +0.000 A 
ATOM     10  C   LIG A   1     -13.160   9.219 128.957  0.00  0.00    +0.000 A 
ATOM     11  C   LIG A   1     -12.554   8.643 130.067  0.00  0.00    +0.004 A 
ENDBRANCH   5   6
ENDBRANCH   4   5
ENDBRANCH   3   4
ENDBRANCH   2   3
ENDBRANCH   1   2
BRANCH   1  12
ATOM     12  S   LIG A   1      -7.442   1.640 131.114  0.00  0.00    -0.070 S 
BRANCH  12  13
ATOM     13  S   LIG A   1      -8.703   0.064 131.511  0.00  0.00    -0.023 S 
BRANCH  13  14
ATOM     14  S   LIG A   1      -7.523  -1.614 131.418  0.00  0.00    -0.077 S 
BRANCH  14  15
ATOM     15  C   LIG A   1      -6.756  -1.449 129.770  0.00  0.00    +0.116 C 
BRANCH  15  16
ATOM     16  C   LIG A   1      -7.587  -2.123 128.717  0.00  0.00    -0.037 A 
ATOM     17  C   LIG A   1      -7.765  -1.518 127.462  0.00  0.00    +0.004 A 
ATOM     18  C   LIG A   1      -8.511  -2.156 126.470  0.00  0.00    +0.000 A 
ATOM     19  C   LIG A   1      -9.085  -3.403 126.723  0.00  0.00    +0.000 A 
ATOM     20  C   LIG A   1      -8.909  -4.014 127.962  0.00  0.00    +0.000 A 
ATOM     21  C   LIG A   1      -8.165  -3.376 128.956  0.00  0.00    +0.004 A 
ENDBRANCH  15  16
ENDBRANCH  14  15
ENDBRANCH  13  14
ENDBRANCH  12  13
ENDBRANCH   1  12
TORSDOF 10
ENDMDL
MODEL 5
REMARK VINA RESULT:      -6.0      1.362      9.627
REMARK  Name = NuBBE_404
REMARK  10 active torsions:
REMARK  status: ('A' for Active; 'I' for Inactive)
REMARK    1  A    between atoms: C_1  and  C_2
REMARK    2  A    between atoms: C_2  and  S_3
REMARK    3  A    between atoms: S_3  and  S_4
REMARK    4  A    between atoms: S_4  and  S_5
REMARK    5  A    between atoms: S_5  and  C_6
REMARK    6  A    between atoms: C_6  and  S_7
REMARK    7  A    between atoms: S_7  and  S_8
REMARK    8  A    between atoms: S_8  and  S_9
REMARK    9  A    between atoms: S_9  and  C_10
REMARK   10  A    between atoms: C_10  and  C_11
REMARK                            x       y       z     vdW  Elec       q    Type
REMARK                         _______ _______ _______ _____ _____    ______ ____
ROOT
ATOM      1  C   LIG A   1      -7.455   4.166 129.344  0.00  0.00    +0.163 C 
ENDROOT
BRANCH   1   2
ATOM      2  S   LIG A   1      -8.944   5.188 129.317  0.00  0.00    -0.070 S 
BRANCH   2   3
ATOM      3  S   LIG A   1      -8.817   6.195 131.104  0.00  0.00    -0.023 S 
BRANCH   3   4
ATOM      4  S   LIG A   1     -10.718   6.221 131.886  0.00  0.00    -0.077 S 
BRANCH   4   5
ATOM      5  C   LIG A   1     -11.806   5.760 130.509  0.00  0.00    +0.116 C 
BRANCH   5   6
ATOM      6  C   LIG A   1     -12.446   6.901 129.771  0.00  0.00    -0.037 A 
ATOM      7  C   LIG A   1     -13.149   6.677 128.580  0.00  0.00    +0.004 A 
ATOM      8  C   LIG A   1     -13.652   7.751 127.846  0.00  0.00    +0.000 A 
ATOM      9  C   LIG A   1     -13.489   9.055 128.312  0.00  0.00    +0.000 A 
ATOM     10  C   LIG A   1     -12.822   9.287 129.514  0.00  0.00    +0.000 A 
ATOM     11  C   LIG A   1     -12.292   8.220 130.229  0.00  0.00    +0.004 A 
ENDBRANCH   5   6
ENDBRANCH   4   5
ENDBRANCH   3   4
ENDBRANCH   2   3
ENDBRANCH   1   2
BRANCH   1  12
ATOM     12  S   LIG A   1      -7.720   2.494 128.691  0.00  0.00    -0.070 S 
BRANCH  12  13
ATOM     13  S   LIG A   1      -7.423   2.676 126.663  0.00  0.00    -0.023 S 
BRANCH  13  14
ATOM     14  S   LIG A   1      -8.778   1.400 125.798  0.00  0.00    -0.077 S 
BRANCH  14  15
ATOM     15  C   LIG A   1      -7.715   0.398 124.705  0.00  0.00    +0.116 C 
BRANCH  15  16
ATOM     16  C   LIG A   1      -8.257  -0.994 124.551  0.00  0.00    -0.037 A 
ATOM     17  C   LIG A   1      -8.562  -1.765 125.685  0.00  0.00    +0.004 A 
ATOM     18  C   LIG A   1      -9.095  -3.047 125.544  0.00  0.00    +0.000 A 
ATOM     19  C   LIG A   1      -9.328  -3.569 124.272  0.00  0.00    +0.000 A 
ATOM     20  C   LIG A   1      -9.035  -2.811 123.141  0.00  0.00    +0.000 A 
ATOM     21  C   LIG A   1      -8.500  -1.529 123.280  0.00  0.00    +0.004 A 
ENDBRANCH  15  16
ENDBRANCH  14  15
ENDBRANCH  13  14
ENDBRANCH  12  13
ENDBRANCH   1  12
TORSDOF 10
ENDMDL
MODEL 6
REMARK VINA RESULT:      -5.9      3.276      8.882
REMARK  Name = NuBBE_404
REMARK  10 active torsions:
REMARK  status: ('A' for Active; 'I' for Inactive)
REMARK    1  A    between atoms: C_1  and  C_2
REMARK    2  A    between atoms: C_2  and  S_3
REMARK    3  A    between atoms: S_3  and  S_4
REMARK    4  A    between atoms: S_4  and  S_5
REMARK    5  A    between atoms: S_5  and  C_6
REMARK    6  A    between atoms: C_6  and  S_7
REMARK    7  A    between atoms: S_7  and  S_8
REMARK    8  A    between atoms: S_8  and  S_9
REMARK    9  A    between atoms: S_9  and  C_10
REMARK   10  A    between atoms: C_10  and  C_11
REMARK                            x       y       z     vdW  Elec       q    Type
REMARK                         _______ _______ _______ _____ _____    ______ ____
ROOT
ATOM      1  C   LIG A   1      -7.506   2.792 129.159  0.00  0.00    +0.163 C 
ENDROOT
BRANCH   1   2
ATOM      2  S   LIG A   1      -8.829   3.041 130.364  0.00  0.00    -0.070 S 
BRANCH   2   3
ATOM      3  S   LIG A   1      -7.879   4.102 131.845  0.00  0.00    -0.023 S 
BRANCH   3   4
ATOM      4  S   LIG A   1      -8.537   6.043 131.674  0.00  0.00    -0.077 S 
BRANCH   4   5
ATOM      5  C   LIG A   1      -9.259   6.156 130.014  0.00  0.00    +0.116 C 
BRANCH   5   6
ATOM      6  C   LIG A   1     -10.464   7.045 129.885  0.00  0.00    -0.037 A 
ATOM      7  C   LIG A   1     -11.527   6.942 130.792  0.00  0.00    +0.004 A 
ATOM      8  C   LIG A   1     -12.686   7.697 130.608  0.00  0.00    +0.000 A 
ATOM      9  C   LIG A   1     -12.780   8.586 129.538  0.00  0.00    +0.000 A 
ATOM     10  C   LIG A   1     -11.714   8.722 128.650  0.00  0.00    +0.000 A 
ATOM     11  C   LIG A   1     -10.572   7.947 128.814  0.00  0.00    +0.004 A 
ENDBRANCH   5   6
ENDBRANCH   4   5
ENDBRANCH   3   4
ENDBRANCH   2   3
ENDBRANCH   1   2
BRANCH   1  12
ATOM     12  S   LIG A   1      -8.088   2.101 127.586  0.00  0.00    -0.070 S 
BRANCH  12  13
ATOM     13  S   LIG A   1      -6.717   2.747 126.196  0.00  0.00    -0.023 S 
BRANCH  13  14
ATOM     14  S   LIG A   1      -7.048   1.595 124.529  0.00  0.00    -0.077 S 
BRANCH  14  15
ATOM     15  C   LIG A   1      -8.344   2.544 123.662  0.00  0.00    +0.116 C 
BRANCH  15  16
ATOM     16  C   LIG A   1      -7.823   3.121 122.377  0.00  0.00    -0.037 A 
ATOM     17  C   LIG A   1      -6.441   3.284 122.183  0.00  0.00    +0.004 A 
ATOM     18  C   LIG A   1      -5.952   3.791 120.978  0.00  0.00    +0.000 A 
ATOM     19  C   LIG A   1      -6.838   4.138 119.958  0.00  0.00    +0.000 A 
ATOM     20  C   LIG A   1      -8.210   3.975 120.138  0.00  0.00    +0.000 A 
ATOM     21  C   LIG A   1      -8.700   3.470 121.343  0.00  0.00    +0.004 A 
ENDBRANCH  15  16
ENDBRANCH  14  15
ENDBRANCH  13  14
ENDBRANCH  12  13
ENDBRANCH   1  12
TORSDOF 10
ENDMDL
MODEL 7
REMARK VINA RESULT:      -5.9      5.232      8.688
REMARK  Name = NuBBE_404
REMARK  10 active torsions:
REMARK  status: ('A' for Active; 'I' for Inactive)
REMARK    1  A    between atoms: C_1  and  C_2
REMARK    2  A    between atoms: C_2  and  S_3
REMARK    3  A    between atoms: S_3  and  S_4
REMARK    4  A    between atoms: S_4  and  S_5
REMARK    5  A    between atoms: S_5  and  C_6
REMARK    6  A    between atoms: C_6  and  S_7
REMARK    7  A    between atoms: S_7  and  S_8
REMARK    8  A    between atoms: S_8  and  S_9
REMARK    9  A    between atoms: S_9  and  C_10
REMARK   10  A    between atoms: C_10  and  C_11
REMARK                            x       y       z     vdW  Elec       q    Type
REMARK                         _______ _______ _______ _____ _____    ______ ____
ROOT
ATOM      1  C   LIG A   1      -5.779   2.496 128.376  0.00  0.00    +0.163 C 
ENDROOT
BRANCH   1   2
ATOM      2  S   LIG A   1      -5.578   3.733 127.075  0.00  0.00    -0.070 S 
BRANCH   2   3
ATOM      3  S   LIG A   1      -6.037   2.665 125.380  0.00  0.00    -0.023 S 
BRANCH   3   4
ATOM      4  S   LIG A   1      -5.708   3.933 123.795  0.00  0.00    -0.077 S 
BRANCH   4   5
ATOM      5  C   LIG A   1      -6.710   3.267 122.437  0.00  0.00    +0.116 C 
BRANCH   5   6
ATOM      6  C   LIG A   1      -6.523   3.930 121.101  0.00  0.00    -0.037 A 
ATOM      7  C   LIG A   1      -5.359   4.659 120.823  0.00  0.00    +0.004 A 
ATOM      8  C   LIG A   1      -5.235   5.357 119.621  0.00  0.00    +0.000 A 
ATOM      9  C   LIG A   1      -6.255   5.305 118.673  0.00  0.00    +0.000 A 
ATOM     10  C   LIG A   1      -7.402   4.553 118.924  0.00  0.00    +0.000 A 
ATOM     11  C   LIG A   1      -7.541   3.885 120.135  0.00  0.00    +0.004 A 
ENDBRANCH   5   6
ENDBRANCH   4   5
ENDBRANCH   3   4
ENDBRANCH   2   3
ENDBRANCH   1   2
BRANCH   1  12
ATOM     12  S   LIG A   1      -7.492   2.332 128.951  0.00  0.00    -0.070 S 
BRANCH  12  13
ATOM     13  S   LIG A   1      -7.689   0.340 129.429  0.00  0.00    -0.023 S 
BRANCH  13  14
ATOM     14  S   LIG A   1      -6.461  -0.657 128.120  0.00  0.00    -0.077 S 
BRANCH  14  15
ATOM     15  C   LIG A   1      -7.309  -2.263 127.951  0.00  0.00    +0.116 C 
BRANCH  15  16
ATOM     16  C   LIG A   1      -7.574  -2.586 126.508  0.00  0.00    -0.037 A 
ATOM     17  C   LIG A   1      -8.844  -3.031 126.104  0.00  0.00    +0.004 A 
ATOM     18  C   LIG A   1      -9.102  -3.302 124.760  0.00  0.00    +0.000 A 
ATOM     19  C   LIG A   1      -8.096  -3.130 123.808  0.00  0.00    +0.000 A 
ATOM     20  C   LIG A   1      -6.835  -2.684 124.198  0.00  0.00    +0.000 A 
ATOM     21  C   LIG A   1      -6.575  -2.414 125.542  0.00  0.00    +0.004 A 
ENDBRANCH  15  16
ENDBRANCH  14  15
ENDBRANCH  13  14
ENDBRANCH  12  13
ENDBRANCH   1  12
TORSDOF 10
ENDMDL
MODEL 8
REMARK VINA RESULT:      -5.8      1.906      2.316
REMARK  Name = NuBBE_404
REMARK  10 active torsions:
REMARK  status: ('A' for Active; 'I' for Inactive)
REMARK    1  A    between atoms: C_1  and  C_2
REMARK    2  A    between atoms: C_2  and  S_3
REMARK    3  A    between atoms: S_3  and  S_4
REMARK    4  A    between atoms: S_4  and  S_5
REMARK    5  A    between atoms: S_5  and  C_6
REMARK    6  A    between atoms: C_6  and  S_7
REMARK    7  A    between atoms: S_7  and  S_8
REMARK    8  A    between atoms: S_8  and  S_9
REMARK    9  A    between atoms: S_9  and  C_10
REMARK   10  A    between atoms: C_10  and  C_11
REMARK                            x       y       z     vdW  Elec       q    Type
REMARK                         _______ _______ _______ _____ _____    ______ ____
ROOT
ATOM      1  C   LIG A   1      -8.627   1.849 130.082  0.00  0.00    +0.163 C 
ENDROOT
BRANCH   1   2
ATOM      2  S   LIG A   1      -8.283   1.501 128.343  0.00  0.00    -0.070 S 
BRANCH   2   3
ATOM      3  S   LIG A   1      -6.413   0.652 128.428  0.00  0.00    -0.023 S 
BRANCH   3   4
ATOM      4  S   LIG A   1      -6.706  -1.349 128.795  0.00  0.00    -0.077 S 
BRANCH   4   5
ATOM      5  C   LIG A   1      -6.142  -2.197 127.293  0.00  0.00    +0.116 C 
BRANCH   5   6
ATOM      6  C   LIG A   1      -7.209  -2.519 126.285  0.00  0.00    -0.037 A 
ATOM      7  C   LIG A   1      -8.559  -2.555 126.661  0.00  0.00    +0.004 A 
ATOM      8  C   LIG A   1      -9.534  -2.953 125.747  0.00  0.00    +0.000 A 
ATOM      9  C   LIG A   1      -9.176  -3.286 124.441  0.00  0.00    +0.000 A 
ATOM     10  C   LIG A   1      -7.841  -3.219 124.047  0.00  0.00    +0.000 A 
ATOM     11  C   LIG A   1      -6.864  -2.854 124.966  0.00  0.00    +0.004 A 
ENDBRANCH   5   6
ENDBRANCH   4   5
ENDBRANCH   3   4
ENDBRANCH   2   3
ENDBRANCH   1   2
BRANCH   1  12
ATOM     12  S   LIG A   1      -9.683   3.304 130.327  0.00  0.00    -0.070 S 
BRANCH  12  13
ATOM     13  S   LIG A   1      -9.065   4.096 132.123  0.00  0.00    -0.023 S 
BRANCH  13  14
ATOM     14  S   LIG A   1     -10.054   5.887 132.296  0.00  0.00    -0.077 S 
BRANCH  14  15
ATOM     15  C   LIG A   1      -9.468   6.790 130.823  0.00  0.00    +0.116 C 
BRANCH  15  16
ATOM     16  C   LIG A   1     -10.620   7.255 129.980  0.00  0.00    -0.037 A 
ATOM     17  C   LIG A   1     -10.390   8.044 128.841  0.00  0.00    +0.004 A 
ATOM     18  C   LIG A   1     -11.456   8.452 128.037  0.00  0.00    +0.000 A 
ATOM     19  C   LIG A   1     -12.759   8.076 128.365  0.00  0.00    +0.000 A 
ATOM     20  C   LIG A   1     -12.997   7.289 129.489  0.00  0.00    +0.000 A 
ATOM     21  C   LIG A   1     -11.933   6.882 130.294  0.00  0.00    +0.004 A 
ENDBRANCH  15  16
ENDBRANCH  14  15
ENDBRANCH  13  14
ENDBRANCH  12  13
ENDBRANCH   1  12
TORSDOF 10
ENDMDL
MODEL 9
REMARK VINA RESULT:      -5.8      3.360      4.267
REMARK  Name = NuBBE_404
REMARK  10 active torsions:
REMARK  status: ('A' for Active; 'I' for Inactive)
REMARK    1  A    between atoms: C_1  and  C_2
REMARK    2  A    between atoms: C_2  and  S_3
REMARK    3  A    between atoms: S_3  and  S_4
REMARK    4  A    between atoms: S_4  and  S_5
REMARK    5  A    between atoms: S_5  and  C_6
REMARK    6  A    between atoms: C_6  and  S_7
REMARK    7  A    between atoms: S_7  and  S_8
REMARK    8  A    between atoms: S_8  and  S_9
REMARK    9  A    between atoms: S_9  and  C_10
REMARK   10  A    between atoms: C_10  and  C_11
REMARK                            x       y       z     vdW  Elec       q    Type
REMARK                         _______ _______ _______ _____ _____    ______ ____
ROOT
ATOM      1  C   LIG A   1      -6.637   1.814 128.686  0.00  0.00    +0.163 C 
ENDROOT
BRANCH   1   2
ATOM      2  S   LIG A   1      -6.363   2.121 126.927  0.00  0.00    -0.070 S 
BRANCH   2   3
ATOM      3  S   LIG A   1      -7.542   0.688 126.043  0.00  0.00    -0.023 S 
BRANCH   3   4
ATOM      4  S   LIG A   1      -7.366   0.971 124.013  0.00  0.00    -0.077 S 
BRANCH   4   5
ATOM      5  C   LIG A   1      -6.969   2.730 123.810  0.00  0.00    +0.116 C 
BRANCH   5   6
ATOM      6  C   LIG A   1      -7.089   3.270 122.413  0.00  0.00    -0.037 A 
ATOM      7  C   LIG A   1      -8.347   3.424 121.813  0.00  0.00    +0.004 A 
ATOM      8  C   LIG A   1      -8.448   3.828 120.483  0.00  0.00    +0.000 A 
ATOM      9  C   LIG A   1      -7.298   4.116 119.749  0.00  0.00    +0.000 A 
ATOM     10  C   LIG A   1      -6.043   4.001 120.347  0.00  0.00    +0.000 A 
ATOM     11  C   LIG A   1      -5.940   3.567 121.663  0.00  0.00    +0.004 A 
ENDBRANCH   5   6
ENDBRANCH   4   5
ENDBRANCH   3   4
ENDBRANCH   2   3
ENDBRANCH   1   2
BRANCH   1  12
ATOM     12  S   LIG A   1      -8.362   2.054 129.195  0.00  0.00    -0.070 S 
BRANCH  12  13
ATOM     13  S   LIG A   1      -8.264   3.425 130.726  0.00  0.00    -0.023 S 
BRANCH  13  14
ATOM     14  S   LIG A   1      -8.787   5.222 129.881  0.00  0.00    -0.077 S 
BRANCH  14  15
ATOM     15  C   LIG A   1     -10.573   5.308 130.244  0.00  0.00    +0.116 C 
BRANCH  15  16
ATOM     16  C   LIG A   1     -11.216   6.459 129.524  0.00  0.00    -0.037 A 
ATOM     17  C   LIG A   1     -10.423   7.466 128.950  0.00  0.00    +0.004 A 
ATOM     18  C   LIG A   1     -11.016   8.521 128.254  0.00  0.00    +0.000 A 
ATOM     19  C   LIG A   1     -12.404   8.578 128.126  0.00  0.00    +0.000 A 
ATOM     20  C   LIG A   1     -13.199   7.582 128.687  0.00  0.00    +0.000 A 
ATOM     21  C   LIG A   1     -12.608   6.527 129.385  0.00  0.00    +0.004 A 
ENDBRANCH  15  16
ENDBRANCH  14  15
ENDBRANCH  13  14
ENDBRANCH  12  13
ENDBRANCH   1  12
TORSDOF 10
ENDMDL
