MODEL 1
REMARK VINA RESULT:      -8.6      0.000      0.000
REMARK  Name = NuBBE_328
REMARK  4 active torsions:
REMARK  status: ('A' for Active; 'I' for Inactive)
REMARK    1  A    between atoms: C_21  and  C_22
REMARK    2  A    between atoms: C_22  and  O_23
REMARK    3  A    between atoms: O_23  and  C_24
REMARK    4  A    between atoms: C_28  and  C_30
REMARK                            x       y       z     vdW  Elec       q    Type
REMARK                         _______ _______ _______ _____ _____    ______ ____
ROOT
ATOM      1  H   LIG A   1     -10.088  -4.247 127.062  0.00  0.00    +0.155 HD
ATOM      2  N   LIG A   1      -9.326  -3.610 126.882  0.00  0.00    -0.284 N 
ATOM      3  C   LIG A   1      -8.442  -3.123 127.832  0.00  0.00    +0.038 A 
ATOM      4  C   LIG A   1      -8.397  -3.434 129.174  0.00  0.00    +0.023 A 
ATOM      5  C   LIG A   1      -7.414  -2.812 129.946  0.00  0.00    +0.002 A 
ATOM      6  C   LIG A   1      -6.515  -1.900 129.365  0.00  0.00    +0.000 A 
ATOM      7  C   LIG A   1      -6.575  -1.608 128.000  0.00  0.00    +0.006 A 
ATOM      8  C   LIG A   1      -7.549  -2.233 127.237  0.00  0.00    -0.010 A 
ATOM      9  C   LIG A   1      -7.821  -2.181 125.747  0.00  0.00    +0.090 C 
ATOM     10  C   LIG A   1      -7.993  -0.815 125.068  0.00  0.00    +0.077 C 
ATOM     11  C   LIG A   1      -8.691   0.299 125.840  0.00  0.00    +0.029 C 
ATOM     12  C   LIG A   1      -8.552   1.670 125.129  0.00  0.00    +0.038 C 
ATOM     13  C   LIG A   1      -7.044   1.930 124.873  0.00  0.00    +0.051 C 
ATOM     14  C   LIG A   1      -6.423   0.768 124.057  0.00  0.00    +0.092 C 
ATOM     15  N   LIG A   1      -6.585  -0.472 124.802  0.00  0.00    -0.298 NA
ATOM     16  C   LIG A   1      -6.050  -1.659 124.142  0.00  0.00    +0.086 C 
ATOM     17  C   LIG A   1      -6.643  -2.809 124.963  0.00  0.00    +0.038 C 
ATOM     18  C   LIG A   1      -9.294   1.903 123.829  0.00  0.00    +0.074 C 
ATOM     19  C   LIG A   1      -8.795   2.732 122.895  0.00  0.00    +0.198 C 
ATOM     20  O   LIG A   1      -7.605   3.407 122.949  0.00  0.00    -0.496 OA
ATOM     21  C   LIG A   1      -6.830   3.269 124.148  0.00  0.00    +0.174 C 
ATOM     22  C   LIG A   1      -7.090   4.481 125.042  0.00  0.00    +0.052 C 
ATOM     23  C   LIG A   1      -9.079  -3.064 125.627  0.00  0.00    +0.229 C 
ATOM     24  O   LIG A   1      -9.724  -3.296 124.617  0.00  0.00    -0.274 OA
ENDROOT
BRANCH  18  25
ATOM     25  C   LIG A   1     -10.586   1.223 123.550  0.00  0.00    +0.338 C 
ATOM     26  O   LIG A   1     -11.529   1.206 124.322  0.00  0.00    -0.245 OA
BRANCH  25  27
ATOM     27  O   LIG A   1     -10.523   0.570 122.359  0.00  0.00    -0.465 OA
ATOM     28  C   LIG A   1      -9.854  -0.690 122.392  0.00  0.00    +0.280 C 
ENDBRANCH  25  27
ENDBRANCH  18  25
TORSDOF 2
ENDMDL
MODEL 2
REMARK VINA RESULT:      -8.3      7.917     10.469
REMARK  Name = NuBBE_328
REMARK  4 active torsions:
REMARK  status: ('A' for Active; 'I' for Inactive)
REMARK    1  A    between atoms: C_21  and  C_22
REMARK    2  A    between atoms: C_22  and  O_23
REMARK    3  A    between atoms: O_23  and  C_24
REMARK    4  A    between atoms: C_28  and  C_30
REMARK                            x       y       z     vdW  Elec       q    Type
REMARK                         _______ _______ _______ _____ _____    ______ ____
ROOT
ATOM      1  H   LIG A   1     -10.198   7.146 127.482  0.00  0.00    +0.155 HD
ATOM      2  N   LIG A   1     -10.302   6.724 128.393  0.00  0.00    -0.284 N 
ATOM      3  C   LIG A   1     -11.194   7.130 129.372  0.00  0.00    +0.038 A 
ATOM      4  C   LIG A   1     -12.128   8.141 129.290  0.00  0.00    +0.023 A 
ATOM      5  C   LIG A   1     -12.921   8.378 130.414  0.00  0.00    +0.002 A 
ATOM      6  C   LIG A   1     -12.759   7.611 131.581  0.00  0.00    +0.000 A 
ATOM      7  C   LIG A   1     -11.811   6.586 131.638  0.00  0.00    +0.006 A 
ATOM      8  C   LIG A   1     -11.031   6.351 130.517  0.00  0.00    -0.010 A 
ATOM      9  C   LIG A   1      -9.987   5.287 130.246  0.00  0.00    +0.090 C 
ATOM     10  C   LIG A   1      -8.830   5.106 131.239  0.00  0.00    +0.077 C 
ATOM     11  C   LIG A   1      -8.256   6.344 131.920  0.00  0.00    +0.029 C 
ATOM     12  C   LIG A   1      -7.289   5.973 133.073  0.00  0.00    +0.038 C 
ATOM     13  C   LIG A   1      -8.034   5.011 134.037  0.00  0.00    +0.051 C 
ATOM     14  C   LIG A   1      -8.554   3.769 133.271  0.00  0.00    +0.092 C 
ATOM     15  N   LIG A   1      -9.461   4.208 132.221  0.00  0.00    -0.298 NA
ATOM     16  C   LIG A   1     -10.024   3.134 131.407  0.00  0.00    +0.086 C 
ATOM     17  C   LIG A   1     -10.642   3.884 130.223  0.00  0.00    +0.038 C 
ATOM     18  C   LIG A   1      -5.948   5.353 132.737  0.00  0.00    +0.074 C 
ATOM     19  C   LIG A   1      -5.359   4.493 133.589  0.00  0.00    +0.198 C 
ATOM     20  O   LIG A   1      -5.863   4.042 134.779  0.00  0.00    -0.496 OA
ATOM     21  C   LIG A   1      -7.123   4.581 135.201  0.00  0.00    +0.174 C 
ATOM     22  C   LIG A   1      -6.865   5.705 136.203  0.00  0.00    +0.052 C 
ATOM     23  C   LIG A   1      -9.500   5.677 128.836  0.00  0.00    +0.229 C 
ATOM     24  O   LIG A   1      -8.612   5.146 128.188  0.00  0.00    -0.274 OA
ENDROOT
BRANCH  18  25
ATOM     25  C   LIG A   1      -5.251   5.673 131.464  0.00  0.00    +0.338 C 
ATOM     26  O   LIG A   1      -5.245   4.946 130.487  0.00  0.00    -0.245 OA
BRANCH  25  27
ATOM     27  O   LIG A   1      -4.570   6.844 131.587  0.00  0.00    -0.465 OA
ATOM     28  C   LIG A   1      -4.551   7.661 130.418  0.00  0.00    +0.280 C 
ENDBRANCH  25  27
ENDBRANCH  18  25
TORSDOF 2
ENDMDL
MODEL 3
REMARK VINA RESULT:      -8.2      6.510      8.873
REMARK  Name = NuBBE_328
REMARK  4 active torsions:
REMARK  status: ('A' for Active; 'I' for Inactive)
REMARK    1  A    between atoms: C_21  and  C_22
REMARK    2  A    between atoms: C_22  and  O_23
REMARK    3  A    between atoms: O_23  and  C_24
REMARK    4  A    between atoms: C_28  and  C_30
REMARK                            x       y       z     vdW  Elec       q    Type
REMARK                         _______ _______ _______ _____ _____    ______ ____
ROOT
ATOM      1  H   LIG A   1     -11.587   6.195 133.499  0.00  0.00    +0.155 HD
ATOM      2  N   LIG A   1     -11.018   6.115 132.670  0.00  0.00    -0.284 N 
ATOM      3  C   LIG A   1     -11.359   6.584 131.411  0.00  0.00    +0.038 A 
ATOM      4  C   LIG A   1     -12.496   7.275 131.052  0.00  0.00    +0.023 A 
ATOM      5  C   LIG A   1     -12.629   7.645 129.712  0.00  0.00    +0.002 A 
ATOM      6  C   LIG A   1     -11.636   7.311 128.774  0.00  0.00    +0.000 A 
ATOM      7  C   LIG A   1     -10.488   6.617 129.164  0.00  0.00    +0.006 A 
ATOM      8  C   LIG A   1     -10.358   6.259 130.496  0.00  0.00    -0.010 A 
ATOM      9  C   LIG A   1      -9.220   5.578 131.229  0.00  0.00    +0.090 C 
ATOM     10  C   LIG A   1      -8.678   4.245 130.692  0.00  0.00    +0.077 C 
ATOM     11  C   LIG A   1      -9.660   3.260 130.068  0.00  0.00    +0.029 C 
ATOM     12  C   LIG A   1      -8.931   2.097 129.345  0.00  0.00    +0.038 C 
ATOM     13  C   LIG A   1      -7.926   2.711 128.335  0.00  0.00    +0.051 C 
ATOM     14  C   LIG A   1      -6.948   3.672 129.057  0.00  0.00    +0.092 C 
ATOM     15  N   LIG A   1      -7.714   4.735 129.692  0.00  0.00    -0.298 NA
ATOM     16  C   LIG A   1      -6.915   5.715 130.422  0.00  0.00    +0.086 C 
ATOM     17  C   LIG A   1      -7.964   6.483 131.233  0.00  0.00    +0.038 C 
ATOM     18  C   LIG A   1      -8.191   1.066 130.173  0.00  0.00    +0.074 C 
ATOM     19  C   LIG A   1      -7.105   0.444 129.680  0.00  0.00    +0.198 C 
ATOM     20  O   LIG A   1      -6.514   0.665 128.465  0.00  0.00    -0.496 OA
ATOM     21  C   LIG A   1      -7.147   1.611 127.593  0.00  0.00    +0.174 C 
ATOM     22  C   LIG A   1      -8.003   0.851 126.582  0.00  0.00    +0.052 C 
ATOM     23  C   LIG A   1      -9.796   5.450 132.654  0.00  0.00    +0.229 C 
ATOM     24  O   LIG A   1      -9.271   4.914 133.617  0.00  0.00    -0.274 OA
ENDROOT
BRANCH  18  25
ATOM     25  C   LIG A   1      -8.642   0.717 131.546  0.00  0.00    +0.338 C 
ATOM     26  O   LIG A   1      -9.803   0.507 131.851  0.00  0.00    -0.245 OA
BRANCH  25  27
ATOM     27  O   LIG A   1      -7.588   0.746 132.405  0.00  0.00    -0.465 OA
ATOM     28  C   LIG A   1      -7.487   1.926 133.200  0.00  0.00    +0.280 C 
ENDBRANCH  25  27
ENDBRANCH  18  25
TORSDOF 2
ENDMDL
MODEL 4
REMARK VINA RESULT:      -8.0      3.048      4.653
REMARK  Name = NuBBE_328
REMARK  4 active torsions:
REMARK  status: ('A' for Active; 'I' for Inactive)
REMARK    1  A    between atoms: C_21  and  C_22
REMARK    2  A    between atoms: C_22  and  O_23
REMARK    3  A    between atoms: O_23  and  C_24
REMARK    4  A    between atoms: C_28  and  C_30
REMARK                            x       y       z     vdW  Elec       q    Type
REMARK                         _______ _______ _______ _____ _____    ______ ____
ROOT
ATOM      1  H   LIG A   1     -10.014  -2.287 125.714  0.00  0.00    +0.155 HD
ATOM      2  N   LIG A   1      -9.246  -1.734 125.364  0.00  0.00    -0.284 N 
ATOM      3  C   LIG A   1      -8.057  -2.235 124.858  0.00  0.00    +0.038 A 
ATOM      4  C   LIG A   1      -7.707  -3.559 124.693  0.00  0.00    +0.023 A 
ATOM      5  C   LIG A   1      -6.443  -3.828 124.164  0.00  0.00    +0.002 A 
ATOM      6  C   LIG A   1      -5.569  -2.781 123.824  0.00  0.00    +0.000 A 
ATOM      7  C   LIG A   1      -5.950  -1.447 123.993  0.00  0.00    +0.006 A 
ATOM      8  C   LIG A   1      -7.208  -1.185 124.512  0.00  0.00    -0.010 A 
ATOM      9  C   LIG A   1      -7.927   0.129 124.742  0.00  0.00    +0.090 C 
ATOM     10  C   LIG A   1      -7.229   1.228 125.555  0.00  0.00    +0.077 C 
ATOM     11  C   LIG A   1      -6.348   0.817 126.730  0.00  0.00    +0.029 C 
ATOM     12  C   LIG A   1      -5.517   2.007 127.274  0.00  0.00    +0.038 C 
ATOM     13  C   LIG A   1      -4.735   2.632 126.088  0.00  0.00    +0.051 C 
ATOM     14  C   LIG A   1      -5.707   3.050 124.956  0.00  0.00    +0.092 C 
ATOM     15  N   LIG A   1      -6.432   1.874 124.498  0.00  0.00    -0.298 NA
ATOM     16  C   LIG A   1      -7.396   2.124 123.431  0.00  0.00    +0.086 C 
ATOM     17  C   LIG A   1      -8.214   0.829 123.392  0.00  0.00    +0.038 C 
ATOM     18  C   LIG A   1      -6.229   3.127 128.006  0.00  0.00    +0.074 C 
ATOM     19  C   LIG A   1      -5.751   4.384 127.965  0.00  0.00    +0.198 C 
ATOM     20  O   LIG A   1      -4.658   4.823 127.267  0.00  0.00    -0.496 OA
ATOM     21  C   LIG A   1      -3.901   3.839 126.551  0.00  0.00    +0.174 C 
ATOM     22  C   LIG A   1      -2.692   3.440 127.397  0.00  0.00    +0.052 C 
ATOM     23  C   LIG A   1      -9.242  -0.344 125.394  0.00  0.00    +0.229 C 
ATOM     24  O   LIG A   1     -10.149   0.356 125.818  0.00  0.00    -0.274 OA
ENDROOT
BRANCH  18  25
ATOM     25  C   LIG A   1      -7.468   2.868 128.785  0.00  0.00    +0.338 C 
ATOM     26  O   LIG A   1      -8.585   3.185 128.416  0.00  0.00    -0.245 OA
BRANCH  25  27
ATOM     27  O   LIG A   1      -7.157   2.307 129.984  0.00  0.00    -0.465 OA
ATOM     28  C   LIG A   1      -7.807   1.067 130.261  0.00  0.00    +0.280 C 
ENDBRANCH  25  27
ENDBRANCH  18  25
TORSDOF 2
ENDMDL
MODEL 5
REMARK VINA RESULT:      -7.9      2.779      5.552
REMARK  Name = NuBBE_328
REMARK  4 active torsions:
REMARK  status: ('A' for Active; 'I' for Inactive)
REMARK    1  A    between atoms: C_21  and  C_22
REMARK    2  A    between atoms: C_22  and  O_23
REMARK    3  A    between atoms: O_23  and  C_24
REMARK    4  A    between atoms: C_28  and  C_30
REMARK                            x       y       z     vdW  Elec       q    Type
REMARK                         _______ _______ _______ _____ _____    ______ ____
ROOT
ATOM      1  H   LIG A   1      -7.503   4.813 127.504  0.00  0.00    +0.155 HD
ATOM      2  N   LIG A   1      -6.956   3.966 127.514  0.00  0.00    -0.284 N 
ATOM      3  C   LIG A   1      -5.582   3.893 127.348  0.00  0.00    +0.038 A 
ATOM      4  C   LIG A   1      -4.699   4.939 127.183  0.00  0.00    +0.023 A 
ATOM      5  C   LIG A   1      -3.348   4.623 127.028  0.00  0.00    +0.002 A 
ATOM      6  C   LIG A   1      -2.919   3.284 127.034  0.00  0.00    +0.000 A 
ATOM      7  C   LIG A   1      -3.832   2.241 127.212  0.00  0.00    +0.006 A 
ATOM      8  C   LIG A   1      -5.170   2.561 127.372  0.00  0.00    -0.010 A 
ATOM      9  C   LIG A   1      -6.370   1.678 127.651  0.00  0.00    +0.090 C 
ATOM     10  C   LIG A   1      -6.641   0.476 126.734  0.00  0.00    +0.077 C 
ATOM     11  C   LIG A   1      -6.334   0.613 125.246  0.00  0.00    +0.029 C 
ATOM     12  C   LIG A   1      -6.411  -0.751 124.512  0.00  0.00    +0.038 C 
ATOM     13  C   LIG A   1      -5.488  -1.752 125.257  0.00  0.00    +0.051 C 
ATOM     14  C   LIG A   1      -5.889  -1.854 126.750  0.00  0.00    +0.092 C 
ATOM     15  N   LIG A   1      -5.775  -0.537 127.361  0.00  0.00    -0.298 NA
ATOM     16  C   LIG A   1      -6.134  -0.482 128.775  0.00  0.00    +0.086 C 
ATOM     17  C   LIG A   1      -6.242   1.022 129.047  0.00  0.00    +0.038 C 
ATOM     18  C   LIG A   1      -7.762  -1.410 124.326  0.00  0.00    +0.074 C 
ATOM     19  C   LIG A   1      -7.869  -2.750 124.278  0.00  0.00    +0.198 C 
ATOM     20  O   LIG A   1      -6.857  -3.660 124.430  0.00  0.00    -0.496 OA
ATOM     21  C   LIG A   1      -5.530  -3.140 124.595  0.00  0.00    +0.174 C 
ATOM     22  C   LIG A   1      -4.816  -3.180 123.245  0.00  0.00    +0.052 C 
ATOM     23  C   LIG A   1      -7.523   2.702 127.639  0.00  0.00    +0.229 C 
ATOM     24  O   LIG A   1      -8.715   2.472 127.768  0.00  0.00    -0.274 OA
ENDROOT
BRANCH  18  25
ATOM     25  C   LIG A   1      -9.000  -0.599 124.192  0.00  0.00    +0.338 C 
ATOM     26  O   LIG A   1      -9.722  -0.296 125.125  0.00  0.00    -0.245 OA
BRANCH  25  27
ATOM     27  O   LIG A   1      -9.236  -0.321 122.882  0.00  0.00    -0.465 OA
ATOM     28  C   LIG A   1     -10.152   0.747 122.643  0.00  0.00    +0.280 C 
ENDBRANCH  25  27
ENDBRANCH  18  25
TORSDOF 2
ENDMDL
MODEL 6
REMARK VINA RESULT:      -7.9      2.262      6.111
REMARK  Name = NuBBE_328
REMARK  4 active torsions:
REMARK  status: ('A' for Active; 'I' for Inactive)
REMARK    1  A    between atoms: C_21  and  C_22
REMARK    2  A    between atoms: C_22  and  O_23
REMARK    3  A    between atoms: O_23  and  C_24
REMARK    4  A    between atoms: C_28  and  C_30
REMARK                            x       y       z     vdW  Elec       q    Type
REMARK                         _______ _______ _______ _____ _____    ______ ____
ROOT
ATOM      1  H   LIG A   1      -4.818   4.110 123.593  0.00  0.00    +0.155 HD
ATOM      2  N   LIG A   1      -5.549   3.656 124.120  0.00  0.00    -0.284 N 
ATOM      3  C   LIG A   1      -5.798   3.835 125.471  0.00  0.00    +0.038 A 
ATOM      4  C   LIG A   1      -5.141   4.679 126.341  0.00  0.00    +0.023 A 
ATOM      5  C   LIG A   1      -5.565   4.688 127.672  0.00  0.00    +0.002 A 
ATOM      6  C   LIG A   1      -6.617   3.857 128.096  0.00  0.00    +0.000 A 
ATOM      7  C   LIG A   1      -7.273   3.016 127.193  0.00  0.00    +0.006 A 
ATOM      8  C   LIG A   1      -6.853   3.016 125.873  0.00  0.00    -0.010 A 
ATOM      9  C   LIG A   1      -7.398   2.284 124.663  0.00  0.00    +0.090 C 
ATOM     10  C   LIG A   1      -7.580   0.761 124.733  0.00  0.00    +0.077 C 
ATOM     11  C   LIG A   1      -6.560  -0.059 125.515  0.00  0.00    +0.029 C 
ATOM     12  C   LIG A   1      -7.023  -1.526 125.710  0.00  0.00    +0.038 C 
ATOM     13  C   LIG A   1      -8.439  -1.504 126.347  0.00  0.00    +0.051 C 
ATOM     14  C   LIG A   1      -9.416  -0.680 125.473  0.00  0.00    +0.092 C 
ATOM     15  N   LIG A   1      -8.912   0.681 125.356  0.00  0.00    -0.298 NA
ATOM     16  C   LIG A   1      -9.736   1.573 124.545  0.00  0.00    +0.086 C 
ATOM     17  C   LIG A   1      -8.824   2.785 124.328  0.00  0.00    +0.038 C 
ATOM     18  C   LIG A   1      -7.065  -2.448 124.509  0.00  0.00    +0.074 C 
ATOM     19  C   LIG A   1      -7.963  -3.448 124.445  0.00  0.00    +0.198 C 
ATOM     20  O   LIG A   1      -8.937  -3.736 125.363  0.00  0.00    -0.496 OA
ATOM     21  C   LIG A   1      -8.974  -2.932 126.550  0.00  0.00    +0.174 C 
ATOM     22  C   LIG A   1      -8.262  -3.683 127.674  0.00  0.00    +0.052 C 
ATOM     23  C   LIG A   1      -6.405   2.711 123.564  0.00  0.00    +0.229 C 
ATOM     24  O   LIG A   1      -6.387   2.340 122.401  0.00  0.00    -0.274 OA
ENDROOT
BRANCH  18  25
ATOM     25  C   LIG A   1      -6.122  -2.274 123.374  0.00  0.00    +0.338 C 
ATOM     26  O   LIG A   1      -6.459  -1.948 122.249  0.00  0.00    -0.245 OA
BRANCH  25  27
ATOM     27  O   LIG A   1      -4.861  -2.606 123.759  0.00  0.00    -0.465 OA
ATOM     28  C   LIG A   1      -4.519  -3.981 123.597  0.00  0.00    +0.280 C 
ENDBRANCH  25  27
ENDBRANCH  18  25
TORSDOF 2
ENDMDL
MODEL 7
REMARK VINA RESULT:      -7.7      2.646      6.341
REMARK  Name = NuBBE_328
REMARK  4 active torsions:
REMARK  status: ('A' for Active; 'I' for Inactive)
REMARK    1  A    between atoms: C_21  and  C_22
REMARK    2  A    between atoms: C_22  and  O_23
REMARK    3  A    between atoms: O_23  and  C_24
REMARK    4  A    between atoms: C_28  and  C_30
REMARK                            x       y       z     vdW  Elec       q    Type
REMARK                         _______ _______ _______ _____ _____    ______ ____
ROOT
ATOM      1  H   LIG A   1      -7.154   3.415 124.147  0.00  0.00    +0.155 HD
ATOM      2  N   LIG A   1      -7.000   3.058 125.078  0.00  0.00    -0.284 N 
ATOM      3  C   LIG A   1      -5.816   3.157 125.792  0.00  0.00    +0.038 A 
ATOM      4  C   LIG A   1      -4.652   3.786 125.404  0.00  0.00    +0.023 A 
ATOM      5  C   LIG A   1      -3.576   3.753 126.294  0.00  0.00    +0.002 A 
ATOM      6  C   LIG A   1      -3.687   3.095 127.531  0.00  0.00    +0.000 A 
ATOM      7  C   LIG A   1      -4.881   2.473 127.906  0.00  0.00    +0.006 A 
ATOM      8  C   LIG A   1      -5.947   2.514 127.022  0.00  0.00    -0.010 A 
ATOM      9  C   LIG A   1      -7.368   2.005 127.164  0.00  0.00    +0.090 C 
ATOM     10  C   LIG A   1      -7.599   0.541 127.566  0.00  0.00    +0.077 C 
ATOM     11  C   LIG A   1      -6.637  -0.518 127.040  0.00  0.00    +0.029 C 
ATOM     12  C   LIG A   1      -6.845  -1.887 127.738  0.00  0.00    +0.038 C 
ATOM     13  C   LIG A   1      -6.761  -1.663 129.272  0.00  0.00    +0.051 C 
ATOM     14  C   LIG A   1      -7.792  -0.599 129.724  0.00  0.00    +0.092 C 
ATOM     15  N   LIG A   1      -7.514   0.651 129.032  0.00  0.00    -0.298 NA
ATOM     16  C   LIG A   1      -8.421   1.748 129.358  0.00  0.00    +0.086 C 
ATOM     17  C   LIG A   1      -8.111   2.787 128.274  0.00  0.00    +0.038 C 
ATOM     18  C   LIG A   1      -8.106  -2.675 127.449  0.00  0.00    +0.074 C 
ATOM     19  C   LIG A   1      -8.637  -3.484 128.384  0.00  0.00    +0.198 C 
ATOM     20  O   LIG A   1      -8.183  -3.669 129.662  0.00  0.00    -0.496 OA
ATOM     21  C   LIG A   1      -6.982  -2.981 130.035  0.00  0.00    +0.174 C 
ATOM     22  C   LIG A   1      -5.805  -3.947 129.911  0.00  0.00    +0.052 C 
ATOM     23  C   LIG A   1      -7.961   2.339 125.781  0.00  0.00    +0.229 C 
ATOM     24  O   LIG A   1      -9.082   2.077 125.375  0.00  0.00    -0.274 OA
ENDROOT
BRANCH  18  25
ATOM     25  C   LIG A   1      -8.789  -2.575 126.133  0.00  0.00    +0.338 C 
ATOM     26  O   LIG A   1      -9.640  -1.747 125.866  0.00  0.00    -0.245 OA
BRANCH  25  27
ATOM     27  O   LIG A   1      -8.378  -3.584 125.317  0.00  0.00    -0.465 OA
ATOM     28  C   LIG A   1      -7.419  -3.213 124.329  0.00  0.00    +0.280 C 
ENDBRANCH  25  27
ENDBRANCH  18  25
TORSDOF 2
ENDMDL
MODEL 8
REMARK VINA RESULT:      -7.6      1.834      2.409
REMARK  Name = NuBBE_328
REMARK  4 active torsions:
REMARK  status: ('A' for Active; 'I' for Inactive)
REMARK    1  A    between atoms: C_21  and  C_22
REMARK    2  A    between atoms: C_22  and  O_23
REMARK    3  A    between atoms: O_23  and  C_24
REMARK    4  A    between atoms: C_28  and  C_30
REMARK                            x       y       z     vdW  Elec       q    Type
REMARK                         _______ _______ _______ _____ _____    ______ ____
ROOT
ATOM      1  H   LIG A   1     -10.285  -3.337 124.944  0.00  0.00    +0.155 HD
ATOM      2  N   LIG A   1      -9.426  -2.978 125.332  0.00  0.00    -0.284 N 
ATOM      3  C   LIG A   1      -8.974  -3.191 126.624  0.00  0.00    +0.038 A 
ATOM      4  C   LIG A   1      -9.570  -3.953 127.607  0.00  0.00    +0.023 A 
ATOM      5  C   LIG A   1      -8.930  -4.020 128.846  0.00  0.00    +0.002 A 
ATOM      6  C   LIG A   1      -7.729  -3.325 129.073  0.00  0.00    +0.000 A 
ATOM      7  C   LIG A   1      -7.140  -2.566 128.058  0.00  0.00    +0.006 A 
ATOM      8  C   LIG A   1      -7.775  -2.509 126.828  0.00  0.00    -0.010 A 
ATOM      9  C   LIG A   1      -7.359  -1.843 125.532  0.00  0.00    +0.090 C 
ATOM     10  C   LIG A   1      -6.985  -0.354 125.545  0.00  0.00    +0.077 C 
ATOM     11  C   LIG A   1      -7.751   0.580 126.476  0.00  0.00    +0.029 C 
ATOM     12  C   LIG A   1      -7.088   1.978 126.565  0.00  0.00    +0.038 C 
ATOM     13  C   LIG A   1      -5.598   1.782 126.953  0.00  0.00    +0.051 C 
ATOM     14  C   LIG A   1      -4.890   0.849 125.939  0.00  0.00    +0.092 C 
ATOM     15  N   LIG A   1      -5.567  -0.440 125.932  0.00  0.00    -0.298 NA
ATOM     16  C   LIG A   1      -5.007  -1.422 125.008  0.00  0.00    +0.086 C 
ATOM     17  C   LIG A   1      -6.082  -2.513 124.968  0.00  0.00    +0.038 C 
ATOM     18  C   LIG A   1      -7.139   2.895 125.359  0.00  0.00    +0.074 C 
ATOM     19  C   LIG A   1      -6.152   3.778 125.128  0.00  0.00    +0.198 C 
ATOM     20  O   LIG A   1      -5.008   3.941 125.863  0.00  0.00    -0.496 OA
ATOM     21  C   LIG A   1      -4.867   3.133 127.039  0.00  0.00    +0.174 C 
ATOM     22  C   LIG A   1      -5.281   3.960 128.255  0.00  0.00    +0.052 C 
ATOM     23  C   LIG A   1      -8.569  -2.141 124.624  0.00  0.00    +0.229 C 
ATOM     24  O   LIG A   1      -8.740  -1.766 123.474  0.00  0.00    -0.274 OA
ENDROOT
BRANCH  18  25
ATOM     25  C   LIG A   1      -8.276   2.841 124.403  0.00  0.00    +0.338 C 
ATOM     26  O   LIG A   1      -9.440   3.015 124.716  0.00  0.00    -0.245 OA
BRANCH  25  27
ATOM     27  O   LIG A   1      -7.829   2.497 123.166  0.00  0.00    -0.465 OA
ATOM     28  C   LIG A   1      -8.546   3.078 122.078  0.00  0.00    +0.280 C 
ENDBRANCH  25  27
ENDBRANCH  18  25
TORSDOF 2
ENDMDL
MODEL 9
REMARK VINA RESULT:      -7.6      3.625      6.229
REMARK  Name = NuBBE_328
REMARK  4 active torsions:
REMARK  status: ('A' for Active; 'I' for Inactive)
REMARK    1  A    between atoms: C_21  and  C_22
REMARK    2  A    between atoms: C_22  and  O_23
REMARK    3  A    between atoms: O_23  and  C_24
REMARK    4  A    between atoms: C_28  and  C_30
REMARK                            x       y       z     vdW  Elec       q    Type
REMARK                         _______ _______ _______ _____ _____    ______ ____
ROOT
ATOM      1  H   LIG A   1     -10.163   2.965 123.293  0.00  0.00    +0.155 HD
ATOM      2  N   LIG A   1      -9.435   2.467 123.782  0.00  0.00    -0.284 N 
ATOM      3  C   LIG A   1      -9.144   1.119 123.638  0.00  0.00    +0.038 A 
ATOM      4  C   LIG A   1      -9.747   0.216 122.788  0.00  0.00    +0.023 A 
ATOM      5  C   LIG A   1      -9.288  -1.102 122.819  0.00  0.00    +0.002 A 
ATOM      6  C   LIG A   1      -8.256  -1.482 123.694  0.00  0.00    +0.000 A 
ATOM      7  C   LIG A   1      -7.654  -0.547 124.540  0.00  0.00    +0.006 A 
ATOM      8  C   LIG A   1      -8.109   0.761 124.501  0.00  0.00    -0.010 A 
ATOM      9  C   LIG A   1      -7.622   1.998 125.229  0.00  0.00    +0.090 C 
ATOM     10  C   LIG A   1      -7.493   1.961 126.758  0.00  0.00    +0.077 C 
ATOM     11  C   LIG A   1      -8.521   1.166 127.556  0.00  0.00    +0.029 C 
ATOM     12  C   LIG A   1      -8.106   1.010 129.041  0.00  0.00    +0.038 C 
ATOM     13  C   LIG A   1      -6.674   0.411 129.082  0.00  0.00    +0.051 C 
ATOM     14  C   LIG A   1      -5.691   1.297 128.276  0.00  0.00    +0.092 C 
ATOM     15  N   LIG A   1      -6.149   1.376 126.897  0.00  0.00    -0.298 NA
ATOM     16  C   LIG A   1      -5.315   2.193 126.019  0.00  0.00    +0.086 C 
ATOM     17  C   LIG A   1      -6.189   2.363 124.772  0.00  0.00    +0.038 C 
ATOM     18  C   LIG A   1      -8.129   2.228 129.942  0.00  0.00    +0.074 C 
ATOM     19  C   LIG A   1      -7.269   2.334 130.972  0.00  0.00    +0.198 C 
ATOM     20  O   LIG A   1      -6.282   1.448 131.312  0.00  0.00    -0.496 OA
ATOM     21  C   LIG A   1      -6.185   0.249 130.532  0.00  0.00    +0.174 C 
ATOM     22  C   LIG A   1      -6.893  -0.881 131.278  0.00  0.00    +0.052 C 
ATOM     23  C   LIG A   1      -8.629   3.063 124.746  0.00  0.00    +0.229 C 
ATOM     24  O   LIG A   1      -8.691   4.231 125.094  0.00  0.00    -0.274 OA
ENDROOT
BRANCH  18  25
ATOM     25  C   LIG A   1      -9.095   3.334 129.713  0.00  0.00    +0.338 C 
ATOM     26  O   LIG A   1      -8.881   4.287 128.985  0.00  0.00    -0.245 OA
BRANCH  25  27
ATOM     27  O   LIG A   1     -10.198   3.159 130.489  0.00  0.00    -0.465 OA
ATOM     28  C   LIG A   1     -11.103   4.261 130.516  0.00  0.00    +0.280 C 
ENDBRANCH  25  27
ENDBRANCH  18  25
TORSDOF 2
ENDMDL
