MODEL 1
REMARK VINA RESULT:      -7.6      0.000      0.000
REMARK  Name = NuBBE_2040
REMARK  10 active torsions:
REMARK  status: ('A' for Active; 'I' for Inactive)
REMARK    1  A    between atoms: C_1  and  C_2
REMARK    2  A    between atoms: C_1  and  C_4
REMARK    3  A    between atoms: C_9  and  O_11
REMARK    4  A    between atoms: O_11  and  C_12
REMARK    5  A    between atoms: C_14  and  C_19
REMARK    6  A    between atoms: C_16  and  C_18
REMARK    7  A    between atoms: C_21  and  O_22
REMARK    8  A    between atoms: O_22  and  C_23
REMARK    9  A    between atoms: C_24  and  O_27
REMARK   10  A    between atoms: O_27  and  C_28
REMARK                            x       y       z     vdW  Elec       q    Type
REMARK                         _______ _______ _______ _____ _____    ______ ____
ROOT
ATOM      1  C   LIG A   1      -8.786   3.854 131.695  0.00  0.00    +0.059 C 
ATOM      2  C   LIG A   1      -9.139   3.623 130.245  0.00  0.00    +0.113 C 
ATOM      3  C   LIG A   1      -8.321   3.103 129.331  0.00  0.00    +0.096 C 
ATOM      4  C   LIG A   1      -6.938   2.734 129.701  0.00  0.00    +0.223 C 
ATOM      5  O   LIG A   1      -6.280   2.073 128.917  0.00  0.00    -0.284 OA
ATOM      6  C   LIG A   1      -6.414   3.279 131.014  0.00  0.00    +0.164 C 
ATOM      7  C   LIG A   1      -7.282   3.821 131.886  0.00  0.00    +0.038 C 
ATOM      8  O   LIG A   1     -10.338   4.202 129.863  0.00  0.00    -0.487 OA
ATOM      9  C   LIG A   1     -10.723   5.053 130.960  0.00  0.00    +0.207 C 
ATOM     10  C   LIG A   1      -9.484   5.218 131.880  0.00  0.00    +0.049 C 
ATOM     11  C   LIG A   1      -8.597   6.421 131.525  0.00  0.00    +0.013 C 
ENDROOT
BRANCH   9  12
ATOM     12  C   LIG A   1     -11.352   6.336 130.468  0.00  0.00    -0.003 A 
ATOM     13  C   LIG A   1     -11.015   6.916 129.233  0.00  0.00    +0.056 A 
ATOM     14  C   LIG A   1     -11.578   8.135 128.824  0.00  0.00    +0.162 A 
ATOM     15  C   LIG A   1     -12.538   8.758 129.637  0.00  0.00    +0.162 A 
ATOM     16  C   LIG A   1     -12.874   8.183 130.867  0.00  0.00    +0.050 A 
ATOM     17  C   LIG A   1     -12.278   6.994 131.285  0.00  0.00    +0.011 A 
BRANCH  14  18
ATOM     18  O   LIG A   1     -11.133   8.585 127.604  0.00  0.00    -0.491 OA
ATOM     19  C   LIG A   1     -10.989   7.590 126.591  0.00  0.00    +0.277 C 
ENDBRANCH  14  18
BRANCH  15  20
ATOM     20  O   LIG A   1     -13.226   9.832 129.139  0.00  0.00    -0.491 OA
ATOM     21  C   LIG A   1     -13.467  10.903 130.041  0.00  0.00    +0.277 C 
ENDBRANCH  15  20
ENDBRANCH   9  12
BRANCH   6  22
ATOM     22  O   LIG A   1      -5.064   3.279 131.340  0.00  0.00    -0.492 OA
ATOM     23  C   LIG A   1      -4.333   4.436 130.943  0.00  0.00    +0.277 C 
ENDBRANCH   6  22
BRANCH   1  24
ATOM     24  C   LIG A   1      -9.455   2.751 132.585  0.00  0.00    +0.045 C 
BRANCH  24  25
ATOM     25  C   LIG A   1      -9.851   1.488 131.853  0.00  0.00    -0.033 C 
ATOM     26  C   LIG A   1      -9.128   0.360 131.847  0.00  0.00    +0.004 C 
ENDBRANCH  24  25
ENDBRANCH   1  24
TORSDOF 6
ENDMDL
MODEL 2
REMARK VINA RESULT:      -7.1      1.572      2.094
REMARK  Name = NuBBE_2040
REMARK  10 active torsions:
REMARK  status: ('A' for Active; 'I' for Inactive)
REMARK    1  A    between atoms: C_1  and  C_2
REMARK    2  A    between atoms: C_1  and  C_4
REMARK    3  A    between atoms: C_9  and  O_11
REMARK    4  A    between atoms: O_11  and  C_12
REMARK    5  A    between atoms: C_14  and  C_19
REMARK    6  A    between atoms: C_16  and  C_18
REMARK    7  A    between atoms: C_21  and  O_22
REMARK    8  A    between atoms: O_22  and  C_23
REMARK    9  A    between atoms: C_24  and  O_27
REMARK   10  A    between atoms: O_27  and  C_28
REMARK                            x       y       z     vdW  Elec       q    Type
REMARK                         _______ _______ _______ _____ _____    ______ ____
ROOT
ATOM      1  C   LIG A   1      -7.956   4.654 132.542  0.00  0.00    +0.059 C 
ATOM      2  C   LIG A   1      -8.536   3.714 131.512  0.00  0.00    +0.113 C 
ATOM      3  C   LIG A   1      -7.832   2.840 130.792  0.00  0.00    +0.096 C 
ATOM      4  C   LIG A   1      -6.365   2.763 130.949  0.00  0.00    +0.223 C 
ATOM      5  O   LIG A   1      -5.772   1.827 130.445  0.00  0.00    -0.284 OA
ATOM      6  C   LIG A   1      -5.694   3.914 131.673  0.00  0.00    +0.164 C 
ATOM      7  C   LIG A   1      -6.457   4.784 132.359  0.00  0.00    +0.038 C 
ATOM      8  O   LIG A   1      -9.859   3.974 131.200  0.00  0.00    -0.487 OA
ATOM      9  C   LIG A   1     -10.159   5.243 131.813  0.00  0.00    +0.207 C 
ATOM     10  C   LIG A   1      -8.810   5.897 132.214  0.00  0.00    +0.049 C 
ATOM     11  C   LIG A   1      -8.202   6.797 131.126  0.00  0.00    +0.013 C 
ENDROOT
BRANCH   9  12
ATOM     12  C   LIG A   1     -11.060   6.081 130.935  0.00  0.00    -0.003 A 
ATOM     13  C   LIG A   1     -11.007   6.027 129.531  0.00  0.00    +0.056 A 
ATOM     14  C   LIG A   1     -11.822   6.853 128.741  0.00  0.00    +0.162 A 
ATOM     15  C   LIG A   1     -12.746   7.708 129.362  0.00  0.00    +0.162 A 
ATOM     16  C   LIG A   1     -12.799   7.763 130.758  0.00  0.00    +0.050 A 
ATOM     17  C   LIG A   1     -11.957   6.970 131.537  0.00  0.00    +0.011 A 
BRANCH  14  18
ATOM     18  O   LIG A   1     -11.639   6.702 127.387  0.00  0.00    -0.491 OA
ATOM     19  C   LIG A   1     -10.788   7.663 126.765  0.00  0.00    +0.277 C 
ENDBRANCH  14  18
BRANCH  15  20
ATOM     20  O   LIG A   1     -13.670   8.355 128.586  0.00  0.00    -0.491 OA
ATOM     21  C   LIG A   1     -13.628   9.775 128.602  0.00  0.00    +0.277 C 
ENDBRANCH  15  20
ENDBRANCH   9  12
BRANCH   6  22
ATOM     22  O   LIG A   1      -4.324   4.132 131.624  0.00  0.00    -0.492 OA
ATOM     23  C   LIG A   1      -3.837   4.734 130.428  0.00  0.00    +0.277 C 
ENDBRANCH   6  22
BRANCH   1  24
ATOM     24  C   LIG A   1      -8.268   4.118 133.982  0.00  0.00    +0.045 C 
BRANCH  24  25
ATOM     25  C   LIG A   1      -7.361   4.643 135.073  0.00  0.00    -0.033 C 
ATOM     26  C   LIG A   1      -7.598   5.755 135.781  0.00  0.00    +0.004 C 
ENDBRANCH  24  25
ENDBRANCH   1  24
TORSDOF 6
ENDMDL
MODEL 3
REMARK VINA RESULT:      -7.1      7.797     10.541
REMARK  Name = NuBBE_2040
REMARK  10 active torsions:
REMARK  status: ('A' for Active; 'I' for Inactive)
REMARK    1  A    between atoms: C_1  and  C_2
REMARK    2  A    between atoms: C_1  and  C_4
REMARK    3  A    between atoms: C_9  and  O_11
REMARK    4  A    between atoms: O_11  and  C_12
REMARK    5  A    between atoms: C_14  and  C_19
REMARK    6  A    between atoms: C_16  and  C_18
REMARK    7  A    between atoms: C_21  and  O_22
REMARK    8  A    between atoms: O_22  and  C_23
REMARK    9  A    between atoms: C_24  and  O_27
REMARK   10  A    between atoms: O_27  and  C_28
REMARK                            x       y       z     vdW  Elec       q    Type
REMARK                         _______ _______ _______ _____ _____    ______ ____
ROOT
ATOM      1  C   LIG A   1      -6.624  -1.985 125.145  0.00  0.00    +0.059 C 
ATOM      2  C   LIG A   1      -8.056  -2.014 125.624  0.00  0.00    +0.113 C 
ATOM      3  C   LIG A   1      -9.056  -1.314 125.089  0.00  0.00    +0.096 C 
ATOM      4  C   LIG A   1      -8.797  -0.398 123.959  0.00  0.00    +0.223 C 
ATOM      5  O   LIG A   1      -9.747   0.067 123.355  0.00  0.00    -0.284 OA
ATOM      6  C   LIG A   1      -7.349  -0.046 123.684  0.00  0.00    +0.164 C 
ATOM      7  C   LIG A   1      -6.380  -0.767 124.275  0.00  0.00    +0.038 C 
ATOM      8  O   LIG A   1      -8.229  -2.675 126.828  0.00  0.00    -0.487 OA
ATOM      9  C   LIG A   1      -6.900  -2.903 127.338  0.00  0.00    +0.207 C 
ATOM     10  C   LIG A   1      -5.928  -2.010 126.522  0.00  0.00    +0.049 C 
ATOM     11  C   LIG A   1      -5.700  -0.617 127.127  0.00  0.00    +0.013 C 
ENDROOT
BRANCH   9  12
ATOM     12  C   LIG A   1      -6.848  -2.731 128.839  0.00  0.00    -0.003 A 
ATOM     13  C   LIG A   1      -5.857  -3.333 129.633  0.00  0.00    +0.056 A 
ATOM     14  C   LIG A   1      -5.863  -3.197 131.030  0.00  0.00    +0.162 A 
ATOM     15  C   LIG A   1      -6.843  -2.399 131.641  0.00  0.00    +0.162 A 
ATOM     16  C   LIG A   1      -7.831  -1.800 130.852  0.00  0.00    +0.050 A 
ATOM     17  C   LIG A   1      -7.842  -1.974 129.469  0.00  0.00    +0.011 A 
BRANCH  14  18
ATOM     18  O   LIG A   1      -4.844  -3.862 131.669  0.00  0.00    -0.491 OA
ATOM     19  C   LIG A   1      -5.183  -5.133 132.221  0.00  0.00    +0.277 C 
ENDBRANCH  14  18
BRANCH  15  20
ATOM     20  O   LIG A   1      -6.720  -2.109 132.974  0.00  0.00    -0.491 OA
ATOM     21  C   LIG A   1      -7.681  -2.695 133.840  0.00  0.00    +0.277 C 
ENDBRANCH  15  20
ENDBRANCH   9  12
BRANCH   6  22
ATOM     22  O   LIG A   1      -6.979   1.021 122.876  0.00  0.00    -0.492 OA
ATOM     23  C   LIG A   1      -6.863   2.281 123.531  0.00  0.00    +0.277 C 
ENDBRANCH   6  22
BRANCH   1  24
ATOM     24  C   LIG A   1      -6.313  -3.287 124.329  0.00  0.00    +0.045 C 
BRANCH  24  25
ATOM     25  C   LIG A   1      -4.957  -3.317 123.660  0.00  0.00    -0.033 C 
ATOM     26  C   LIG A   1      -4.174  -4.401 123.589  0.00  0.00    +0.004 C 
ENDBRANCH  24  25
ENDBRANCH   1  24
TORSDOF 6
ENDMDL
MODEL 4
REMARK VINA RESULT:      -7.0      6.300      9.996
REMARK  Name = NuBBE_2040
REMARK  10 active torsions:
REMARK  status: ('A' for Active; 'I' for Inactive)
REMARK    1  A    between atoms: C_1  and  C_2
REMARK    2  A    between atoms: C_1  and  C_4
REMARK    3  A    between atoms: C_9  and  O_11
REMARK    4  A    between atoms: O_11  and  C_12
REMARK    5  A    between atoms: C_14  and  C_19
REMARK    6  A    between atoms: C_16  and  C_18
REMARK    7  A    between atoms: C_21  and  O_22
REMARK    8  A    between atoms: O_22  and  C_23
REMARK    9  A    between atoms: C_24  and  O_27
REMARK   10  A    between atoms: O_27  and  C_28
REMARK                            x       y       z     vdW  Elec       q    Type
REMARK                         _______ _______ _______ _____ _____    ______ ____
ROOT
ATOM      1  C   LIG A   1      -6.758  -1.996 125.314  0.00  0.00    +0.059 C 
ATOM      2  C   LIG A   1      -8.205  -1.966 125.747  0.00  0.00    +0.113 C 
ATOM      3  C   LIG A   1      -9.160  -1.233 125.175  0.00  0.00    +0.096 C 
ATOM      4  C   LIG A   1      -8.830  -0.338 124.046  0.00  0.00    +0.223 C 
ATOM      5  O   LIG A   1      -9.741   0.158 123.409  0.00  0.00    -0.284 OA
ATOM      6  C   LIG A   1      -7.361  -0.043 123.816  0.00  0.00    +0.164 C 
ATOM      7  C   LIG A   1      -6.440  -0.796 124.443  0.00  0.00    +0.038 C 
ATOM      8  O   LIG A   1      -8.441  -2.610 126.949  0.00  0.00    -0.487 OA
ATOM      9  C   LIG A   1      -7.139  -2.884 127.503  0.00  0.00    +0.207 C 
ATOM     10  C   LIG A   1      -6.108  -2.036 126.712  0.00  0.00    +0.049 C 
ATOM     11  C   LIG A   1      -5.846  -0.647 127.314  0.00  0.00    +0.013 C 
ENDROOT
BRANCH   9  12
ATOM     12  C   LIG A   1      -7.129  -2.701 129.004  0.00  0.00    -0.003 A 
ATOM     13  C   LIG A   1      -7.901  -1.720 129.649  0.00  0.00    +0.056 A 
ATOM     14  C   LIG A   1      -7.833  -1.539 131.040  0.00  0.00    +0.162 A 
ATOM     15  C   LIG A   1      -7.022  -2.390 131.806  0.00  0.00    +0.162 A 
ATOM     16  C   LIG A   1      -6.252  -3.367 131.166  0.00  0.00    +0.050 A 
ATOM     17  C   LIG A   1      -6.294  -3.512 129.779  0.00  0.00    +0.011 A 
BRANCH  14  18
ATOM     18  O   LIG A   1      -8.628  -0.526 131.519  0.00  0.00    -0.491 OA
ATOM     19  C   LIG A   1      -8.263   0.793 131.117  0.00  0.00    +0.277 C 
ENDBRANCH  14  18
BRANCH  15  20
ATOM     20  O   LIG A   1      -7.118  -2.339 133.171  0.00  0.00    -0.491 OA
ATOM     21  C   LIG A   1      -7.989  -3.281 133.781  0.00  0.00    +0.277 C 
ENDBRANCH  15  20
ENDBRANCH   9  12
BRANCH   6  22
ATOM     22  O   LIG A   1      -6.924   1.001 123.012  0.00  0.00    -0.492 OA
ATOM     23  C   LIG A   1      -6.899   2.286 123.629  0.00  0.00    +0.277 C 
ENDBRANCH   6  22
BRANCH   1  24
ATOM     24  C   LIG A   1      -6.471  -3.316 124.518  0.00  0.00    +0.045 C 
BRANCH  24  25
ATOM     25  C   LIG A   1      -5.155  -3.344 123.774  0.00  0.00    -0.033 C 
ATOM     26  C   LIG A   1      -4.346  -4.410 123.711  0.00  0.00    +0.004 C 
ENDBRANCH  24  25
ENDBRANCH   1  24
TORSDOF 6
ENDMDL
MODEL 5
REMARK VINA RESULT:      -6.9      6.808     10.451
REMARK  Name = NuBBE_2040
REMARK  10 active torsions:
REMARK  status: ('A' for Active; 'I' for Inactive)
REMARK    1  A    between atoms: C_1  and  C_2
REMARK    2  A    between atoms: C_1  and  C_4
REMARK    3  A    between atoms: C_9  and  O_11
REMARK    4  A    between atoms: O_11  and  C_12
REMARK    5  A    between atoms: C_14  and  C_19
REMARK    6  A    between atoms: C_16  and  C_18
REMARK    7  A    between atoms: C_21  and  O_22
REMARK    8  A    between atoms: O_22  and  C_23
REMARK    9  A    between atoms: C_24  and  O_27
REMARK   10  A    between atoms: O_27  and  C_28
REMARK                            x       y       z     vdW  Elec       q    Type
REMARK                         _______ _______ _______ _____ _____    ______ ____
ROOT
ATOM      1  C   LIG A   1      -6.592  -1.304 124.595  0.00  0.00    +0.059 C 
ATOM      2  C   LIG A   1      -7.886  -1.585 125.320  0.00  0.00    +0.113 C 
ATOM      3  C   LIG A   1      -9.050  -0.985 125.069  0.00  0.00    +0.096 C 
ATOM      4  C   LIG A   1      -9.132   0.066 124.032  0.00  0.00    +0.223 C 
ATOM      5  O   LIG A   1     -10.231   0.448 123.675  0.00  0.00    -0.284 OA
ATOM      6  C   LIG A   1      -7.820   0.647 123.544  0.00  0.00    +0.164 C 
ATOM      7  C   LIG A   1      -6.674   0.015 123.854  0.00  0.00    +0.038 C 
ATOM      8  O   LIG A   1      -7.736  -2.379 126.444  0.00  0.00    -0.487 OA
ATOM      9  C   LIG A   1      -6.316  -2.465 126.670  0.00  0.00    +0.207 C 
ATOM     10  C   LIG A   1      -5.639  -1.366 125.808  0.00  0.00    +0.049 C 
ATOM     11  C   LIG A   1      -5.467  -0.021 126.530  0.00  0.00    +0.013 C 
ENDROOT
BRANCH   9  12
ATOM     12  C   LIG A   1      -5.989  -2.436 128.146  0.00  0.00    -0.003 A 
ATOM     13  C   LIG A   1      -6.954  -2.143 129.126  0.00  0.00    +0.056 A 
ATOM     14  C   LIG A   1      -6.611  -2.073 130.485  0.00  0.00    +0.162 A 
ATOM     15  C   LIG A   1      -5.294  -2.358 130.879  0.00  0.00    +0.162 A 
ATOM     16  C   LIG A   1      -4.333  -2.649 129.906  0.00  0.00    +0.050 A 
ATOM     17  C   LIG A   1      -4.673  -2.675 128.553  0.00  0.00    +0.011 A 
BRANCH  14  18
ATOM     18  O   LIG A   1      -7.656  -1.754 131.318  0.00  0.00    -0.491 OA
ATOM     19  C   LIG A   1      -8.181  -0.435 131.177  0.00  0.00    +0.277 C 
ENDBRANCH  14  18
BRANCH  15  20
ATOM     20  O   LIG A   1      -5.020  -2.487 132.215  0.00  0.00    -0.491 OA
ATOM     21  C   LIG A   1      -5.083  -3.801 132.751  0.00  0.00    +0.277 C 
ENDBRANCH  15  20
ENDBRANCH   9  12
BRANCH   6  22
ATOM     22  O   LIG A   1      -7.749   1.829 122.821  0.00  0.00    -0.492 OA
ATOM     23  C   LIG A   1      -7.831   3.028 123.588  0.00  0.00    +0.277 C 
ENDBRANCH   6  22
BRANCH   1  24
ATOM     24  C   LIG A   1      -6.292  -2.461 123.580  0.00  0.00    +0.045 C 
BRANCH  24  25
ATOM     25  C   LIG A   1      -4.861  -2.949 123.567  0.00  0.00    -0.033 C 
ATOM     26  C   LIG A   1      -4.501  -4.236 123.669  0.00  0.00    +0.004 C 
ENDBRANCH  24  25
ENDBRANCH   1  24
TORSDOF 6
ENDMDL
MODEL 6
REMARK VINA RESULT:      -6.9      7.296     10.127
REMARK  Name = NuBBE_2040
REMARK  10 active torsions:
REMARK  status: ('A' for Active; 'I' for Inactive)
REMARK    1  A    between atoms: C_1  and  C_2
REMARK    2  A    between atoms: C_1  and  C_4
REMARK    3  A    between atoms: C_9  and  O_11
REMARK    4  A    between atoms: O_11  and  C_12
REMARK    5  A    between atoms: C_14  and  C_19
REMARK    6  A    between atoms: C_16  and  C_18
REMARK    7  A    between atoms: C_21  and  O_22
REMARK    8  A    between atoms: O_22  and  C_23
REMARK    9  A    between atoms: C_24  and  O_27
REMARK   10  A    between atoms: O_27  and  C_28
REMARK                            x       y       z     vdW  Elec       q    Type
REMARK                         _______ _______ _______ _____ _____    ______ ____
ROOT
ATOM      1  C   LIG A   1      -7.042  -1.400 125.028  0.00  0.00    +0.059 C 
ATOM      2  C   LIG A   1      -7.592  -2.715 125.527  0.00  0.00    +0.113 C 
ATOM      3  C   LIG A   1      -8.604  -3.381 124.970  0.00  0.00    +0.096 C 
ATOM      4  C   LIG A   1      -9.300  -2.822 123.792  0.00  0.00    +0.223 C 
ATOM      5  O   LIG A   1     -10.072  -3.534 123.178  0.00  0.00    -0.284 OA
ATOM      6  C   LIG A   1      -9.049  -1.360 123.481  0.00  0.00    +0.164 C 
ATOM      7  C   LIG A   1      -8.031  -0.730 124.096  0.00  0.00    +0.038 C 
ATOM      8  O   LIG A   1      -7.101  -3.093 126.764  0.00  0.00    -0.487 OA
ATOM      9  C   LIG A   1      -6.395  -1.942 127.268  0.00  0.00    +0.207 C 
ATOM     10  C   LIG A   1      -6.804  -0.726 126.396  0.00  0.00    +0.049 C 
ATOM     11  C   LIG A   1      -8.022   0.044 126.927  0.00  0.00    +0.013 C 
ENDROOT
BRANCH   9  12
ATOM     12  C   LIG A   1      -6.595  -1.780 128.757  0.00  0.00    -0.003 A 
ATOM     13  C   LIG A   1      -5.844  -0.873 129.525  0.00  0.00    +0.056 A 
ATOM     14  C   LIG A   1      -6.016  -0.780 130.915  0.00  0.00    +0.162 A 
ATOM     15  C   LIG A   1      -6.995  -1.567 131.542  0.00  0.00    +0.162 A 
ATOM     16  C   LIG A   1      -7.742  -2.471 130.781  0.00  0.00    +0.050 A 
ATOM     17  C   LIG A   1      -7.535  -2.587 129.406  0.00  0.00    +0.011 A 
BRANCH  14  18
ATOM     18  O   LIG A   1      -5.194   0.134 131.528  0.00  0.00    -0.491 OA
ATOM     19  C   LIG A   1      -4.304   0.843 130.668  0.00  0.00    +0.277 C 
ENDBRANCH  14  18
BRANCH  15  20
ATOM     20  O   LIG A   1      -7.293  -1.323 132.856  0.00  0.00    -0.491 OA
ATOM     21  C   LIG A   1      -7.719  -2.438 133.627  0.00  0.00    +0.277 C 
ENDBRANCH  15  20
ENDBRANCH   9  12
BRANCH   6  22
ATOM     22  O   LIG A   1      -9.852  -0.630 122.616  0.00  0.00    -0.492 OA
ATOM     23  C   LIG A   1      -9.918   0.771 122.868  0.00  0.00    +0.277 C 
ENDBRANCH   6  22
BRANCH   1  24
ATOM     24  C   LIG A   1      -5.689  -1.644 124.274  0.00  0.00    +0.045 C 
BRANCH  24  25
ATOM     25  C   LIG A   1      -5.587  -2.968 123.551  0.00  0.00    -0.033 C 
ATOM     26  C   LIG A   1      -4.506  -3.759 123.573  0.00  0.00    +0.004 C 
ENDBRANCH  24  25
ENDBRANCH   1  24
TORSDOF 6
ENDMDL
MODEL 7
REMARK VINA RESULT:      -6.9      5.584      8.792
REMARK  Name = NuBBE_2040
REMARK  10 active torsions:
REMARK  status: ('A' for Active; 'I' for Inactive)
REMARK    1  A    between atoms: C_1  and  C_2
REMARK    2  A    between atoms: C_1  and  C_4
REMARK    3  A    between atoms: C_9  and  O_11
REMARK    4  A    between atoms: O_11  and  C_12
REMARK    5  A    between atoms: C_14  and  C_19
REMARK    6  A    between atoms: C_16  and  C_18
REMARK    7  A    between atoms: C_21  and  O_22
REMARK    8  A    between atoms: O_22  and  C_23
REMARK    9  A    between atoms: C_24  and  O_27
REMARK   10  A    between atoms: O_27  and  C_28
REMARK                            x       y       z     vdW  Elec       q    Type
REMARK                         _______ _______ _______ _____ _____    ______ ____
ROOT
ATOM      1  C   LIG A   1      -6.396  -1.638 125.502  0.00  0.00    +0.059 C 
ATOM      2  C   LIG A   1      -6.585  -1.538 126.997  0.00  0.00    +0.113 C 
ATOM      3  C   LIG A   1      -7.541  -2.156 127.690  0.00  0.00    +0.096 C 
ATOM      4  C   LIG A   1      -8.540  -2.991 126.991  0.00  0.00    +0.223 C 
ATOM      5  O   LIG A   1      -9.269  -3.707 127.652  0.00  0.00    -0.284 OA
ATOM      6  C   LIG A   1      -8.631  -2.830 125.486  0.00  0.00    +0.164 C 
ATOM      7  C   LIG A   1      -7.652  -2.170 124.842  0.00  0.00    +0.038 C 
ATOM      8  O   LIG A   1      -5.805  -0.564 127.595  0.00  0.00    -0.487 OA
ATOM      9  C   LIG A   1      -5.243   0.201 126.510  0.00  0.00    +0.207 C 
ATOM     10  C   LIG A   1      -6.032  -0.164 125.225  0.00  0.00    +0.049 C 
ATOM     11  C   LIG A   1      -7.249   0.735 124.959  0.00  0.00    +0.013 C 
ENDROOT
BRANCH   9  12
ATOM     12  C   LIG A   1      -5.182   1.674 126.848  0.00  0.00    -0.003 A 
ATOM     13  C   LIG A   1      -5.945   2.242 127.883  0.00  0.00    +0.056 A 
ATOM     14  C   LIG A   1      -5.907   3.622 128.141  0.00  0.00    +0.162 A 
ATOM     15  C   LIG A   1      -5.049   4.440 127.390  0.00  0.00    +0.162 A 
ATOM     16  C   LIG A   1      -4.290   3.876 126.359  0.00  0.00    +0.050 A 
ATOM     17  C   LIG A   1      -4.366   2.511 126.081  0.00  0.00    +0.011 A 
BRANCH  14  18
ATOM     18  O   LIG A   1      -6.724   4.029 129.168  0.00  0.00    -0.491 OA
ATOM     19  C   LIG A   1      -8.057   4.376 128.799  0.00  0.00    +0.277 C 
ENDBRANCH  14  18
BRANCH  15  20
ATOM     20  O   LIG A   1      -4.868   5.739 127.781  0.00  0.00    -0.491 OA
ATOM     21  C   LIG A   1      -3.588   6.072 128.301  0.00  0.00    +0.277 C 
ENDBRANCH  15  20
ENDBRANCH   9  12
BRANCH   6  22
ATOM     22  O   LIG A   1      -9.707  -3.302 124.747  0.00  0.00    -0.492 OA
ATOM     23  C   LIG A   1      -9.544  -3.273 123.331  0.00  0.00    +0.277 C 
ENDBRANCH   6  22
BRANCH   1  24
ATOM     24  C   LIG A   1      -5.190  -2.588 125.184  0.00  0.00    +0.045 C 
BRANCH  24  25
ATOM     25  C   LIG A   1      -5.280  -3.320 123.864  0.00  0.00    -0.033 C 
ATOM     26  C   LIG A   1      -4.484  -4.337 123.508  0.00  0.00    +0.004 C 
ENDBRANCH  24  25
ENDBRANCH   1  24
TORSDOF 6
ENDMDL
MODEL 8
REMARK VINA RESULT:      -6.7      7.665     11.080
REMARK  Name = NuBBE_2040
REMARK  10 active torsions:
REMARK  status: ('A' for Active; 'I' for Inactive)
REMARK    1  A    between atoms: C_1  and  C_2
REMARK    2  A    between atoms: C_1  and  C_4
REMARK    3  A    between atoms: C_9  and  O_11
REMARK    4  A    between atoms: O_11  and  C_12
REMARK    5  A    between atoms: C_14  and  C_19
REMARK    6  A    between atoms: C_16  and  C_18
REMARK    7  A    between atoms: C_21  and  O_22
REMARK    8  A    between atoms: O_22  and  C_23
REMARK    9  A    between atoms: C_24  and  O_27
REMARK   10  A    between atoms: O_27  and  C_28
REMARK                            x       y       z     vdW  Elec       q    Type
REMARK                         _______ _______ _______ _____ _____    ______ ____
ROOT
ATOM      1  C   LIG A   1      -7.736  -1.686 127.085  0.00  0.00    +0.059 C 
ATOM      2  C   LIG A   1      -6.276  -2.061 126.983  0.00  0.00    +0.113 C 
ATOM      3  C   LIG A   1      -5.677  -2.506 125.880  0.00  0.00    +0.096 C 
ATOM      4  C   LIG A   1      -6.457  -2.697 124.638  0.00  0.00    +0.223 C 
ATOM      5  O   LIG A   1      -5.858  -2.900 123.598  0.00  0.00    -0.284 OA
ATOM      6  C   LIG A   1      -7.966  -2.700 124.775  0.00  0.00    +0.164 C 
ATOM      7  C   LIG A   1      -8.516  -2.268 125.924  0.00  0.00    +0.038 C 
ATOM      8  O   LIG A   1      -5.627  -2.116 128.204  0.00  0.00    -0.487 OA
ATOM      9  C   LIG A   1      -6.666  -2.027 129.199  0.00  0.00    +0.207 C 
ATOM     10  C   LIG A   1      -8.020  -2.275 128.483  0.00  0.00    +0.049 C 
ATOM     11  C   LIG A   1      -8.453  -3.749 128.457  0.00  0.00    +0.013 C 
ENDROOT
BRANCH   9  12
ATOM     12  C   LIG A   1      -6.374  -2.921 130.383  0.00  0.00    -0.003 A 
ATOM     13  C   LIG A   1      -6.811  -2.615 131.684  0.00  0.00    +0.056 A 
ATOM     14  C   LIG A   1      -6.482  -3.438 132.773  0.00  0.00    +0.162 A 
ATOM     15  C   LIG A   1      -5.752  -4.616 132.551  0.00  0.00    +0.162 A 
ATOM     16  C   LIG A   1      -5.316  -4.921 131.258  0.00  0.00    +0.050 A 
ATOM     17  C   LIG A   1      -5.611  -4.076 130.188  0.00  0.00    +0.011 A 
BRANCH  14  18
ATOM     18  O   LIG A   1      -6.962  -2.996 133.982  0.00  0.00    -0.491 OA
ATOM     19  C   LIG A   1      -8.360  -3.175 134.198  0.00  0.00    +0.277 C 
ENDBRANCH  14  18
BRANCH  15  20
ATOM     20  O   LIG A   1      -5.613  -5.508 133.580  0.00  0.00    -0.491 OA
ATOM     21  C   LIG A   1      -4.284  -5.867 133.932  0.00  0.00    +0.277 C 
ENDBRANCH  15  20
ENDBRANCH   9  12
BRANCH   6  22
ATOM     22  O   LIG A   1      -8.807  -3.168 123.775  0.00  0.00    -0.492 OA
ATOM     23  C   LIG A   1      -9.350  -2.175 122.908  0.00  0.00    +0.277 C 
ENDBRANCH   6  22
BRANCH   1  24
ATOM     24  C   LIG A   1      -7.881  -0.125 127.089  0.00  0.00    +0.045 C 
BRANCH  24  25
ATOM     25  C   LIG A   1      -9.063   0.412 126.314  0.00  0.00    -0.033 C 
ATOM     26  C   LIG A   1      -8.976   1.339 125.351  0.00  0.00    +0.004 C 
ENDBRANCH  24  25
ENDBRANCH   1  24
TORSDOF 6
ENDMDL
MODEL 9
REMARK VINA RESULT:      -6.5      5.416      7.550
REMARK  Name = NuBBE_2040
REMARK  10 active torsions:
REMARK  status: ('A' for Active; 'I' for Inactive)
REMARK    1  A    between atoms: C_1  and  C_2
REMARK    2  A    between atoms: C_1  and  C_4
REMARK    3  A    between atoms: C_9  and  O_11
REMARK    4  A    between atoms: O_11  and  C_12
REMARK    5  A    between atoms: C_14  and  C_19
REMARK    6  A    between atoms: C_16  and  C_18
REMARK    7  A    between atoms: C_21  and  O_22
REMARK    8  A    between atoms: O_22  and  C_23
REMARK    9  A    between atoms: C_24  and  O_27
REMARK   10  A    between atoms: O_27  and  C_28
REMARK                            x       y       z     vdW  Elec       q    Type
REMARK                         _______ _______ _______ _____ _____    ______ ____
ROOT
ATOM      1  C   LIG A   1      -7.281  -1.768 125.853  0.00  0.00    +0.059 C 
ATOM      2  C   LIG A   1      -7.716  -0.806 124.773  0.00  0.00    +0.113 C 
ATOM      3  C   LIG A   1      -7.285  -0.827 123.512  0.00  0.00    +0.096 C 
ATOM      4  C   LIG A   1      -6.281  -1.825 123.089  0.00  0.00    +0.223 C 
ATOM      5  O   LIG A   1      -6.060  -1.963 121.900  0.00  0.00    -0.284 OA
ATOM      6  C   LIG A   1      -5.541  -2.557 124.190  0.00  0.00    +0.164 C 
ATOM      7  C   LIG A   1      -6.003  -2.477 125.450  0.00  0.00    +0.038 C 
ATOM      8  O   LIG A   1      -8.455   0.266 125.244  0.00  0.00    -0.487 OA
ATOM      9  C   LIG A   1      -8.342   0.212 126.679  0.00  0.00    +0.207 C 
ATOM     10  C   LIG A   1      -7.184  -0.762 127.020  0.00  0.00    +0.049 C 
ATOM     11  C   LIG A   1      -5.811  -0.085 127.142  0.00  0.00    +0.013 C 
ENDROOT
BRANCH   9  12
ATOM     12  C   LIG A   1      -8.233   1.597 127.276  0.00  0.00    -0.003 A 
ATOM     13  C   LIG A   1      -7.863   2.719 126.514  0.00  0.00    +0.056 A 
ATOM     14  C   LIG A   1      -7.721   3.985 127.105  0.00  0.00    +0.162 A 
ATOM     15  C   LIG A   1      -8.008   4.144 128.470  0.00  0.00    +0.162 A 
ATOM     16  C   LIG A   1      -8.375   3.028 129.230  0.00  0.00    +0.050 A 
ATOM     17  C   LIG A   1      -8.473   1.767 128.643  0.00  0.00    +0.011 A 
BRANCH  14  18
ATOM     18  O   LIG A   1      -7.332   4.976 126.237  0.00  0.00    -0.491 OA
ATOM     19  C   LIG A   1      -6.123   4.733 125.520  0.00  0.00    +0.277 C 
ENDBRANCH  14  18
BRANCH  15  20
ATOM     20  O   LIG A   1      -8.063   5.410 128.988  0.00  0.00    -0.491 OA
ATOM     21  C   LIG A   1      -8.414   5.518 130.361  0.00  0.00    +0.277 C 
ENDBRANCH  15  20
ENDBRANCH   9  12
BRANCH   6  22
ATOM     22  O   LIG A   1      -4.377  -3.278 123.958  0.00  0.00    -0.492 OA
ATOM     23  C   LIG A   1      -4.553  -4.670 123.704  0.00  0.00    +0.277 C 
ENDBRANCH   6  22
BRANCH   1  24
ATOM     24  C   LIG A   1      -8.412  -2.823 126.108  0.00  0.00    +0.045 C 
BRANCH  24  25
ATOM     25  C   LIG A   1      -8.734  -3.081 127.563  0.00  0.00    -0.033 C 
ATOM     26  C   LIG A   1      -7.987  -3.835 128.380  0.00  0.00    +0.004 C 
ENDBRANCH  24  25
ENDBRANCH   1  24
TORSDOF 6
ENDMDL
