MODEL 1
REMARK VINA RESULT:      -8.3      0.000      0.000
REMARK  Name = NuBBE_1326
REMARK  7 active torsions:
REMARK  status: ('A' for Active; 'I' for Inactive)
REMARK    1  A    between atoms: C_1  and  C_2
REMARK    2  A    between atoms: C_2  and  C_3
REMARK    3  A    between atoms: C_14  and  O_27
REMARK    4  A    between atoms: C_17  and  O_18
REMARK    5  A    between atoms: O_18  and  C_19
REMARK    6  A    between atoms: C_20  and  O_21
REMARK    7  A    between atoms: O_21  and  C_22
REMARK                            x       y       z     vdW  Elec       q    Type
REMARK                         _______ _______ _______ _____ _____    ______ ____
ROOT
ATOM      1  C   LIG A   1     -10.746   6.905 130.090  0.00  0.00    +0.203 C 
ATOM      2  O   LIG A   1     -10.822   6.357 131.437  0.00  0.00    -0.484 OA
ATOM      3  C   LIG A   1      -9.325   7.453 129.847  0.00  0.00    +0.091 C 
ATOM      4  C   LIG A   1      -8.606   6.788 130.958  0.00  0.00    +0.040 A 
ATOM      5  C   LIG A   1      -9.517   6.193 131.815  0.00  0.00    +0.128 A 
ATOM      6  C   LIG A   1      -9.120   5.523 132.956  0.00  0.00    +0.047 A 
ATOM      7  C   LIG A   1      -7.751   5.430 133.217  0.00  0.00    +0.019 A 
ATOM      8  C   LIG A   1      -6.825   6.028 132.342  0.00  0.00    +0.063 A 
ATOM      9  C   LIG A   1      -7.250   6.747 131.227  0.00  0.00    +0.139 A 
ATOM     10  O   LIG A   1      -6.425   7.406 130.368  0.00  0.00    -0.481 OA
ATOM     11  C   LIG A   1      -5.063   7.561 130.814  0.00  0.00    +0.254 C 
ATOM     12  C   LIG A   1      -4.462   6.295 131.427  0.00  0.00    +0.197 C 
ATOM     13  C   LIG A   1      -4.256   5.241 130.363  0.00  0.00    +0.041 A 
ATOM     14  C   LIG A   1      -4.153   3.876 130.673  0.00  0.00    +0.060 A 
ATOM     15  C   LIG A   1      -4.008   2.905 129.668  0.00  0.00    +0.162 A 
ATOM     16  C   LIG A   1      -3.967   3.299 128.324  0.00  0.00    +0.165 A 
ATOM     17  C   LIG A   1      -4.049   4.661 128.014  0.00  0.00    +0.095 A 
ATOM     18  C   LIG A   1      -4.171   5.621 129.020  0.00  0.00    +0.131 A 
ATOM     19  O   LIG A   1      -4.257   6.913 128.575  0.00  0.00    -0.488 OA
ATOM     20  C   LIG A   1      -4.227   7.927 129.588  0.00  0.00    +0.277 C 
ATOM     21  C   LIG A   1      -5.381   5.875 132.567  0.00  0.00    +0.206 C 
ATOM     22  O   LIG A   1      -4.946   5.412 133.625  0.00  0.00    -0.288 OA
ENDROOT
BRANCH   1  24
ATOM     23  C   LIG A   1     -12.877   8.036 131.002  0.00  0.00    +0.042 C 
ATOM     24  C   LIG A   1     -11.844   7.936 129.913  0.00  0.00    -0.040 C 
ATOM     25  C   LIG A   1     -11.909   8.722 128.822  0.00  0.00    +0.011 C 
ENDBRANCH   1  24
BRANCH  15  26
ATOM     26  O   LIG A   1      -3.967   1.622 130.153  0.00  0.00    -0.491 OA
ATOM     27  C   LIG A   1      -5.220   1.001 130.418  0.00  0.00    +0.277 C 
ENDBRANCH  15  26
BRANCH  16  28
ATOM     28  O   LIG A   1      -3.936   2.333 127.353  0.00  0.00    -0.491 OA
ATOM     29  C   LIG A   1      -5.170   2.068 126.694  0.00  0.00    +0.277 C 
ENDBRANCH  16  28
BRANCH  12  30
ATOM     30  O   LIG A   1      -3.171   6.597 131.982  0.00  0.00    -0.373 OA
ATOM     31  H   LIG A   1      -3.311   7.367 132.572  0.00  0.00    +0.211 HD
ENDBRANCH  12  30
TORSDOF 4
ENDMDL
MODEL 2
REMARK VINA RESULT:      -8.0      1.996      2.730
REMARK  Name = NuBBE_1326
REMARK  7 active torsions:
REMARK  status: ('A' for Active; 'I' for Inactive)
REMARK    1  A    between atoms: C_1  and  C_2
REMARK    2  A    between atoms: C_2  and  C_3
REMARK    3  A    between atoms: C_14  and  O_27
REMARK    4  A    between atoms: C_17  and  O_18
REMARK    5  A    between atoms: O_18  and  C_19
REMARK    6  A    between atoms: C_20  and  O_21
REMARK    7  A    between atoms: O_21  and  C_22
REMARK                            x       y       z     vdW  Elec       q    Type
REMARK                         _______ _______ _______ _____ _____    ______ ____
ROOT
ATOM      1  C   LIG A   1     -11.331   6.721 129.373  0.00  0.00    +0.203 C 
ATOM      2  O   LIG A   1     -11.762   5.430 129.887  0.00  0.00    -0.484 OA
ATOM      3  C   LIG A   1      -9.852   6.945 129.745  0.00  0.00    +0.091 C 
ATOM      4  C   LIG A   1      -9.467   5.558 130.092  0.00  0.00    +0.040 A 
ATOM      5  C   LIG A   1     -10.599   4.761 130.156  0.00  0.00    +0.128 A 
ATOM      6  C   LIG A   1     -10.534   3.422 130.488  0.00  0.00    +0.047 A 
ATOM      7  C   LIG A   1      -9.275   2.870 130.735  0.00  0.00    +0.019 A 
ATOM      8  C   LIG A   1      -8.125   3.677 130.662  0.00  0.00    +0.063 A 
ATOM      9  C   LIG A   1      -8.218   5.039 130.381  0.00  0.00    +0.139 A 
ATOM     10  O   LIG A   1      -7.164   5.900 130.353  0.00  0.00    -0.481 OA
ATOM     11  C   LIG A   1      -5.934   5.391 130.905  0.00  0.00    +0.254 C 
ATOM     12  C   LIG A   1      -5.601   3.963 130.466  0.00  0.00    +0.197 C 
ATOM     13  C   LIG A   1      -5.244   3.935 128.997  0.00  0.00    +0.041 A 
ATOM     14  C   LIG A   1      -5.331   2.762 128.230  0.00  0.00    +0.060 A 
ATOM     15  C   LIG A   1      -5.041   2.763 126.855  0.00  0.00    +0.162 A 
ATOM     16  C   LIG A   1      -4.658   3.956 126.228  0.00  0.00    +0.165 A 
ATOM     17  C   LIG A   1      -4.551   5.121 126.995  0.00  0.00    +0.095 A 
ATOM     18  C   LIG A   1      -4.820   5.107 128.365  0.00  0.00    +0.131 A 
ATOM     19  O   LIG A   1      -4.691   6.319 128.989  0.00  0.00    -0.488 OA
ATOM     20  C   LIG A   1      -4.810   6.304 130.417  0.00  0.00    +0.277 C 
ATOM     21  C   LIG A   1      -6.789   3.092 130.848  0.00  0.00    +0.206 C 
ATOM     22  O   LIG A   1      -6.652   1.943 131.278  0.00  0.00    -0.288 OA
ENDROOT
BRANCH   1  24
ATOM     23  C   LIG A   1     -12.513   8.984 128.998  0.00  0.00    +0.042 C 
ATOM     24  C   LIG A   1     -12.267   7.797 129.890  0.00  0.00    -0.040 C 
ATOM     25  C   LIG A   1     -12.845   7.711 131.102  0.00  0.00    +0.011 C 
ENDBRANCH   1  24
BRANCH  15  26
ATOM     26  O   LIG A   1      -5.222   1.540 126.261  0.00  0.00    -0.491 OA
ATOM     27  C   LIG A   1      -6.567   1.144 126.016  0.00  0.00    +0.277 C 
ENDBRANCH  15  26
BRANCH  16  28
ATOM     28  O   LIG A   1      -4.486   3.962 124.869  0.00  0.00    -0.491 OA
ATOM     29  C   LIG A   1      -5.622   4.333 124.096  0.00  0.00    +0.277 C 
ENDBRANCH  16  28
BRANCH  12  30
ATOM     30  O   LIG A   1      -4.452   3.495 131.192  0.00  0.00    -0.373 OA
ATOM     31  H   LIG A   1      -3.844   3.131 130.516  0.00  0.00    +0.211 HD
ENDBRANCH  12  30
TORSDOF 4
ENDMDL
MODEL 3
REMARK VINA RESULT:      -7.9      2.708      5.770
REMARK  Name = NuBBE_1326
REMARK  7 active torsions:
REMARK  status: ('A' for Active; 'I' for Inactive)
REMARK    1  A    between atoms: C_1  and  C_2
REMARK    2  A    between atoms: C_2  and  C_3
REMARK    3  A    between atoms: C_14  and  O_27
REMARK    4  A    between atoms: C_17  and  O_18
REMARK    5  A    between atoms: O_18  and  C_19
REMARK    6  A    between atoms: C_20  and  O_21
REMARK    7  A    between atoms: O_21  and  C_22
REMARK                            x       y       z     vdW  Elec       q    Type
REMARK                         _______ _______ _______ _____ _____    ______ ____
ROOT
ATOM      1  C   LIG A   1      -7.842   0.769 127.991  0.00  0.00    +0.203 C 
ATOM      2  O   LIG A   1      -8.086  -0.050 129.170  0.00  0.00    -0.484 OA
ATOM      3  C   LIG A   1      -8.363   2.196 128.251  0.00  0.00    +0.091 C 
ATOM      4  C   LIG A   1      -8.492   2.153 129.726  0.00  0.00    +0.040 A 
ATOM      5  C   LIG A   1      -8.325   0.852 130.171  0.00  0.00    +0.128 A 
ATOM      6  C   LIG A   1      -8.421   0.517 131.507  0.00  0.00    +0.047 A 
ATOM      7  C   LIG A   1      -8.667   1.543 132.423  0.00  0.00    +0.019 A 
ATOM      8  C   LIG A   1      -8.828   2.866 131.971  0.00  0.00    +0.063 A 
ATOM      9  C   LIG A   1      -8.783   3.173 130.612  0.00  0.00    +0.139 A 
ATOM     10  O   LIG A   1      -8.990   4.412 130.089  0.00  0.00    -0.481 OA
ATOM     11  C   LIG A   1      -9.540   5.385 131.000  0.00  0.00    +0.254 C 
ATOM     12  C   LIG A   1      -8.886   5.380 132.383  0.00  0.00    +0.197 C 
ATOM     13  C   LIG A   1      -7.467   5.896 132.296  0.00  0.00    +0.041 A 
ATOM     14  C   LIG A   1      -6.502   5.597 133.271  0.00  0.00    +0.060 A 
ATOM     15  C   LIG A   1      -5.177   6.046 133.151  0.00  0.00    +0.162 A 
ATOM     16  C   LIG A   1      -4.800   6.807 132.036  0.00  0.00    +0.165 A 
ATOM     17  C   LIG A   1      -5.765   7.123 131.074  0.00  0.00    +0.095 A 
ATOM     18  C   LIG A   1      -7.086   6.691 131.212  0.00  0.00    +0.131 A 
ATOM     19  O   LIG A   1      -7.921   7.058 130.190  0.00  0.00    -0.488 OA
ATOM     20  C   LIG A   1      -9.310   6.762 130.380  0.00  0.00    +0.277 C 
ATOM     21  C   LIG A   1      -9.014   3.964 132.930  0.00  0.00    +0.206 C 
ATOM     22  O   LIG A   1      -9.246   3.738 134.121  0.00  0.00    -0.288 OA
ENDROOT
BRANCH   1  24
ATOM     23  C   LIG A   1      -9.324   0.944 125.887  0.00  0.00    +0.042 C 
ATOM     24  C   LIG A   1      -8.463   0.095 126.783  0.00  0.00    -0.040 C 
ATOM     25  C   LIG A   1      -8.273  -1.212 126.524  0.00  0.00    +0.011 C 
ENDBRANCH   1  24
BRANCH  15  26
ATOM     26  O   LIG A   1      -4.365   5.623 134.173  0.00  0.00    -0.491 OA
ATOM     27  C   LIG A   1      -3.825   4.311 134.055  0.00  0.00    +0.277 C 
ENDBRANCH  15  26
BRANCH  16  28
ATOM     28  O   LIG A   1      -3.481   7.142 131.880  0.00  0.00    -0.491 OA
ATOM     29  C   LIG A   1      -2.716   6.295 131.029  0.00  0.00    +0.277 C 
ENDBRANCH  16  28
BRANCH  12  30
ATOM     30  O   LIG A   1      -9.607   6.263 133.258  0.00  0.00    -0.373 OA
ATOM     31  H   LIG A   1      -9.615   7.132 132.806  0.00  0.00    +0.211 HD
ENDBRANCH  12  30
TORSDOF 4
ENDMDL
MODEL 4
REMARK VINA RESULT:      -7.8      3.864      8.033
REMARK  Name = NuBBE_1326
REMARK  7 active torsions:
REMARK  status: ('A' for Active; 'I' for Inactive)
REMARK    1  A    between atoms: C_1  and  C_2
REMARK    2  A    between atoms: C_2  and  C_3
REMARK    3  A    between atoms: C_14  and  O_27
REMARK    4  A    between atoms: C_17  and  O_18
REMARK    5  A    between atoms: O_18  and  C_19
REMARK    6  A    between atoms: C_20  and  O_21
REMARK    7  A    between atoms: O_21  and  C_22
REMARK                            x       y       z     vdW  Elec       q    Type
REMARK                         _______ _______ _______ _____ _____    ______ ____
ROOT
ATOM      1  C   LIG A   1      -9.011  -1.482 125.041  0.00  0.00    +0.203 C 
ATOM      2  O   LIG A   1      -9.496  -0.498 124.084  0.00  0.00    -0.484 OA
ATOM      3  C   LIG A   1      -7.832  -0.880 125.831  0.00  0.00    +0.091 C 
ATOM      4  C   LIG A   1      -8.025   0.555 125.517  0.00  0.00    +0.040 A 
ATOM      5  C   LIG A   1      -8.978   0.691 124.521  0.00  0.00    +0.128 A 
ATOM      6  C   LIG A   1      -9.336   1.925 124.014  0.00  0.00    +0.047 A 
ATOM      7  C   LIG A   1      -8.727   3.058 124.558  0.00  0.00    +0.019 A 
ATOM      8  C   LIG A   1      -7.765   2.919 125.576  0.00  0.00    +0.063 A 
ATOM      9  C   LIG A   1      -7.377   1.662 126.034  0.00  0.00    +0.139 A 
ATOM     10  O   LIG A   1      -6.412   1.439 126.968  0.00  0.00    -0.481 OA
ATOM     11  C   LIG A   1      -5.588   2.577 127.290  0.00  0.00    +0.254 C 
ATOM     12  C   LIG A   1      -6.371   3.877 127.482  0.00  0.00    +0.197 C 
ATOM     13  C   LIG A   1      -7.203   3.808 128.744  0.00  0.00    +0.041 A 
ATOM     14  C   LIG A   1      -8.327   4.625 128.943  0.00  0.00    +0.060 A 
ATOM     15  C   LIG A   1      -9.116   4.516 130.100  0.00  0.00    +0.162 A 
ATOM     16  C   LIG A   1      -8.782   3.572 131.081  0.00  0.00    +0.165 A 
ATOM     17  C   LIG A   1      -7.651   2.771 130.893  0.00  0.00    +0.095 A 
ATOM     18  C   LIG A   1      -6.860   2.901 129.750  0.00  0.00    +0.131 A 
ATOM     19  O   LIG A   1      -5.792   2.045 129.689  0.00  0.00    -0.488 OA
ATOM     20  C   LIG A   1      -4.879   2.261 128.606  0.00  0.00    +0.277 C 
ATOM     21  C   LIG A   1      -7.171   4.107 126.207  0.00  0.00    +0.206 C 
ATOM     22  O   LIG A   1      -7.332   5.232 125.726  0.00  0.00    -0.288 OA
ENDROOT
BRANCH   1  24
ATOM     23  C   LIG A   1      -7.302  -3.346 124.533  0.00  0.00    +0.042 C 
ATOM     24  C   LIG A   1      -8.670  -2.763 124.304  0.00  0.00    -0.040 C 
ATOM     25  C   LIG A   1      -9.542  -3.352 123.465  0.00  0.00    +0.011 C 
ENDBRANCH   1  24
BRANCH  15  26
ATOM     26  O   LIG A   1     -10.196   5.362 130.103  0.00  0.00    -0.491 OA
ATOM     27  C   LIG A   1      -9.998   6.646 130.684  0.00  0.00    +0.277 C 
ENDBRANCH  15  26
BRANCH  16  28
ATOM     28  O   LIG A   1      -9.624   3.404 132.148  0.00  0.00    -0.491 OA
ATOM     29  C   LIG A   1      -8.999   3.224 133.415  0.00  0.00    +0.277 C 
ENDBRANCH  16  28
BRANCH  12  30
ATOM     30  O   LIG A   1      -5.453   4.971 127.638  0.00  0.00    -0.373 OA
ATOM     31  H   LIG A   1      -4.597   4.564 127.883  0.00  0.00    +0.211 HD
ENDBRANCH  12  30
TORSDOF 4
ENDMDL
MODEL 5
REMARK VINA RESULT:      -7.7      3.903      6.222
REMARK  Name = NuBBE_1326
REMARK  7 active torsions:
REMARK  status: ('A' for Active; 'I' for Inactive)
REMARK    1  A    between atoms: C_1  and  C_2
REMARK    2  A    between atoms: C_2  and  C_3
REMARK    3  A    between atoms: C_14  and  O_27
REMARK    4  A    between atoms: C_17  and  O_18
REMARK    5  A    between atoms: O_18  and  C_19
REMARK    6  A    between atoms: C_20  and  O_21
REMARK    7  A    between atoms: O_21  and  C_22
REMARK                            x       y       z     vdW  Elec       q    Type
REMARK                         _______ _______ _______ _____ _____    ______ ____
ROOT
ATOM      1  C   LIG A   1      -9.755   4.658 130.313  0.00  0.00    +0.203 C 
ATOM      2  O   LIG A   1      -9.911   3.611 131.311  0.00  0.00    -0.484 OA
ATOM      3  C   LIG A   1      -8.535   4.334 129.427  0.00  0.00    +0.091 C 
ATOM      4  C   LIG A   1      -8.355   2.903 129.761  0.00  0.00    +0.040 A 
ATOM      5  C   LIG A   1      -9.163   2.568 130.836  0.00  0.00    +0.128 A 
ATOM      6  C   LIG A   1      -9.175   1.297 131.376  0.00  0.00    +0.047 A 
ATOM      7  C   LIG A   1      -8.360   0.328 130.785  0.00  0.00    +0.019 A 
ATOM      8  C   LIG A   1      -7.545   0.666 129.689  0.00  0.00    +0.063 A 
ATOM      9  C   LIG A   1      -7.507   1.969 129.195  0.00  0.00    +0.139 A 
ATOM     10  O   LIG A   1      -6.703   2.391 128.182  0.00  0.00    -0.481 OA
ATOM     11  C   LIG A   1      -5.661   1.474 127.795  0.00  0.00    +0.254 C 
ATOM     12  C   LIG A   1      -6.125   0.021 127.674  0.00  0.00    +0.197 C 
ATOM     13  C   LIG A   1      -7.050  -0.139 126.488  0.00  0.00    +0.041 A 
ATOM     14  C   LIG A   1      -7.960  -1.203 126.388  0.00  0.00    +0.060 A 
ATOM     15  C   LIG A   1      -8.844  -1.312 125.302  0.00  0.00    +0.162 A 
ATOM     16  C   LIG A   1      -8.826  -0.338 124.293  0.00  0.00    +0.165 A 
ATOM     17  C   LIG A   1      -7.906   0.712 124.381  0.00  0.00    +0.095 A 
ATOM     18  C   LIG A   1      -7.016   0.800 125.452  0.00  0.00    +0.131 A 
ATOM     19  O   LIG A   1      -6.182   1.886 125.420  0.00  0.00    -0.488 OA
ATOM     20  C   LIG A   1      -5.157   1.918 126.422  0.00  0.00    +0.277 C 
ATOM     21  C   LIG A   1      -6.739  -0.361 129.013  0.00  0.00    +0.206 C 
ATOM     22  O   LIG A   1      -6.589  -1.481 129.511  0.00  0.00    -0.288 OA
ENDROOT
BRANCH   1  24
ATOM     23  C   LIG A   1      -9.990   6.032 132.484  0.00  0.00    +0.042 C 
ATOM     24  C   LIG A   1      -9.670   6.001 131.014  0.00  0.00    -0.040 C 
ATOM     25  C   LIG A   1      -9.339   7.126 130.354  0.00  0.00    +0.011 C 
ENDBRANCH   1  24
BRANCH  15  26
ATOM     26  O   LIG A   1      -9.689  -2.389 125.394  0.00  0.00    -0.491 OA
ATOM     27  C   LIG A   1      -9.328  -3.403 126.325  0.00  0.00    +0.277 C 
ENDBRANCH  15  26
BRANCH  16  28
ATOM     28  O   LIG A   1      -9.768  -0.400 123.301  0.00  0.00    -0.491 OA
ATOM     29  C   LIG A   1     -10.100   0.836 122.676  0.00  0.00    +0.277 C 
ENDBRANCH  16  28
BRANCH  12  30
ATOM     30  O   LIG A   1      -4.989  -0.828 127.444  0.00  0.00    -0.373 OA
ATOM     31  H   LIG A   1      -4.605  -0.999 128.329  0.00  0.00    +0.211 HD
ENDBRANCH  12  30
TORSDOF 4
ENDMDL
MODEL 6
REMARK VINA RESULT:      -7.7      1.998      2.977
REMARK  Name = NuBBE_1326
REMARK  7 active torsions:
REMARK  status: ('A' for Active; 'I' for Inactive)
REMARK    1  A    between atoms: C_1  and  C_2
REMARK    2  A    between atoms: C_2  and  C_3
REMARK    3  A    between atoms: C_14  and  O_27
REMARK    4  A    between atoms: C_17  and  O_18
REMARK    5  A    between atoms: O_18  and  C_19
REMARK    6  A    between atoms: C_20  and  O_21
REMARK    7  A    between atoms: O_21  and  C_22
REMARK                            x       y       z     vdW  Elec       q    Type
REMARK                         _______ _______ _______ _____ _____    ______ ____
ROOT
ATOM      1  C   LIG A   1     -10.966   6.763 129.773  0.00  0.00    +0.203 C 
ATOM      2  O   LIG A   1     -11.536   5.424 129.779  0.00  0.00    -0.484 OA
ATOM      3  C   LIG A   1      -9.849   6.842 130.833  0.00  0.00    +0.091 C 
ATOM      4  C   LIG A   1      -9.618   5.398 131.063  0.00  0.00    +0.040 A 
ATOM      5  C   LIG A   1     -10.612   4.660 130.439  0.00  0.00    +0.128 A 
ATOM      6  C   LIG A   1     -10.657   3.282 130.513  0.00  0.00    +0.047 A 
ATOM      7  C   LIG A   1      -9.643   2.632 131.220  0.00  0.00    +0.019 A 
ATOM      8  C   LIG A   1      -8.629   3.380 131.847  0.00  0.00    +0.063 A 
ATOM      9  C   LIG A   1      -8.634   4.773 131.806  0.00  0.00    +0.139 A 
ATOM     10  O   LIG A   1      -7.729   5.571 132.436  0.00  0.00    -0.481 OA
ATOM     11  C   LIG A   1      -6.886   4.910 133.401  0.00  0.00    +0.254 C 
ATOM     12  C   LIG A   1      -6.326   3.569 132.920  0.00  0.00    +0.197 C 
ATOM     13  C   LIG A   1      -5.316   3.786 131.816  0.00  0.00    +0.041 A 
ATOM     14  C   LIG A   1      -4.982   2.775 130.900  0.00  0.00    +0.060 A 
ATOM     15  C   LIG A   1      -4.077   3.007 129.851  0.00  0.00    +0.162 A 
ATOM     16  C   LIG A   1      -3.492   4.272 129.707  0.00  0.00    +0.165 A 
ATOM     17  C   LIG A   1      -3.808   5.275 130.630  0.00  0.00    +0.095 A 
ATOM     18  C   LIG A   1      -4.692   5.029 131.682  0.00  0.00    +0.131 A 
ATOM     19  O   LIG A   1      -4.924   6.102 132.502  0.00  0.00    -0.488 OA
ATOM     20  C   LIG A   1      -5.703   5.837 133.675  0.00  0.00    +0.277 C 
ATOM     21  C   LIG A   1      -7.517   2.704 132.531  0.00  0.00    +0.206 C 
ATOM     22  O   LIG A   1      -7.553   1.492 132.759  0.00  0.00    -0.288 OA
ENDROOT
BRANCH   1  24
ATOM     23  C   LIG A   1     -12.897   7.660 131.230  0.00  0.00    +0.042 C 
ATOM     24  C   LIG A   1     -12.079   7.775 129.973  0.00  0.00    -0.040 C 
ATOM     25  C   LIG A   1     -12.343   8.728 129.061  0.00  0.00    +0.011 C 
ENDBRANCH   1  24
BRANCH  15  26
ATOM     26  O   LIG A   1      -3.906   1.920 129.031  0.00  0.00    -0.491 OA
ATOM     27  C   LIG A   1      -4.852   1.760 127.980  0.00  0.00    +0.277 C 
ENDBRANCH  15  26
BRANCH  16  28
ATOM     28  O   LIG A   1      -2.699   4.512 128.616  0.00  0.00    -0.491 OA
ATOM     29  C   LIG A   1      -2.533   5.878 128.251  0.00  0.00    +0.277 C 
ENDBRANCH  16  28
BRANCH  12  30
ATOM     30  O   LIG A   1      -5.639   2.921 134.003  0.00  0.00    -0.373 OA
ATOM     31  H   LIG A   1      -4.693   3.147 133.888  0.00  0.00    +0.211 HD
ENDBRANCH  12  30
TORSDOF 4
ENDMDL
MODEL 7
REMARK VINA RESULT:      -7.5      3.681      7.691
REMARK  Name = NuBBE_1326
REMARK  7 active torsions:
REMARK  status: ('A' for Active; 'I' for Inactive)
REMARK    1  A    between atoms: C_1  and  C_2
REMARK    2  A    between atoms: C_2  and  C_3
REMARK    3  A    between atoms: C_14  and  O_27
REMARK    4  A    between atoms: C_17  and  O_18
REMARK    5  A    between atoms: O_18  and  C_19
REMARK    6  A    between atoms: C_20  and  O_21
REMARK    7  A    between atoms: O_21  and  C_22
REMARK                            x       y       z     vdW  Elec       q    Type
REMARK                         _______ _______ _______ _____ _____    ______ ____
ROOT
ATOM      1  C   LIG A   1      -5.663  -2.063 125.522  0.00  0.00    +0.203 C 
ATOM      2  O   LIG A   1      -6.392  -2.459 126.718  0.00  0.00    -0.484 OA
ATOM      3  C   LIG A   1      -6.098  -0.642 125.111  0.00  0.00    +0.091 C 
ATOM      4  C   LIG A   1      -6.748  -0.205 126.367  0.00  0.00    +0.040 A 
ATOM      5  C   LIG A   1      -6.882  -1.286 127.225  0.00  0.00    +0.128 A 
ATOM      6  C   LIG A   1      -7.482  -1.168 128.463  0.00  0.00    +0.047 A 
ATOM      7  C   LIG A   1      -7.935   0.094 128.853  0.00  0.00    +0.019 A 
ATOM      8  C   LIG A   1      -7.792   1.193 127.986  0.00  0.00    +0.063 A 
ATOM      9  C   LIG A   1      -7.234   1.041 126.718  0.00  0.00    +0.139 A 
ATOM     10  O   LIG A   1      -7.116   2.036 125.797  0.00  0.00    -0.481 OA
ATOM     11  C   LIG A   1      -7.856   3.239 126.088  0.00  0.00    +0.254 C 
ATOM     12  C   LIG A   1      -7.743   3.701 127.542  0.00  0.00    +0.197 C 
ATOM     13  C   LIG A   1      -6.343   4.195 127.830  0.00  0.00    +0.041 A 
ATOM     14  C   LIG A   1      -5.824   4.254 129.133  0.00  0.00    +0.060 A 
ATOM     15  C   LIG A   1      -4.506   4.671 129.379  0.00  0.00    +0.162 A 
ATOM     16  C   LIG A   1      -3.682   5.036 128.305  0.00  0.00    +0.165 A 
ATOM     17  C   LIG A   1      -4.203   4.997 127.008  0.00  0.00    +0.095 A 
ATOM     18  C   LIG A   1      -5.521   4.602 126.774  0.00  0.00    +0.131 A 
ATOM     19  O   LIG A   1      -5.896   4.595 125.457  0.00  0.00    -0.488 OA
ATOM     20  C   LIG A   1      -7.283   4.344 125.201  0.00  0.00    +0.277 C 
ATOM     21  C   LIG A   1      -8.198   2.539 128.414  0.00  0.00    +0.206 C 
ATOM     22  O   LIG A   1      -8.861   2.708 129.441  0.00  0.00    -0.288 OA
ENDROOT
BRANCH   1  24
ATOM     23  C   LIG A   1      -7.260  -3.681 124.302  0.00  0.00    +0.042 C 
ATOM     24  C   LIG A   1      -5.875  -3.110 124.444  0.00  0.00    -0.040 C 
ATOM     25  C   LIG A   1      -4.870  -3.529 123.654  0.00  0.00    +0.011 C 
ENDBRANCH   1  24
BRANCH  15  26
ATOM     26  O   LIG A   1      -4.159   4.624 130.706  0.00  0.00    -0.491 OA
ATOM     27  C   LIG A   1      -4.367   5.813 131.461  0.00  0.00    +0.277 C 
ENDBRANCH  15  26
BRANCH  16  28
ATOM     28  O   LIG A   1      -2.368   5.334 128.553  0.00  0.00    -0.491 OA
ATOM     29  C   LIG A   1      -2.033   6.717 128.573  0.00  0.00    +0.277 C 
ENDBRANCH  16  28
BRANCH  12  30
ATOM     30  O   LIG A   1      -8.637   4.804 127.765  0.00  0.00    -0.373 OA
ATOM     31  H   LIG A   1      -9.536   4.452 127.601  0.00  0.00    +0.211 HD
ENDBRANCH  12  30
TORSDOF 4
ENDMDL
MODEL 8
REMARK VINA RESULT:      -7.4      2.945      4.525
REMARK  Name = NuBBE_1326
REMARK  7 active torsions:
REMARK  status: ('A' for Active; 'I' for Inactive)
REMARK    1  A    between atoms: C_1  and  C_2
REMARK    2  A    between atoms: C_2  and  C_3
REMARK    3  A    between atoms: C_14  and  O_27
REMARK    4  A    between atoms: C_17  and  O_18
REMARK    5  A    between atoms: O_18  and  C_19
REMARK    6  A    between atoms: C_20  and  O_21
REMARK    7  A    between atoms: O_21  and  C_22
REMARK                            x       y       z     vdW  Elec       q    Type
REMARK                         _______ _______ _______ _____ _____    ______ ____
ROOT
ATOM      1  C   LIG A   1     -10.747   5.464 130.042  0.00  0.00    +0.203 C 
ATOM      2  O   LIG A   1     -10.778   4.148 130.662  0.00  0.00    -0.484 OA
ATOM      3  C   LIG A   1      -9.309   5.768 129.574  0.00  0.00    +0.091 C 
ATOM      4  C   LIG A   1      -8.737   4.403 129.615  0.00  0.00    +0.040 A 
ATOM      5  C   LIG A   1      -9.623   3.544 130.246  0.00  0.00    +0.128 A 
ATOM      6  C   LIG A   1      -9.331   2.209 130.446  0.00  0.00    +0.047 A 
ATOM      7  C   LIG A   1      -8.112   1.726 129.964  0.00  0.00    +0.019 A 
ATOM      8  C   LIG A   1      -7.217   2.597 129.316  0.00  0.00    +0.063 A 
ATOM      9  C   LIG A   1      -7.506   3.953 129.174  0.00  0.00    +0.139 A 
ATOM     10  O   LIG A   1      -6.670   4.871 128.617  0.00  0.00    -0.481 OA
ATOM     11  C   LIG A   1      -5.314   4.428 128.410  0.00  0.00    +0.254 C 
ATOM     12  C   LIG A   1      -5.204   3.024 127.812  0.00  0.00    +0.197 C 
ATOM     13  C   LIG A   1      -5.688   3.022 126.379  0.00  0.00    +0.041 A 
ATOM     14  C   LIG A   1      -6.120   1.850 125.738  0.00  0.00    +0.060 A 
ATOM     15  C   LIG A   1      -6.611   1.873 124.422  0.00  0.00    +0.162 A 
ATOM     16  C   LIG A   1      -6.676   3.089 123.728  0.00  0.00    +0.165 A 
ATOM     17  C   LIG A   1      -6.227   4.255 124.358  0.00  0.00    +0.095 A 
ATOM     18  C   LIG A   1      -5.721   4.219 125.659  0.00  0.00    +0.131 A 
ATOM     19  O   LIG A   1      -5.332   5.434 126.158  0.00  0.00    -0.488 OA
ATOM     20  C   LIG A   1      -4.668   5.405 127.428  0.00  0.00    +0.277 C 
ATOM     21  C   LIG A   1      -5.964   2.086 128.740  0.00  0.00    +0.206 C 
ATOM     22  O   LIG A   1      -5.567   0.945 128.991  0.00  0.00    -0.288 OA
ENDROOT
BRANCH   1  24
ATOM     23  C   LIG A   1     -12.177   7.573 130.447  0.00  0.00    +0.042 C 
ATOM     24  C   LIG A   1     -11.307   6.484 131.015  0.00  0.00    -0.040 C 
ATOM     25  C   LIG A   1     -11.031   6.435 132.331  0.00  0.00    +0.011 C 
ENDBRANCH   1  24
BRANCH  15  26
ATOM     26  O   LIG A   1      -7.027   0.645 123.975  0.00  0.00    -0.491 OA
ATOM     27  C   LIG A   1      -8.269   0.170 124.482  0.00  0.00    +0.277 C 
ENDBRANCH  15  26
BRANCH  16  28
ATOM     28  O   LIG A   1      -7.258   3.111 122.488  0.00  0.00    -0.491 OA
ATOM     29  C   LIG A   1      -6.497   3.718 121.449  0.00  0.00    +0.277 C 
ENDBRANCH  16  28
BRANCH  12  30
ATOM     30  O   LIG A   1      -3.826   2.617 127.796  0.00  0.00    -0.373 OA
ATOM     31  H   LIG A   1      -3.386   3.202 127.146  0.00  0.00    +0.211 HD
ENDBRANCH  12  30
TORSDOF 4
ENDMDL
MODEL 9
REMARK VINA RESULT:      -7.3      2.627      7.022
REMARK  Name = NuBBE_1326
REMARK  7 active torsions:
REMARK  status: ('A' for Active; 'I' for Inactive)
REMARK    1  A    between atoms: C_1  and  C_2
REMARK    2  A    between atoms: C_2  and  C_3
REMARK    3  A    between atoms: C_14  and  O_27
REMARK    4  A    between atoms: C_17  and  O_18
REMARK    5  A    between atoms: O_18  and  C_19
REMARK    6  A    between atoms: C_20  and  O_21
REMARK    7  A    between atoms: O_21  and  C_22
REMARK                            x       y       z     vdW  Elec       q    Type
REMARK                         _______ _______ _______ _____ _____    ______ ____
ROOT
ATOM      1  C   LIG A   1      -3.322   6.292 132.442  0.00  0.00    +0.203 C 
ATOM      2  O   LIG A   1      -3.769   6.261 133.827  0.00  0.00    -0.484 OA
ATOM      3  C   LIG A   1      -4.199   5.336 131.607  0.00  0.00    +0.091 C 
ATOM      4  C   LIG A   1      -5.335   5.157 132.540  0.00  0.00    +0.040 A 
ATOM      5  C   LIG A   1      -5.017   5.703 133.773  0.00  0.00    +0.128 A 
ATOM      6  C   LIG A   1      -5.889   5.652 134.843  0.00  0.00    +0.047 A 
ATOM      7  C   LIG A   1      -7.136   5.053 134.643  0.00  0.00    +0.019 A 
ATOM      8  C   LIG A   1      -7.461   4.507 133.388  0.00  0.00    +0.063 A 
ATOM      9  C   LIG A   1      -6.544   4.519 132.338  0.00  0.00    +0.139 A 
ATOM     10  O   LIG A   1      -6.756   3.958 131.116  0.00  0.00    -0.481 OA
ATOM     11  C   LIG A   1      -7.902   3.087 131.024  0.00  0.00    +0.254 C 
ATOM     12  C   LIG A   1      -9.159   3.643 131.696  0.00  0.00    +0.197 C 
ATOM     13  C   LIG A   1      -9.688   4.830 130.922  0.00  0.00    +0.041 A 
ATOM     14  C   LIG A   1     -10.524   5.793 131.510  0.00  0.00    +0.060 A 
ATOM     15  C   LIG A   1     -10.969   6.914 130.792  0.00  0.00    +0.162 A 
ATOM     16  C   LIG A   1     -10.571   7.086 129.458  0.00  0.00    +0.165 A 
ATOM     17  C   LIG A   1      -9.754   6.118 128.865  0.00  0.00    +0.095 A 
ATOM     18  C   LIG A   1      -9.334   4.995 129.580  0.00  0.00    +0.131 A 
ATOM     19  O   LIG A   1      -8.526   4.137 128.882  0.00  0.00    -0.488 OA
ATOM     20  C   LIG A   1      -8.209   2.903 129.539  0.00  0.00    +0.277 C 
ATOM     21  C   LIG A   1      -8.795   3.940 133.144  0.00  0.00    +0.206 C 
ATOM     22  O   LIG A   1      -9.579   3.734 134.075  0.00  0.00    -0.288 OA
ENDROOT
BRANCH   1  24
ATOM     23  C   LIG A   1      -1.438   4.536 132.594  0.00  0.00    +0.042 C 
ATOM     24  C   LIG A   1      -1.840   5.972 132.393  0.00  0.00    -0.040 C 
ATOM     25  C   LIG A   1      -0.914   6.928 132.195  0.00  0.00    +0.011 C 
ENDBRANCH   1  24
BRANCH  15  26
ATOM     26  O   LIG A   1     -11.740   7.768 131.538  0.00  0.00    -0.491 OA
ATOM     27  C   LIG A   1     -13.146   7.543 131.512  0.00  0.00    +0.277 C 
ENDBRANCH  15  26
BRANCH  16  28
ATOM     28  O   LIG A   1     -10.922   8.239 128.808  0.00  0.00    -0.491 OA
ATOM     29  C   LIG A   1     -11.130   8.128 127.404  0.00  0.00    +0.277 C 
ENDBRANCH  16  28
BRANCH  12  30
ATOM     30  O   LIG A   1     -10.188   2.640 131.690  0.00  0.00    -0.373 OA
ATOM     31  H   LIG A   1      -9.741   1.805 131.441  0.00  0.00    +0.211 HD
ENDBRANCH  12  30
TORSDOF 4
ENDMDL
