MODEL 1
REMARK VINA RESULT:      -7.0      0.000      0.000
REMARK  Name = NuBBE_514
REMARK  8 active torsions:
REMARK  status: ('A' for Active; 'I' for Inactive)
REMARK    1  A    between atoms: O_1  and  C_2
REMARK    2  A    between atoms: C_6  and  C_27
REMARK    3  A    between atoms: C_9  and  C_10
REMARK    4  A    between atoms: C_9  and  C_12
REMARK    5  A    between atoms: C_10  and  O_11
REMARK    6  A    between atoms: C_23  and  C_24
REMARK    7  A    between atoms: C_23  and  O_26
REMARK    8  A    between atoms: C_24  and  O_25
REMARK                            x       y       z     vdW  Elec       q    Type
REMARK                         _______ _______ _______ _____ _____    ______ ____
ROOT
ATOM      1  C   LIG A   1      -6.127   0.377 130.611  0.00  0.00    +0.123 C 
ATOM      2  C   LIG A   1      -5.136   0.340 129.448  0.00  0.00    +0.032 C 
ATOM      3  C   LIG A   1      -5.781  -0.186 128.165  0.00  0.00    +0.010 C 
ATOM      4  C   LIG A   1      -6.355  -1.620 128.306  0.00  0.00    -0.023 C 
ATOM      5  C   LIG A   1      -7.310  -1.657 129.565  0.00  0.00    +0.006 C 
ATOM      6  C   LIG A   1      -6.790  -0.998 130.908  0.00  0.00    +0.020 C 
ATOM      7  C   LIG A   1      -5.790  -1.873 131.700  0.00  0.00    +0.016 C 
ATOM      8  C   LIG A   1      -7.894  -3.072 129.744  0.00  0.00    +0.005 C 
ATOM      9  C   LIG A   1      -8.704  -3.487 128.525  0.00  0.00    +0.004 C 
ATOM     10  C   LIG A   1      -7.948  -3.365 127.191  0.00  0.00    -0.004 C 
ATOM     11  C   LIG A   1      -7.169  -2.026 126.991  0.00  0.00    -0.020 C 
ATOM     12  C   LIG A   1      -8.351  -1.102 126.608  0.00  0.00    +0.014 C 
ATOM     13  C   LIG A   1      -9.029  -1.929 125.502  0.00  0.00    +0.024 C 
ATOM     14  C   LIG A   1      -8.959  -3.383 126.030  0.00  0.00    +0.010 C 
ATOM     15  C   LIG A   1      -6.235  -2.182 125.722  0.00  0.00    +0.010 C 
ATOM     16  C   LIG A   1      -6.751  -1.542 124.421  0.00  0.00    +0.038 C 
ATOM     17  C   LIG A   1      -8.261  -1.711 124.174  0.00  0.00    +0.092 C 
ATOM     18  C   LIG A   1      -5.166  -2.614 128.459  0.00  0.00    +0.012 C 
ENDROOT
BRANCH   1  19
ATOM     19  O   LIG A   1      -7.141   1.346 130.312  0.00  0.00    -0.391 OA
ATOM     20  H   LIG A   1      -7.958   0.862 130.101  0.00  0.00    +0.210 HD
ENDBRANCH   1  19
BRANCH  17  21
ATOM     21  O   LIG A   1      -8.501  -2.810 123.278  0.00  0.00    -0.386 OA
ATOM     22  H   LIG A   1      -7.878  -2.741 122.535  0.00  0.00    +0.210 HD
ENDBRANCH  17  21
BRANCH   6  23
ATOM     23  C   LIG A   1      -8.020  -0.782 131.853  0.00  0.00    +0.165 C 
BRANCH  23  24
ATOM     24  O   LIG A   1      -7.701   0.052 132.965  0.00  0.00    -0.394 OA
ATOM     25  H   LIG A   1      -7.922   0.958 132.681  0.00  0.00    +0.209 HD
ENDBRANCH  23  24
ENDBRANCH   6  23
BRANCH  17  26
ATOM     26  C   LIG A   1      -8.794  -0.466 123.419  0.00  0.00    +0.190 C 
BRANCH  26  27
ATOM     27  O   LIG A   1     -10.013  -0.775 122.744  0.00  0.00    -0.392 OA
ATOM     28  H   LIG A   1      -9.870  -0.472 121.825  0.00  0.00    +0.209 HD
ENDBRANCH  26  27
ENDBRANCH  17  26
TORSDOF 6
ENDMDL
MODEL 2
REMARK VINA RESULT:      -6.9      2.402      3.878
REMARK  Name = NuBBE_514
REMARK  8 active torsions:
REMARK  status: ('A' for Active; 'I' for Inactive)
REMARK    1  A    between atoms: O_1  and  C_2
REMARK    2  A    between atoms: C_6  and  C_27
REMARK    3  A    between atoms: C_9  and  C_10
REMARK    4  A    between atoms: C_9  and  C_12
REMARK    5  A    between atoms: C_10  and  O_11
REMARK    6  A    between atoms: C_23  and  C_24
REMARK    7  A    between atoms: C_23  and  O_26
REMARK    8  A    between atoms: C_24  and  O_25
REMARK                            x       y       z     vdW  Elec       q    Type
REMARK                         _______ _______ _______ _____ _____    ______ ____
ROOT
ATOM      1  C   LIG A   1      -3.980  -3.766 131.811  0.00  0.00    +0.123 C 
ATOM      2  C   LIG A   1      -5.142  -4.725 131.554  0.00  0.00    +0.032 C 
ATOM      3  C   LIG A   1      -5.993  -4.283 130.363  0.00  0.00    +0.010 C 
ATOM      4  C   LIG A   1      -6.610  -2.871 130.535  0.00  0.00    -0.023 C 
ATOM      5  C   LIG A   1      -5.455  -1.859 130.905  0.00  0.00    +0.006 C 
ATOM      6  C   LIG A   1      -4.424  -2.291 132.029  0.00  0.00    +0.020 C 
ATOM      7  C   LIG A   1      -4.957  -2.139 133.473  0.00  0.00    +0.016 C 
ATOM      8  C   LIG A   1      -6.032  -0.442 131.095  0.00  0.00    +0.005 C 
ATOM      9  C   LIG A   1      -6.699   0.050 129.819  0.00  0.00    +0.004 C 
ATOM     10  C   LIG A   1      -7.757  -0.908 129.247  0.00  0.00    -0.004 C 
ATOM     11  C   LIG A   1      -7.328  -2.408 129.183  0.00  0.00    -0.020 C 
ATOM     12  C   LIG A   1      -6.435  -2.360 127.918  0.00  0.00    +0.014 C 
ATOM     13  C   LIG A   1      -7.364  -1.640 126.926  0.00  0.00    +0.024 C 
ATOM     14  C   LIG A   1      -8.038  -0.539 127.779  0.00  0.00    +0.010 C 
ATOM     15  C   LIG A   1      -8.609  -3.275 128.846  0.00  0.00    +0.010 C 
ATOM     16  C   LIG A   1      -8.753  -3.730 127.383  0.00  0.00    +0.038 C 
ATOM     17  C   LIG A   1      -8.361  -2.670 126.337  0.00  0.00    +0.092 C 
ATOM     18  C   LIG A   1      -7.694  -2.939 131.652  0.00  0.00    +0.012 C 
ENDROOT
BRANCH   1  19
ATOM     19  O   LIG A   1      -3.079  -3.838 130.699  0.00  0.00    -0.391 OA
ATOM     20  H   LIG A   1      -3.337  -3.147 130.064  0.00  0.00    +0.210 HD
ENDBRANCH   1  19
BRANCH  17  21
ATOM     21  O   LIG A   1      -9.532  -1.998 125.843  0.00  0.00    -0.386 OA
ATOM     22  H   LIG A   1      -9.947  -2.563 125.169  0.00  0.00    +0.210 HD
ENDBRANCH  17  21
BRANCH   6  23
ATOM     23  C   LIG A   1      -3.172  -1.357 131.927  0.00  0.00    +0.165 C 
BRANCH  23  24
ATOM     24  O   LIG A   1      -2.072  -1.852 132.687  0.00  0.00    -0.394 OA
ATOM     25  H   LIG A   1      -1.606  -1.061 133.015  0.00  0.00    +0.209 HD
ENDBRANCH  23  24
ENDBRANCH   6  23
BRANCH  17  26
ATOM     26  C   LIG A   1      -7.762  -3.381 125.096  0.00  0.00    +0.190 C 
BRANCH  26  27
ATOM     27  O   LIG A   1      -8.795  -3.731 124.175  0.00  0.00    -0.392 OA
ATOM     28  H   LIG A   1      -8.320  -4.000 123.363  0.00  0.00    +0.209 HD
ENDBRANCH  26  27
ENDBRANCH  17  26
TORSDOF 6
ENDMDL
MODEL 3
REMARK VINA RESULT:      -6.9      2.981      6.439
REMARK  Name = NuBBE_514
REMARK  8 active torsions:
REMARK  status: ('A' for Active; 'I' for Inactive)
REMARK    1  A    between atoms: O_1  and  C_2
REMARK    2  A    between atoms: C_6  and  C_27
REMARK    3  A    between atoms: C_9  and  C_10
REMARK    4  A    between atoms: C_9  and  C_12
REMARK    5  A    between atoms: C_10  and  O_11
REMARK    6  A    between atoms: C_23  and  C_24
REMARK    7  A    between atoms: C_23  and  O_26
REMARK    8  A    between atoms: C_24  and  O_25
REMARK                            x       y       z     vdW  Elec       q    Type
REMARK                         _______ _______ _______ _____ _____    ______ ____
ROOT
ATOM      1  C   LIG A   1      -8.677  -2.851 125.560  0.00  0.00    +0.123 C 
ATOM      2  C   LIG A   1      -7.771  -2.625 126.770  0.00  0.00    +0.032 C 
ATOM      3  C   LIG A   1      -7.517  -1.138 127.021  0.00  0.00    +0.010 C 
ATOM      4  C   LIG A   1      -6.849  -0.414 125.823  0.00  0.00    -0.023 C 
ATOM      5  C   LIG A   1      -7.697  -0.708 124.523  0.00  0.00    +0.006 C 
ATOM      6  C   LIG A   1      -8.142  -2.203 124.250  0.00  0.00    +0.020 C 
ATOM      7  C   LIG A   1      -7.027  -3.103 123.669  0.00  0.00    +0.016 C 
ATOM      8  C   LIG A   1      -7.057  -0.012 123.305  0.00  0.00    +0.005 C 
ATOM      9  C   LIG A   1      -7.004   1.496 123.504  0.00  0.00    +0.004 C 
ATOM     10  C   LIG A   1      -6.329   1.939 124.813  0.00  0.00    -0.004 C 
ATOM     11  C   LIG A   1      -6.784   1.161 126.089  0.00  0.00    -0.020 C 
ATOM     12  C   LIG A   1      -8.139   1.866 126.344  0.00  0.00    +0.014 C 
ATOM     13  C   LIG A   1      -7.720   3.345 126.286  0.00  0.00    +0.024 C 
ATOM     14  C   LIG A   1      -6.710   3.399 125.114  0.00  0.00    +0.010 C 
ATOM     15  C   LIG A   1      -5.803   1.538 127.274  0.00  0.00    +0.010 C 
ATOM     16  C   LIG A   1      -6.327   2.577 128.281  0.00  0.00    +0.038 C 
ATOM     17  C   LIG A   1      -7.110   3.746 127.653  0.00  0.00    +0.092 C 
ATOM     18  C   LIG A   1      -5.387  -0.936 125.684  0.00  0.00    +0.012 C 
ENDROOT
BRANCH   1  19
ATOM     19  O   LIG A   1      -9.976  -2.326 125.862  0.00  0.00    -0.391 OA
ATOM     20  H   LIG A   1     -10.513  -3.053 126.221  0.00  0.00    +0.210 HD
ENDBRANCH   1  19
BRANCH  17  21
ATOM     21  O   LIG A   1      -6.256   4.892 127.496  0.00  0.00    -0.386 OA
ATOM     22  H   LIG A   1      -5.649   4.927 128.255  0.00  0.00    +0.210 HD
ENDBRANCH  17  21
BRANCH   6  23
ATOM     23  C   LIG A   1      -9.287  -2.185 123.182  0.00  0.00    +0.165 C 
BRANCH  23  24
ATOM     24  O   LIG A   1     -10.115  -3.343 123.264  0.00  0.00    -0.394 OA
ATOM     25  H   LIG A   1      -9.667  -4.021 122.726  0.00  0.00    +0.209 HD
ENDBRANCH  23  24
ENDBRANCH   6  23
BRANCH  17  26
ATOM     26  C   LIG A   1      -8.210   4.208 128.642  0.00  0.00    +0.190 C 
BRANCH  26  27
ATOM     27  O   LIG A   1      -8.943   5.304 128.096  0.00  0.00    -0.392 OA
ATOM     28  H   LIG A   1      -8.275   5.831 127.614  0.00  0.00    +0.209 HD
ENDBRANCH  26  27
ENDBRANCH  17  26
TORSDOF 6
ENDMDL
MODEL 4
REMARK VINA RESULT:      -6.9      3.090      4.204
REMARK  Name = NuBBE_514
REMARK  8 active torsions:
REMARK  status: ('A' for Active; 'I' for Inactive)
REMARK    1  A    between atoms: O_1  and  C_2
REMARK    2  A    between atoms: C_6  and  C_27
REMARK    3  A    between atoms: C_9  and  C_10
REMARK    4  A    between atoms: C_9  and  C_12
REMARK    5  A    between atoms: C_10  and  O_11
REMARK    6  A    between atoms: C_23  and  C_24
REMARK    7  A    between atoms: C_23  and  O_26
REMARK    8  A    between atoms: C_24  and  O_25
REMARK                            x       y       z     vdW  Elec       q    Type
REMARK                         _______ _______ _______ _____ _____    ______ ____
ROOT
ATOM      1  C   LIG A   1      -7.293   4.236 125.871  0.00  0.00    +0.123 C 
ATOM      2  C   LIG A   1      -6.399   3.592 124.812  0.00  0.00    +0.032 C 
ATOM      3  C   LIG A   1      -6.694   2.100 124.647  0.00  0.00    +0.010 C 
ATOM      4  C   LIG A   1      -6.497   1.285 125.952  0.00  0.00    -0.023 C 
ATOM      5  C   LIG A   1      -7.323   1.977 127.107  0.00  0.00    +0.006 C 
ATOM      6  C   LIG A   1      -7.203   3.549 127.264  0.00  0.00    +0.020 C 
ATOM      7  C   LIG A   1      -5.910   4.021 127.970  0.00  0.00    +0.016 C 
ATOM      8  C   LIG A   1      -7.144   1.199 128.425  0.00  0.00    +0.005 C 
ATOM      9  C   LIG A   1      -7.637  -0.234 128.285  0.00  0.00    +0.004 C 
ATOM     10  C   LIG A   1      -7.026  -1.001 127.101  0.00  0.00    -0.004 C 
ATOM     11  C   LIG A   1      -6.997  -0.220 125.749  0.00  0.00    -0.020 C 
ATOM     12  C   LIG A   1      -8.476  -0.396 125.326  0.00  0.00    +0.014 C 
ATOM     13  C   LIG A   1      -8.654  -1.915 125.491  0.00  0.00    +0.024 C 
ATOM     14  C   LIG A   1      -7.888  -2.239 126.796  0.00  0.00    +0.010 C 
ATOM     15  C   LIG A   1      -6.094  -1.029 124.730  0.00  0.00    +0.010 C 
ATOM     16  C   LIG A   1      -6.844  -1.883 123.692  0.00  0.00    +0.038 C 
ATOM     17  C   LIG A   1      -8.078  -2.625 124.239  0.00  0.00    +0.092 C 
ATOM     18  C   LIG A   1      -4.975   1.242 126.281  0.00  0.00    +0.012 C 
ENDROOT
BRANCH   1  19
ATOM     19  O   LIG A   1      -8.647   4.202 125.404  0.00  0.00    -0.391 OA
ATOM     20  H   LIG A   1      -8.672   4.644 124.537  0.00  0.00    +0.210 HD
ENDBRANCH   1  19
BRANCH  17  21
ATOM     21  O   LIG A   1      -7.743  -3.988 124.553  0.00  0.00    -0.386 OA
ATOM     22  H   LIG A   1      -8.541  -4.429 124.890  0.00  0.00    +0.210 HD
ENDBRANCH  17  21
BRANCH   6  23
ATOM     23  C   LIG A   1      -8.391   4.042 128.158  0.00  0.00    +0.165 C 
BRANCH  23  24
ATOM     24  O   LIG A   1      -8.773   5.380 127.849  0.00  0.00    -0.394 OA
ATOM     25  H   LIG A   1      -9.571   5.552 128.383  0.00  0.00    +0.209 HD
ENDBRANCH  23  24
ENDBRANCH   6  23
BRANCH  17  26
ATOM     26  C   LIG A   1      -9.144  -2.731 123.118  0.00  0.00    +0.190 C 
BRANCH  26  27
ATOM     27  O   LIG A   1     -10.212  -3.587 123.524  0.00  0.00    -0.392 OA
ATOM     28  H   LIG A   1      -9.974  -3.863 124.432  0.00  0.00    +0.209 HD
ENDBRANCH  26  27
ENDBRANCH  17  26
TORSDOF 6
ENDMDL
MODEL 5
REMARK VINA RESULT:      -6.7      5.864      8.398
REMARK  Name = NuBBE_514
REMARK  8 active torsions:
REMARK  status: ('A' for Active; 'I' for Inactive)
REMARK    1  A    between atoms: O_1  and  C_2
REMARK    2  A    between atoms: C_6  and  C_27
REMARK    3  A    between atoms: C_9  and  C_10
REMARK    4  A    between atoms: C_9  and  C_12
REMARK    5  A    between atoms: C_10  and  O_11
REMARK    6  A    between atoms: C_23  and  C_24
REMARK    7  A    between atoms: C_23  and  O_26
REMARK    8  A    between atoms: C_24  and  O_25
REMARK                            x       y       z     vdW  Elec       q    Type
REMARK                         _______ _______ _______ _____ _____    ______ ____
ROOT
ATOM      1  C   LIG A   1      -5.120   4.174 127.757  0.00  0.00    +0.123 C 
ATOM      2  C   LIG A   1      -6.316   3.225 127.691  0.00  0.00    +0.032 C 
ATOM      3  C   LIG A   1      -7.518   3.766 128.466  0.00  0.00    +0.010 C 
ATOM      4  C   LIG A   1      -7.224   4.009 129.969  0.00  0.00    -0.023 C 
ATOM      5  C   LIG A   1      -5.929   4.904 130.091  0.00  0.00    +0.006 C 
ATOM      6  C   LIG A   1      -4.672   4.513 129.209  0.00  0.00    +0.020 C 
ATOM      7  C   LIG A   1      -3.848   3.328 129.765  0.00  0.00    +0.016 C 
ATOM      8  C   LIG A   1      -5.598   5.159 131.575  0.00  0.00    +0.005 C 
ATOM      9  C   LIG A   1      -6.740   5.885 132.271  0.00  0.00    +0.004 C 
ATOM     10  C   LIG A   1      -8.111   5.204 132.117  0.00  0.00    -0.004 C 
ATOM     11  C   LIG A   1      -8.462   4.742 130.667  0.00  0.00    -0.020 C 
ATOM     12  C   LIG A   1      -8.877   6.106 130.062  0.00  0.00    +0.014 C 
ATOM     13  C   LIG A   1      -9.874   6.609 131.120  0.00  0.00    +0.024 C 
ATOM     14  C   LIG A   1      -9.222   6.210 132.466  0.00  0.00    +0.010 C 
ATOM     15  C   LIG A   1      -9.751   3.825 130.739  0.00  0.00    +0.010 C 
ATOM     16  C   LIG A   1     -11.081   4.496 130.355  0.00  0.00    +0.038 C 
ATOM     17  C   LIG A   1     -11.248   5.938 130.870  0.00  0.00    +0.092 C 
ATOM     18  C   LIG A   1      -7.034   2.627 130.663  0.00  0.00    +0.012 C 
ENDROOT
BRANCH   1  19
ATOM     19  O   LIG A   1      -5.461   5.382 127.065  0.00  0.00    -0.391 OA
ATOM     20  H   LIG A   1      -6.239   5.196 126.511  0.00  0.00    +0.210 HD
ENDBRANCH   1  19
BRANCH  17  21
ATOM     21  O   LIG A   1     -12.031   5.950 132.077  0.00  0.00    -0.386 OA
ATOM     22  H   LIG A   1     -12.967   6.042 131.832  0.00  0.00    +0.210 HD
ENDBRANCH  17  21
BRANCH   6  23
ATOM     23  C   LIG A   1      -3.700   5.739 129.173  0.00  0.00    +0.165 C 
BRANCH  23  24
ATOM     24  O   LIG A   1      -4.395   6.969 128.981  0.00  0.00    -0.394 OA
ATOM     25  H   LIG A   1      -3.994   7.373 128.189  0.00  0.00    +0.209 HD
ENDBRANCH  23  24
ENDBRANCH   6  23
BRANCH  17  26
ATOM     26  C   LIG A   1     -12.088   6.747 129.849  0.00  0.00    +0.190 C 
BRANCH  26  27
ATOM     27  O   LIG A   1     -12.062   6.113 128.569  0.00  0.00    -0.392 OA
ATOM     28  H   LIG A   1     -12.880   6.419 128.127  0.00  0.00    +0.209 HD
ENDBRANCH  26  27
ENDBRANCH  17  26
TORSDOF 6
ENDMDL
MODEL 6
REMARK VINA RESULT:      -6.7      1.652      2.065
REMARK  Name = NuBBE_514
REMARK  8 active torsions:
REMARK  status: ('A' for Active; 'I' for Inactive)
REMARK    1  A    between atoms: O_1  and  C_2
REMARK    2  A    between atoms: C_6  and  C_27
REMARK    3  A    between atoms: C_9  and  C_10
REMARK    4  A    between atoms: C_9  and  C_12
REMARK    5  A    between atoms: C_10  and  O_11
REMARK    6  A    between atoms: C_23  and  C_24
REMARK    7  A    between atoms: C_23  and  O_26
REMARK    8  A    between atoms: C_24  and  O_25
REMARK                            x       y       z     vdW  Elec       q    Type
REMARK                         _______ _______ _______ _____ _____    ______ ____
ROOT
ATOM      1  C   LIG A   1      -7.459   2.438 129.080  0.00  0.00    +0.123 C 
ATOM      2  C   LIG A   1      -6.424   2.166 127.990  0.00  0.00    +0.032 C 
ATOM      3  C   LIG A   1      -6.741   0.891 127.207  0.00  0.00    +0.010 C 
ATOM      4  C   LIG A   1      -6.797  -0.380 128.095  0.00  0.00    -0.023 C 
ATOM      5  C   LIG A   1      -7.781  -0.108 129.301  0.00  0.00    +0.006 C 
ATOM      6  C   LIG A   1      -7.632   1.261 130.084  0.00  0.00    +0.020 C 
ATOM      7  C   LIG A   1      -6.461   1.292 131.094  0.00  0.00    +0.016 C 
ATOM      8  C   LIG A   1      -7.856  -1.348 130.213  0.00  0.00    +0.005 C 
ATOM      9  C   LIG A   1      -8.371  -2.558 129.448  0.00  0.00    +0.004 C 
ATOM     10  C   LIG A   1      -7.596  -2.867 128.156  0.00  0.00    -0.004 C 
ATOM     11  C   LIG A   1      -7.311  -1.632 127.243  0.00  0.00    -0.020 C 
ATOM     12  C   LIG A   1      -8.703  -1.482 126.581  0.00  0.00    +0.014 C 
ATOM     13  C   LIG A   1      -8.961  -2.921 126.103  0.00  0.00    +0.024 C 
ATOM     14  C   LIG A   1      -8.440  -3.798 127.267  0.00  0.00    +0.010 C 
ATOM     15  C   LIG A   1      -6.279  -2.072 126.125  0.00  0.00    +0.010 C 
ATOM     16  C   LIG A   1      -6.874  -2.380 124.740  0.00  0.00    +0.038 C 
ATOM     17  C   LIG A   1      -8.209  -3.147 124.767  0.00  0.00    +0.092 C 
ATOM     18  C   LIG A   1      -5.355  -0.699 128.592  0.00  0.00    +0.012 C 
ENDROOT
BRANCH   1  19
ATOM     19  O   LIG A   1      -8.716   2.722 128.452  0.00  0.00    -0.391 OA
ATOM     20  H   LIG A   1      -9.396   2.184 128.893  0.00  0.00    +0.210 HD
ENDBRANCH   1  19
BRANCH  17  21
ATOM     21  O   LIG A   1      -7.982  -4.552 124.559  0.00  0.00    -0.386 OA
ATOM     22  H   LIG A   1      -8.844  -4.998 124.518  0.00  0.00    +0.210 HD
ENDBRANCH  17  21
BRANCH   6  23
ATOM     23  C   LIG A   1      -8.934   1.488 130.922  0.00  0.00    +0.165 C 
BRANCH  23  24
ATOM     24  O   LIG A   1      -9.036   2.826 131.403  0.00  0.00    -0.394 OA
ATOM     25  H   LIG A   1      -8.169   3.235 131.220  0.00  0.00    +0.209 HD
ENDBRANCH  23  24
ENDBRANCH   6  23
BRANCH  17  26
ATOM     26  C   LIG A   1      -9.072  -2.705 123.558  0.00  0.00    +0.190 C 
BRANCH  26  27
ATOM     27  O   LIG A   1     -10.229  -3.533 123.442  0.00  0.00    -0.392 OA
ATOM     28  H   LIG A   1      -9.883  -4.399 123.147  0.00  0.00    +0.209 HD
ENDBRANCH  26  27
ENDBRANCH  17  26
TORSDOF 6
ENDMDL
MODEL 7
REMARK VINA RESULT:      -6.7      1.996      6.175
REMARK  Name = NuBBE_514
REMARK  8 active torsions:
REMARK  status: ('A' for Active; 'I' for Inactive)
REMARK    1  A    between atoms: O_1  and  C_2
REMARK    2  A    between atoms: C_6  and  C_27
REMARK    3  A    between atoms: C_9  and  C_10
REMARK    4  A    between atoms: C_9  and  C_12
REMARK    5  A    between atoms: C_10  and  O_11
REMARK    6  A    between atoms: C_23  and  C_24
REMARK    7  A    between atoms: C_23  and  O_26
REMARK    8  A    between atoms: C_24  and  O_25
REMARK                            x       y       z     vdW  Elec       q    Type
REMARK                         _______ _______ _______ _____ _____    ______ ____
ROOT
ATOM      1  C   LIG A   1      -6.470  -1.075 124.129  0.00  0.00    +0.123 C 
ATOM      2  C   LIG A   1      -6.002   0.050 125.051  0.00  0.00    +0.032 C 
ATOM      3  C   LIG A   1      -5.761  -0.444 126.478  0.00  0.00    +0.010 C 
ATOM      4  C   LIG A   1      -7.021  -1.064 127.137  0.00  0.00    -0.023 C 
ATOM      5  C   LIG A   1      -7.604  -2.167 126.168  0.00  0.00    +0.006 C 
ATOM      6  C   LIG A   1      -7.751  -1.802 124.633  0.00  0.00    +0.020 C 
ATOM      7  C   LIG A   1      -8.983  -0.927 124.303  0.00  0.00    +0.016 C 
ATOM      8  C   LIG A   1      -8.866  -2.801 126.785  0.00  0.00    +0.005 C 
ATOM      9  C   LIG A   1      -8.547  -3.464 128.118  0.00  0.00    +0.004 C 
ATOM     10  C   LIG A   1      -7.836  -2.547 129.127  0.00  0.00    -0.004 C 
ATOM     11  C   LIG A   1      -6.646  -1.719 128.547  0.00  0.00    -0.020 C 
ATOM     12  C   LIG A   1      -5.561  -2.824 128.520  0.00  0.00    +0.014 C 
ATOM     13  C   LIG A   1      -5.666  -3.378 129.950  0.00  0.00    +0.024 C 
ATOM     14  C   LIG A   1      -7.188  -3.407 130.227  0.00  0.00    +0.010 C 
ATOM     15  C   LIG A   1      -6.222  -0.640 129.625  0.00  0.00    +0.010 C 
ATOM     16  C   LIG A   1      -4.978  -0.976 130.466  0.00  0.00    +0.038 C 
ATOM     17  C   LIG A   1      -4.876  -2.449 130.906  0.00  0.00    +0.092 C 
ATOM     18  C   LIG A   1      -8.052   0.074 127.397  0.00  0.00    +0.012 C 
ENDROOT
BRANCH   1  19
ATOM     19  O   LIG A   1      -5.403  -2.022 123.991  0.00  0.00    -0.391 OA
ATOM     20  H   LIG A   1      -5.437  -2.620 124.758  0.00  0.00    +0.210 HD
ENDBRANCH   1  19
BRANCH  17  21
ATOM     21  O   LIG A   1      -5.356  -2.602 132.253  0.00  0.00    -0.386 OA
ATOM     22  H   LIG A   1      -4.619  -2.910 132.807  0.00  0.00    +0.210 HD
ENDBRANCH  17  21
BRANCH   6  23
ATOM     23  C   LIG A   1      -7.936  -3.133 123.830  0.00  0.00    +0.165 C 
BRANCH  23  24
ATOM     24  O   LIG A   1      -7.060  -4.161 124.288  0.00  0.00    -0.394 OA
ATOM     25  H   LIG A   1      -7.567  -4.989 124.208  0.00  0.00    +0.209 HD
ENDBRANCH  23  24
ENDBRANCH   6  23
BRANCH  17  26
ATOM     26  C   LIG A   1      -3.382  -2.856 130.973  0.00  0.00    +0.190 C 
BRANCH  26  27
ATOM     27  O   LIG A   1      -2.614  -2.087 130.046  0.00  0.00    -0.392 OA
ATOM     28  H   LIG A   1      -3.264  -1.493 129.621  0.00  0.00    +0.209 HD
ENDBRANCH  26  27
ENDBRANCH  17  26
TORSDOF 6
ENDMDL
MODEL 8
REMARK VINA RESULT:      -6.5      3.582      5.617
REMARK  Name = NuBBE_514
REMARK  8 active torsions:
REMARK  status: ('A' for Active; 'I' for Inactive)
REMARK    1  A    between atoms: O_1  and  C_2
REMARK    2  A    between atoms: C_6  and  C_27
REMARK    3  A    between atoms: C_9  and  C_10
REMARK    4  A    between atoms: C_9  and  C_12
REMARK    5  A    between atoms: C_10  and  O_11
REMARK    6  A    between atoms: C_23  and  C_24
REMARK    7  A    between atoms: C_23  and  O_26
REMARK    8  A    between atoms: C_24  and  O_25
REMARK                            x       y       z     vdW  Elec       q    Type
REMARK                         _______ _______ _______ _____ _____    ______ ____
ROOT
ATOM      1  C   LIG A   1      -4.251   3.014 128.315  0.00  0.00    +0.123 C 
ATOM      2  C   LIG A   1      -5.646   2.717 128.864  0.00  0.00    +0.032 C 
ATOM      3  C   LIG A   1      -6.513   1.973 127.848  0.00  0.00    +0.010 C 
ATOM      4  C   LIG A   1      -6.714   2.751 126.521  0.00  0.00    -0.023 C 
ATOM      5  C   LIG A   1      -5.296   3.173 125.966  0.00  0.00    +0.006 C 
ATOM      6  C   LIG A   1      -4.264   3.817 126.982  0.00  0.00    +0.020 C 
ATOM      7  C   LIG A   1      -4.531   5.307 127.300  0.00  0.00    +0.016 C 
ATOM      8  C   LIG A   1      -5.455   3.959 124.650  0.00  0.00    +0.005 C 
ATOM      9  C   LIG A   1      -6.145   3.114 123.589  0.00  0.00    +0.004 C 
ATOM     10  C   LIG A   1      -7.484   2.506 124.037  0.00  0.00    -0.004 C 
ATOM     11  C   LIG A   1      -7.470   1.838 125.449  0.00  0.00    -0.020 C 
ATOM     12  C   LIG A   1      -6.783   0.499 125.087  0.00  0.00    +0.014 C 
ATOM     13  C   LIG A   1      -7.625   0.049 123.880  0.00  0.00    +0.024 C 
ATOM     14  C   LIG A   1      -7.865   1.356 123.087  0.00  0.00    +0.010 C 
ATOM     15  C   LIG A   1      -8.967   1.526 125.863  0.00  0.00    +0.010 C 
ATOM     16  C   LIG A   1      -9.428   0.069 125.685  0.00  0.00    +0.038 C 
ATOM     17  C   LIG A   1      -8.926  -0.613 124.398  0.00  0.00    +0.092 C 
ATOM     18  C   LIG A   1      -7.609   3.993 126.809  0.00  0.00    +0.012 C 
ENDROOT
BRANCH   1  19
ATOM     19  O   LIG A   1      -3.565   1.771 128.121  0.00  0.00    -0.391 OA
ATOM     20  H   LIG A   1      -2.646   1.891 128.417  0.00  0.00    +0.210 HD
ENDBRANCH   1  19
BRANCH  17  21
ATOM     21  O   LIG A   1      -9.942  -0.569 123.381  0.00  0.00    -0.386 OA
ATOM     22  H   LIG A   1      -9.647  -1.112 122.631  0.00  0.00    +0.210 HD
ENDBRANCH  17  21
BRANCH   6  23
ATOM     23  C   LIG A   1      -2.840   3.759 126.333  0.00  0.00    +0.165 C 
BRANCH  23  24
ATOM     24  O   LIG A   1      -1.814   4.090 127.265  0.00  0.00    -0.394 OA
ATOM     25  H   LIG A   1      -1.062   3.512 127.040  0.00  0.00    +0.209 HD
ENDBRANCH  23  24
ENDBRANCH   6  23
BRANCH  17  26
ATOM     26  C   LIG A   1      -8.713  -2.123 124.676  0.00  0.00    +0.190 C 
BRANCH  26  27
ATOM     27  O   LIG A   1      -9.812  -2.883 124.173  0.00  0.00    -0.392 OA
ATOM     28  H   LIG A   1     -10.130  -3.395 124.943  0.00  0.00    +0.209 HD
ENDBRANCH  26  27
ENDBRANCH  17  26
TORSDOF 6
ENDMDL
MODEL 9
REMARK VINA RESULT:      -6.4      6.470      9.120
REMARK  Name = NuBBE_514
REMARK  8 active torsions:
REMARK  status: ('A' for Active; 'I' for Inactive)
REMARK    1  A    between atoms: O_1  and  C_2
REMARK    2  A    between atoms: C_6  and  C_27
REMARK    3  A    between atoms: C_9  and  C_10
REMARK    4  A    between atoms: C_9  and  C_12
REMARK    5  A    between atoms: C_10  and  O_11
REMARK    6  A    between atoms: C_23  and  C_24
REMARK    7  A    between atoms: C_23  and  O_26
REMARK    8  A    between atoms: C_24  and  O_25
REMARK                            x       y       z     vdW  Elec       q    Type
REMARK                         _______ _______ _______ _____ _____    ______ ____
ROOT
ATOM      1  C   LIG A   1      -2.588   5.236 130.435  0.00  0.00    +0.123 C 
ATOM      2  C   LIG A   1      -2.676   4.520 131.782  0.00  0.00    +0.032 C 
ATOM      3  C   LIG A   1      -4.112   4.115 132.120  0.00  0.00    +0.010 C 
ATOM      4  C   LIG A   1      -5.092   5.315 132.188  0.00  0.00    -0.023 C 
ATOM      5  C   LIG A   1      -4.960   6.148 130.852  0.00  0.00    +0.006 C 
ATOM      6  C   LIG A   1      -3.502   6.490 130.334  0.00  0.00    +0.020 C 
ATOM      7  C   LIG A   1      -2.822   7.664 131.077  0.00  0.00    +0.016 C 
ATOM      8  C   LIG A   1      -5.914   7.358 130.885  0.00  0.00    +0.005 C 
ATOM      9  C   LIG A   1      -7.362   6.908 131.019  0.00  0.00    +0.004 C 
ATOM     10  C   LIG A   1      -7.624   5.962 132.203  0.00  0.00    -0.004 C 
ATOM     11  C   LIG A   1      -6.595   4.797 132.361  0.00  0.00    -0.020 C 
ATOM     12  C   LIG A   1      -7.121   3.846 131.258  0.00  0.00    +0.014 C 
ATOM     13  C   LIG A   1      -8.618   3.786 131.607  0.00  0.00    +0.024 C 
ATOM     14  C   LIG A   1      -8.968   5.243 131.993  0.00  0.00    +0.010 C 
ATOM     15  C   LIG A   1      -6.842   4.107 133.765  0.00  0.00    +0.010 C 
ATOM     16  C   LIG A   1      -7.636   2.788 133.740  0.00  0.00    +0.038 C 
ATOM     17  C   LIG A   1      -8.823   2.770 132.759  0.00  0.00    +0.092 C 
ATOM     18  C   LIG A   1      -4.735   6.174 133.437  0.00  0.00    +0.012 C 
ENDROOT
BRANCH   1  19
ATOM     19  O   LIG A   1      -2.934   4.303 129.403  0.00  0.00    -0.391 OA
ATOM     20  H   LIG A   1      -2.107   3.933 129.048  0.00  0.00    +0.210 HD
ENDBRANCH   1  19
BRANCH  17  21
ATOM     21  O   LIG A   1     -10.050   3.050 133.454  0.00  0.00    -0.386 OA
ATOM     22  H   LIG A   1     -10.747   3.203 132.794  0.00  0.00    +0.210 HD
ENDBRANCH  17  21
BRANCH   6  23
ATOM     23  C   LIG A   1      -3.608   6.929 128.835  0.00  0.00    +0.165 C 
BRANCH  23  24
ATOM     24  O   LIG A   1      -2.340   6.922 128.184  0.00  0.00    -0.394 OA
ATOM     25  H   LIG A   1      -2.272   6.049 127.756  0.00  0.00    +0.209 HD
ENDBRANCH  23  24
ENDBRANCH   6  23
BRANCH  17  26
ATOM     26  C   LIG A   1      -9.003   1.331 132.209  0.00  0.00    +0.190 C 
BRANCH  26  27
ATOM     27  O   LIG A   1      -8.023   0.457 132.769  0.00  0.00    -0.392 OA
ATOM     28  H   LIG A   1      -8.009  -0.314 132.167  0.00  0.00    +0.209 HD
ENDBRANCH  26  27
ENDBRANCH  17  26
TORSDOF 6
ENDMDL
