MODEL 1
REMARK VINA RESULT:      -5.3      0.000      0.000
REMARK  Name = NuBBE_1389
REMARK  10 active torsions:
REMARK  status: ('A' for Active; 'I' for Inactive)
REMARK    1  A    between atoms: C_1  and  C_2
REMARK    2  A    between atoms: C_2  and  O_3
REMARK    3  A    between atoms: O_3  and  C_4
REMARK    4  A    between atoms: C_4  and  C_5
REMARK    5  A    between atoms: C_4  and  C_7
REMARK    6  A    between atoms: C_4  and  C_8
REMARK    7  A    between atoms: C_8  and  C_9
REMARK    8  A    between atoms: C_9  and  C_10
REMARK    9  A    between atoms: C_11  and  C_12
REMARK   10  A    between atoms: C_11  and  C_13
REMARK                            x       y       z     vdW  Elec       q    Type
REMARK                         _______ _______ _______ _____ _____    ______ ____
ROOT
ATOM      1  C   LIG A   1      -8.317  -1.050 123.906  0.00  0.00    +0.129 C 
ATOM      2  C   LIG A   1      -7.329  -0.090 123.218  0.00  0.00    +0.060 C 
ENDROOT
BRANCH   1   3
ATOM      3  C   LIG A   1      -8.734  -2.239 123.054  0.00  0.00    +0.012 C 
ATOM      4  C   LIG A   1      -9.467  -3.297 123.436  0.00  0.00    +0.008 C 
ENDBRANCH   1   3
BRANCH   1   5
ATOM      5  O   LIG A   1      -9.497  -0.321 124.342  0.00  0.00    -0.454 OA
BRANCH   5   7
ATOM      6  C   LIG A   1      -9.741   1.978 124.162  0.00  0.00    +0.136 C 
ATOM      7  C   LIG A   1     -10.064   0.637 123.562  0.00  0.00    +0.305 C 
ATOM      8  O   LIG A   1     -10.723   0.470 122.553  0.00  0.00    -0.251 OA
ENDBRANCH   5   7
ENDBRANCH   1   5
BRANCH   1   9
ATOM      9  C   LIG A   1      -7.707  -1.612 125.217  0.00  0.00    +0.056 C 
BRANCH   9  10
ATOM     10  C   LIG A   1      -6.175  -1.531 125.300  0.00  0.00    +0.031 C 
BRANCH  10  11
ATOM     11  C   LIG A   1      -5.562  -2.882 125.045  0.00  0.00    -0.028 C 
ATOM     12  C   LIG A   1      -5.114  -3.361 123.868  0.00  0.00    -0.080 C 
ATOM     13  C   LIG A   1      -5.140  -2.609 122.566  0.00  0.00    +0.038 C 
ATOM     14  C   LIG A   1      -4.564  -4.759 123.770  0.00  0.00    +0.038 C 
ENDBRANCH  10  11
ENDBRANCH   9  10
ENDBRANCH   1   9
TORSDOF 6
ENDMDL
MODEL 2
REMARK VINA RESULT:      -5.3      1.509      2.265
REMARK  Name = NuBBE_1389
REMARK  10 active torsions:
REMARK  status: ('A' for Active; 'I' for Inactive)
REMARK    1  A    between atoms: C_1  and  C_2
REMARK    2  A    between atoms: C_2  and  O_3
REMARK    3  A    between atoms: O_3  and  C_4
REMARK    4  A    between atoms: C_4  and  C_5
REMARK    5  A    between atoms: C_4  and  C_7
REMARK    6  A    between atoms: C_4  and  C_8
REMARK    7  A    between atoms: C_8  and  C_9
REMARK    8  A    between atoms: C_9  and  C_10
REMARK    9  A    between atoms: C_11  and  C_12
REMARK   10  A    between atoms: C_11  and  C_13
REMARK                            x       y       z     vdW  Elec       q    Type
REMARK                         _______ _______ _______ _____ _____    ______ ____
ROOT
ATOM      1  C   LIG A   1      -8.998  -1.380 123.234  0.00  0.00    +0.129 C 
ATOM      2  C   LIG A   1     -10.034  -0.549 122.457  0.00  0.00    +0.060 C 
ENDROOT
BRANCH   1   3
ATOM      3  C   LIG A   1      -9.552  -2.650 123.862  0.00  0.00    +0.012 C 
ATOM      4  C   LIG A   1      -8.867  -3.747 124.218  0.00  0.00    +0.008 C 
ENDBRANCH   1   3
BRANCH   1   5
ATOM      5  O   LIG A   1      -8.369  -0.560 124.258  0.00  0.00    -0.454 OA
BRANCH   5   7
ATOM      6  C   LIG A   1      -8.116  -0.735 126.557  0.00  0.00    +0.136 C 
ATOM      7  C   LIG A   1      -9.003  -0.284 125.429  0.00  0.00    +0.305 C 
ATOM      8  O   LIG A   1     -10.095   0.233 125.570  0.00  0.00    -0.251 OA
ENDBRANCH   5   7
ENDBRANCH   1   5
BRANCH   1   9
ATOM      9  C   LIG A   1      -7.826  -1.796 122.305  0.00  0.00    +0.056 C 
BRANCH   9  10
ATOM     10  C   LIG A   1      -6.430  -1.408 122.818  0.00  0.00    +0.031 C 
BRANCH  10  11
ATOM     11  C   LIG A   1      -5.518  -2.605 122.819  0.00  0.00    -0.028 C 
ATOM     12  C   LIG A   1      -5.081  -3.292 123.892  0.00  0.00    -0.080 C 
ATOM     13  C   LIG A   1      -5.443  -2.983 125.319  0.00  0.00    +0.038 C 
ATOM     14  C   LIG A   1      -4.131  -4.447 123.727  0.00  0.00    +0.038 C 
ENDBRANCH  10  11
ENDBRANCH   9  10
ENDBRANCH   1   9
TORSDOF 6
ENDMDL
MODEL 3
REMARK VINA RESULT:      -5.2      2.174      3.185
REMARK  Name = NuBBE_1389
REMARK  10 active torsions:
REMARK  status: ('A' for Active; 'I' for Inactive)
REMARK    1  A    between atoms: C_1  and  C_2
REMARK    2  A    between atoms: C_2  and  O_3
REMARK    3  A    between atoms: O_3  and  C_4
REMARK    4  A    between atoms: C_4  and  C_5
REMARK    5  A    between atoms: C_4  and  C_7
REMARK    6  A    between atoms: C_4  and  C_8
REMARK    7  A    between atoms: C_8  and  C_9
REMARK    8  A    between atoms: C_9  and  C_10
REMARK    9  A    between atoms: C_11  and  C_12
REMARK   10  A    between atoms: C_11  and  C_13
REMARK                            x       y       z     vdW  Elec       q    Type
REMARK                         _______ _______ _______ _____ _____    ______ ____
ROOT
ATOM      1  C   LIG A   1      -8.549  -1.123 124.450  0.00  0.00    +0.129 C 
ATOM      2  C   LIG A   1      -7.516  -0.926 123.327  0.00  0.00    +0.060 C 
ENDROOT
BRANCH   1   3
ATOM      3  C   LIG A   1      -9.246  -2.475 124.434  0.00  0.00    +0.012 C 
ATOM      4  C   LIG A   1      -9.479  -3.258 123.370  0.00  0.00    +0.008 C 
ENDBRANCH   1   3
BRANCH   1   5
ATOM      5  O   LIG A   1      -9.540  -0.059 124.406  0.00  0.00    -0.454 OA
BRANCH   5   7
ATOM      6  C   LIG A   1      -9.371   1.930 123.227  0.00  0.00    +0.136 C 
ATOM      7  C   LIG A   1      -9.900   0.522 123.231  0.00  0.00    +0.305 C 
ATOM      8  O   LIG A   1     -10.538   0.019 122.325  0.00  0.00    -0.251 OA
ENDBRANCH   5   7
ENDBRANCH   1   5
BRANCH   1   9
ATOM      9  C   LIG A   1      -7.879  -0.964 125.841  0.00  0.00    +0.056 C 
BRANCH   9  10
ATOM     10  C   LIG A   1      -6.990  -2.144 126.264  0.00  0.00    +0.031 C 
BRANCH  10  11
ATOM     11  C   LIG A   1      -7.033  -2.327 127.757  0.00  0.00    -0.028 C 
ATOM     12  C   LIG A   1      -7.879  -3.109 128.455  0.00  0.00    -0.080 C 
ATOM     13  C   LIG A   1      -8.954  -3.970 127.851  0.00  0.00    +0.038 C 
ATOM     14  C   LIG A   1      -7.821  -3.149 129.959  0.00  0.00    +0.038 C 
ENDBRANCH  10  11
ENDBRANCH   9  10
ENDBRANCH   1   9
TORSDOF 6
ENDMDL
MODEL 4
REMARK VINA RESULT:      -5.0      2.442      4.104
REMARK  Name = NuBBE_1389
REMARK  10 active torsions:
REMARK  status: ('A' for Active; 'I' for Inactive)
REMARK    1  A    between atoms: C_1  and  C_2
REMARK    2  A    between atoms: C_2  and  O_3
REMARK    3  A    between atoms: O_3  and  C_4
REMARK    4  A    between atoms: C_4  and  C_5
REMARK    5  A    between atoms: C_4  and  C_7
REMARK    6  A    between atoms: C_4  and  C_8
REMARK    7  A    between atoms: C_8  and  C_9
REMARK    8  A    between atoms: C_9  and  C_10
REMARK    9  A    between atoms: C_11  and  C_12
REMARK   10  A    between atoms: C_11  and  C_13
REMARK                            x       y       z     vdW  Elec       q    Type
REMARK                         _______ _______ _______ _____ _____    ______ ____
ROOT
ATOM      1  C   LIG A   1      -6.446  -2.337 124.524  0.00  0.00    +0.129 C 
ATOM      2  C   LIG A   1      -6.507  -1.319 123.371  0.00  0.00    +0.060 C 
ENDROOT
BRANCH   1   3
ATOM      3  C   LIG A   1      -5.678  -3.609 124.201  0.00  0.00    +0.012 C 
ATOM      4  C   LIG A   1      -4.534  -3.716 123.508  0.00  0.00    +0.008 C 
ENDBRANCH   1   3
BRANCH   1   5
ATOM      5  O   LIG A   1      -7.792  -2.674 124.962  0.00  0.00    -0.454 OA
BRANCH   5   7
ATOM      6  C   LIG A   1      -9.426  -3.301 123.441  0.00  0.00    +0.136 C 
ATOM      7  C   LIG A   1      -8.886  -2.198 124.310  0.00  0.00    +0.305 C 
ATOM      8  O   LIG A   1      -9.365  -1.084 124.394  0.00  0.00    -0.251 OA
ENDBRANCH   5   7
ENDBRANCH   1   5
BRANCH   1   9
ATOM      9  C   LIG A   1      -5.784  -1.703 125.777  0.00  0.00    +0.056 C 
BRANCH   9  10
ATOM     10  C   LIG A   1      -6.755  -1.382 126.924  0.00  0.00    +0.031 C 
BRANCH  10  11
ATOM     11  C   LIG A   1      -6.405  -2.182 128.149  0.00  0.00    -0.028 C 
ATOM     12  C   LIG A   1      -7.172  -3.104 128.763  0.00  0.00    -0.080 C 
ATOM     13  C   LIG A   1      -8.548  -3.516 128.317  0.00  0.00    +0.038 C 
ATOM     14  C   LIG A   1      -6.691  -3.790 130.014  0.00  0.00    +0.038 C 
ENDBRANCH  10  11
ENDBRANCH   9  10
ENDBRANCH   1   9
TORSDOF 6
ENDMDL
MODEL 5
REMARK VINA RESULT:      -4.9      2.892      4.619
REMARK  Name = NuBBE_1389
REMARK  10 active torsions:
REMARK  status: ('A' for Active; 'I' for Inactive)
REMARK    1  A    between atoms: C_1  and  C_2
REMARK    2  A    between atoms: C_2  and  O_3
REMARK    3  A    between atoms: O_3  and  C_4
REMARK    4  A    between atoms: C_4  and  C_5
REMARK    5  A    between atoms: C_4  and  C_7
REMARK    6  A    between atoms: C_4  and  C_8
REMARK    7  A    between atoms: C_8  and  C_9
REMARK    8  A    between atoms: C_9  and  C_10
REMARK    9  A    between atoms: C_11  and  C_12
REMARK   10  A    between atoms: C_11  and  C_13
REMARK                            x       y       z     vdW  Elec       q    Type
REMARK                         _______ _______ _______ _____ _____    ______ ____
ROOT
ATOM      1  C   LIG A   1      -8.296  -2.484 124.734  0.00  0.00    +0.129 C 
ATOM      2  C   LIG A   1      -8.800  -2.865 123.331  0.00  0.00    +0.060 C 
ENDROOT
BRANCH   1   3
ATOM      3  C   LIG A   1      -9.033  -1.317 125.373  0.00  0.00    +0.012 C 
ATOM      4  C   LIG A   1      -9.094  -0.052 124.930  0.00  0.00    +0.008 C 
ENDBRANCH   1   3
BRANCH   1   5
ATOM      5  O   LIG A   1      -6.870  -2.198 124.690  0.00  0.00    -0.454 OA
BRANCH   5   7
ATOM      6  C   LIG A   1      -5.186  -3.000 123.313  0.00  0.00    +0.136 C 
ATOM      7  C   LIG A   1      -6.237  -1.942 123.514  0.00  0.00    +0.305 C 
ATOM      8  O   LIG A   1      -6.458  -1.029 122.743  0.00  0.00    -0.251 OA
ENDBRANCH   5   7
ENDBRANCH   1   5
BRANCH   1   9
ATOM      9  C   LIG A   1      -8.414  -3.691 125.702  0.00  0.00    +0.056 C 
BRANCH   9  10
ATOM     10  C   LIG A   1      -9.289  -3.438 126.941  0.00  0.00    +0.031 C 
BRANCH  10  11
ATOM     11  C   LIG A   1      -8.541  -3.799 128.196  0.00  0.00    -0.028 C 
ATOM     12  C   LIG A   1      -7.810  -2.974 128.970  0.00  0.00    -0.080 C 
ATOM     13  C   LIG A   1      -7.611  -1.505 128.717  0.00  0.00    +0.038 C 
ATOM     14  C   LIG A   1      -7.083  -3.502 130.178  0.00  0.00    +0.038 C 
ENDBRANCH  10  11
ENDBRANCH   9  10
ENDBRANCH   1   9
TORSDOF 6
ENDMDL
MODEL 6
REMARK VINA RESULT:      -4.9      8.388     11.690
REMARK  Name = NuBBE_1389
REMARK  10 active torsions:
REMARK  status: ('A' for Active; 'I' for Inactive)
REMARK    1  A    between atoms: C_1  and  C_2
REMARK    2  A    between atoms: C_2  and  O_3
REMARK    3  A    between atoms: O_3  and  C_4
REMARK    4  A    between atoms: C_4  and  C_5
REMARK    5  A    between atoms: C_4  and  C_7
REMARK    6  A    between atoms: C_4  and  C_8
REMARK    7  A    between atoms: C_8  and  C_9
REMARK    8  A    between atoms: C_9  and  C_10
REMARK    9  A    between atoms: C_11  and  C_12
REMARK   10  A    between atoms: C_11  and  C_13
REMARK                            x       y       z     vdW  Elec       q    Type
REMARK                         _______ _______ _______ _____ _____    ______ ____
ROOT
ATOM      1  C   LIG A   1      -9.507   5.797 131.679  0.00  0.00    +0.129 C 
ATOM      2  C   LIG A   1      -8.621   6.895 131.065  0.00  0.00    +0.060 C 
ENDROOT
BRANCH   1   3
ATOM      3  C   LIG A   1      -8.963   5.197 132.967  0.00  0.00    +0.012 C 
ATOM      4  C   LIG A   1      -9.238   3.988 133.481  0.00  0.00    +0.008 C 
ENDBRANCH   1   3
BRANCH   1   5
ATOM      5  O   LIG A   1      -9.739   4.742 130.706  0.00  0.00    -0.454 OA
BRANCH   5   7
ATOM      6  C   LIG A   1      -7.930   3.547 129.883  0.00  0.00    +0.136 C 
ATOM      7  C   LIG A   1      -8.954   4.613 129.603  0.00  0.00    +0.305 C 
ATOM      8  O   LIG A   1      -9.038   5.237 128.563  0.00  0.00    -0.251 OA
ENDBRANCH   5   7
ENDBRANCH   1   5
BRANCH   1   9
ATOM      9  C   LIG A   1     -10.924   6.350 131.989  0.00  0.00    +0.056 C 
BRANCH   9  10
ATOM     10  C   LIG A   1     -11.926   6.238 130.829  0.00  0.00    +0.031 C 
BRANCH  10  11
ATOM     11  C   LIG A   1     -12.589   7.565 130.577  0.00  0.00    -0.028 C 
ATOM     12  C   LIG A   1     -12.265   8.469 129.633  0.00  0.00    -0.080 C 
ATOM     13  C   LIG A   1     -11.158   8.306 128.628  0.00  0.00    +0.038 C 
ATOM     14  C   LIG A   1     -13.004   9.777 129.539  0.00  0.00    +0.038 C 
ENDBRANCH  10  11
ENDBRANCH   9  10
ENDBRANCH   1   9
TORSDOF 6
ENDMDL
MODEL 7
REMARK VINA RESULT:      -4.9      2.608      3.795
REMARK  Name = NuBBE_1389
REMARK  10 active torsions:
REMARK  status: ('A' for Active; 'I' for Inactive)
REMARK    1  A    between atoms: C_1  and  C_2
REMARK    2  A    between atoms: C_2  and  O_3
REMARK    3  A    between atoms: O_3  and  C_4
REMARK    4  A    between atoms: C_4  and  C_5
REMARK    5  A    between atoms: C_4  and  C_7
REMARK    6  A    between atoms: C_4  and  C_8
REMARK    7  A    between atoms: C_8  and  C_9
REMARK    8  A    between atoms: C_9  and  C_10
REMARK    9  A    between atoms: C_11  and  C_12
REMARK   10  A    between atoms: C_11  and  C_13
REMARK                            x       y       z     vdW  Elec       q    Type
REMARK                         _______ _______ _______ _____ _____    ______ ____
ROOT
ATOM      1  C   LIG A   1      -7.757  -2.580 124.533  0.00  0.00    +0.129 C 
ATOM      2  C   LIG A   1      -6.294  -2.821 124.118  0.00  0.00    +0.060 C 
ENDROOT
BRANCH   1   3
ATOM      3  C   LIG A   1      -8.743  -2.554 123.375  0.00  0.00    +0.012 C 
ATOM      4  C   LIG A   1      -9.763  -3.397 123.155  0.00  0.00    +0.008 C 
ENDBRANCH   1   3
BRANCH   1   5
ATOM      5  O   LIG A   1      -7.862  -1.345 125.295  0.00  0.00    -0.454 OA
BRANCH   5   7
ATOM      6  C   LIG A   1      -9.438   0.355 125.325  0.00  0.00    +0.136 C 
ATOM      7  C   LIG A   1      -8.179  -0.169 124.691  0.00  0.00    +0.305 C 
ATOM      8  O   LIG A   1      -7.572   0.386 123.795  0.00  0.00    -0.251 OA
ENDBRANCH   5   7
ENDBRANCH   1   5
BRANCH   1   9
ATOM      9  C   LIG A   1      -8.232  -3.680 125.519  0.00  0.00    +0.056 C 
BRANCH   9  10
ATOM     10  C   LIG A   1      -9.123  -3.174 126.665  0.00  0.00    +0.031 C 
BRANCH  10  11
ATOM     11  C   LIG A   1      -8.560  -3.595 127.995  0.00  0.00    -0.028 C 
ATOM     12  C   LIG A   1      -7.866  -2.832 128.862  0.00  0.00    -0.080 C 
ATOM     13  C   LIG A   1      -7.528  -1.382 128.652  0.00  0.00    +0.038 C 
ATOM     14  C   LIG A   1      -7.330  -3.419 130.140  0.00  0.00    +0.038 C 
ENDBRANCH  10  11
ENDBRANCH   9  10
ENDBRANCH   1   9
TORSDOF 6
ENDMDL
MODEL 8
REMARK VINA RESULT:      -4.9     10.080     11.192
REMARK  Name = NuBBE_1389
REMARK  10 active torsions:
REMARK  status: ('A' for Active; 'I' for Inactive)
REMARK    1  A    between atoms: C_1  and  C_2
REMARK    2  A    between atoms: C_2  and  O_3
REMARK    3  A    between atoms: O_3  and  C_4
REMARK    4  A    between atoms: C_4  and  C_5
REMARK    5  A    between atoms: C_4  and  C_7
REMARK    6  A    between atoms: C_4  and  C_8
REMARK    7  A    between atoms: C_8  and  C_9
REMARK    8  A    between atoms: C_9  and  C_10
REMARK    9  A    between atoms: C_11  and  C_12
REMARK   10  A    between atoms: C_11  and  C_13
REMARK                            x       y       z     vdW  Elec       q    Type
REMARK                         _______ _______ _______ _____ _____    ______ ____
ROOT
ATOM      1  C   LIG A   1     -10.914   6.376 130.013  0.00  0.00    +0.129 C 
ATOM      2  C   LIG A   1     -11.305   4.942 130.408  0.00  0.00    +0.060 C 
ENDROOT
BRANCH   1   3
ATOM      3  C   LIG A   1     -11.947   7.433 130.373  0.00  0.00    +0.012 C 
ATOM      4  C   LIG A   1     -12.851   7.383 131.363  0.00  0.00    +0.008 C 
ENDBRANCH   1   3
BRANCH   1   5
ATOM      5  O   LIG A   1     -10.625   6.439 128.588  0.00  0.00    -0.454 OA
BRANCH   5   7
ATOM      6  C   LIG A   1     -12.033   7.177 126.901  0.00  0.00    +0.136 C 
ATOM      7  C   LIG A   1     -10.928   7.542 127.854  0.00  0.00    +0.305 C 
ATOM      8  O   LIG A   1     -10.414   8.642 127.931  0.00  0.00    -0.251 OA
ENDBRANCH   5   7
ENDBRANCH   1   5
BRANCH   1   9
ATOM      9  C   LIG A   1      -9.579   6.785 130.692  0.00  0.00    +0.056 C 
BRANCH   9  10
ATOM     10  C   LIG A   1      -8.745   5.611 131.228  0.00  0.00    +0.031 C 
BRANCH  10  11
ATOM     11  C   LIG A   1      -8.240   5.914 132.613  0.00  0.00    -0.028 C 
ATOM     12  C   LIG A   1      -8.406   5.164 133.720  0.00  0.00    -0.080 C 
ATOM     13  C   LIG A   1      -9.137   3.851 133.769  0.00  0.00    +0.038 C 
ATOM     14  C   LIG A   1      -7.872   5.630 135.048  0.00  0.00    +0.038 C 
ENDBRANCH  10  11
ENDBRANCH   9  10
ENDBRANCH   1   9
TORSDOF 6
ENDMDL
MODEL 9
REMARK VINA RESULT:      -4.8      2.542      4.364
REMARK  Name = NuBBE_1389
REMARK  10 active torsions:
REMARK  status: ('A' for Active; 'I' for Inactive)
REMARK    1  A    between atoms: C_1  and  C_2
REMARK    2  A    between atoms: C_2  and  O_3
REMARK    3  A    between atoms: O_3  and  C_4
REMARK    4  A    between atoms: C_4  and  C_5
REMARK    5  A    between atoms: C_4  and  C_7
REMARK    6  A    between atoms: C_4  and  C_8
REMARK    7  A    between atoms: C_8  and  C_9
REMARK    8  A    between atoms: C_9  and  C_10
REMARK    9  A    between atoms: C_11  and  C_12
REMARK   10  A    between atoms: C_11  and  C_13
REMARK                            x       y       z     vdW  Elec       q    Type
REMARK                         _______ _______ _______ _____ _____    ______ ____
ROOT
ATOM      1  C   LIG A   1      -6.326  -1.872 124.065  0.00  0.00    +0.129 C 
ATOM      2  C   LIG A   1      -6.861  -0.745 123.163  0.00  0.00    +0.060 C 
ENDROOT
BRANCH   1   3
ATOM      3  C   LIG A   1      -5.328  -2.800 123.388  0.00  0.00    +0.012 C 
ATOM      4  C   LIG A   1      -4.855  -3.966 123.853  0.00  0.00    +0.008 C 
ENDBRANCH   1   3
BRANCH   1   5
ATOM      5  O   LIG A   1      -7.433  -2.649 124.601  0.00  0.00    -0.454 OA
BRANCH   5   7
ATOM      6  C   LIG A   1      -9.343  -3.144 123.383  0.00  0.00    +0.136 C 
ATOM      7  C   LIG A   1      -8.722  -2.255 124.425  0.00  0.00    +0.305 C 
ATOM      8  O   LIG A   1      -9.298  -1.348 124.995  0.00  0.00    -0.251 OA
ENDBRANCH   5   7
ENDBRANCH   1   5
BRANCH   1   9
ATOM      9  C   LIG A   1      -5.630  -1.282 125.320  0.00  0.00    +0.056 C 
BRANCH   9  10
ATOM     10  C   LIG A   1      -6.150   0.097 125.755  0.00  0.00    +0.031 C 
BRANCH  10  11
ATOM     11  C   LIG A   1      -5.034   0.920 126.338  0.00  0.00    -0.028 C 
ATOM     12  C   LIG A   1      -4.783   2.225 126.112  0.00  0.00    -0.080 C 
ATOM     13  C   LIG A   1      -5.599   3.117 125.217  0.00  0.00    +0.038 C 
ATOM     14  C   LIG A   1      -3.593   2.896 126.742  0.00  0.00    +0.038 C 
ENDBRANCH  10  11
ENDBRANCH   9  10
ENDBRANCH   1   9
TORSDOF 6
ENDMDL
