MODEL 1
REMARK VINA RESULT:      -6.8      0.000      0.000
REMARK  Name = NuBBE_1855
REMARK  6 active torsions:
REMARK  status: ('A' for Active; 'I' for Inactive)
REMARK    1  A    between atoms: O_1  and  C_2
REMARK    2  A    between atoms: C_4  and  C_5
REMARK    3  A    between atoms: C_6  and  C_7
REMARK    4  A    between atoms: C_9  and  O_10
REMARK    5  A    between atoms: C_11  and  O_12
REMARK    6  A    between atoms: C_16  and  O_17
REMARK                            x       y       z     vdW  Elec       q    Type
REMARK                         _______ _______ _______ _____ _____    ______ ____
ROOT
ATOM      1  C   LIG A   1     -10.648   6.969 130.665  0.00  0.00    +0.009 C 
ATOM      2  C   LIG A   1      -9.310   6.941 130.563  0.00  0.00    +0.008 C 
ENDROOT
BRANCH   1   5
ATOM      3  C   LIG A   1     -12.479   7.247 127.395  0.00  0.00    +0.121 A 
ATOM      4  C   LIG A   1     -11.664   6.766 128.418  0.00  0.00    +0.053 A 
ATOM      5  C   LIG A   1     -11.540   7.488 129.615  0.00  0.00    -0.018 A 
ATOM      6  C   LIG A   1     -12.224   8.705 129.750  0.00  0.00    +0.053 A 
ATOM      7  C   LIG A   1     -13.037   9.166 128.714  0.00  0.00    +0.121 A 
ATOM      8  C   LIG A   1     -13.171   8.442 127.536  0.00  0.00    +0.090 A 
BRANCH   3   9
ATOM      9  O   LIG A   1     -12.624   6.563 126.222  0.00  0.00    -0.507 OA
ATOM     10  H   LIG A   1     -13.383   6.927 125.739  0.00  0.00    +0.292 HD
ENDBRANCH   3   9
BRANCH   7  11
ATOM     11  O   LIG A   1     -13.719  10.344 128.818  0.00  0.00    -0.507 OA
ATOM     12  H   LIG A   1     -14.627  10.209 128.502  0.00  0.00    +0.292 HD
ENDBRANCH   7  11
ENDBRANCH   1   5
BRANCH   2  13
ATOM     13  C   LIG A   1      -8.415   6.441 131.619  0.00  0.00    -0.021 A 
ATOM     14  C   LIG A   1      -8.984   5.884 132.776  0.00  0.00    +0.057 A 
ATOM     15  C   LIG A   1      -8.159   5.432 133.801  0.00  0.00    +0.159 A 
ATOM     16  C   LIG A   1      -6.777   5.537 133.692  0.00  0.00    +0.158 A 
ATOM     17  C   LIG A   1      -6.196   6.097 132.566  0.00  0.00    +0.050 A 
ATOM     18  C   LIG A   1      -7.017   6.555 131.532  0.00  0.00    +0.012 A 
BRANCH  15  19
ATOM     19  O   LIG A   1      -8.666   4.875 134.945  0.00  0.00    -0.503 OA
ATOM     20  H   LIG A   1      -9.485   5.345 135.174  0.00  0.00    +0.292 HD
ENDBRANCH  15  19
BRANCH  16  21
ATOM     21  O   LIG A   1      -5.976   5.092 134.704  0.00  0.00    -0.503 OA
ATOM     22  H   LIG A   1      -5.321   5.806 134.830  0.00  0.00    +0.292 HD
ENDBRANCH  16  21
ENDBRANCH   2  13
TORSDOF 6
ENDMDL
MODEL 2
REMARK VINA RESULT:      -6.7      9.153     11.487
REMARK  Name = NuBBE_1855
REMARK  6 active torsions:
REMARK  status: ('A' for Active; 'I' for Inactive)
REMARK    1  A    between atoms: O_1  and  C_2
REMARK    2  A    between atoms: C_4  and  C_5
REMARK    3  A    between atoms: C_6  and  C_7
REMARK    4  A    between atoms: C_9  and  O_10
REMARK    5  A    between atoms: C_11  and  O_12
REMARK    6  A    between atoms: C_16  and  O_17
REMARK                            x       y       z     vdW  Elec       q    Type
REMARK                         _______ _______ _______ _____ _____    ______ ____
ROOT
ATOM      1  C   LIG A   1      -7.134   1.492 123.198  0.00  0.00    +0.009 C 
ATOM      2  C   LIG A   1      -6.547   2.699 123.247  0.00  0.00    +0.008 C 
ENDROOT
BRANCH   1   5
ATOM      3  C   LIG A   1      -8.788  -1.039 125.428  0.00  0.00    +0.121 A 
ATOM      4  C   LIG A   1      -8.464  -0.272 124.311  0.00  0.00    +0.053 A 
ATOM      5  C   LIG A   1      -7.434   0.677 124.386  0.00  0.00    -0.018 A 
ATOM      6  C   LIG A   1      -6.763   0.860 125.605  0.00  0.00    +0.053 A 
ATOM      7  C   LIG A   1      -7.103   0.079 126.710  0.00  0.00    +0.121 A 
ATOM      8  C   LIG A   1      -8.111  -0.872 126.629  0.00  0.00    +0.090 A 
BRANCH   3   9
ATOM      9  O   LIG A   1      -9.781  -1.975 125.383  0.00  0.00    -0.507 OA
ATOM     10  H   LIG A   1      -9.408  -2.840 125.618  0.00  0.00    +0.292 HD
ENDBRANCH   3   9
BRANCH   7  11
ATOM     11  O   LIG A   1      -6.465   0.229 127.907  0.00  0.00    -0.507 OA
ATOM     12  H   LIG A   1      -6.722   1.081 128.296  0.00  0.00    +0.292 HD
ENDBRANCH   7  11
ENDBRANCH   1   5
BRANCH   2  13
ATOM     13  C   LIG A   1      -6.229   3.507 122.059  0.00  0.00    -0.021 A 
ATOM     14  C   LIG A   1      -5.181   4.438 122.138  0.00  0.00    +0.057 A 
ATOM     15  C   LIG A   1      -4.881   5.235 121.038  0.00  0.00    +0.159 A 
ATOM     16  C   LIG A   1      -5.619   5.123 119.864  0.00  0.00    +0.158 A 
ATOM     17  C   LIG A   1      -6.667   4.223 119.770  0.00  0.00    +0.050 A 
ATOM     18  C   LIG A   1      -6.976   3.419 120.871  0.00  0.00    +0.012 A 
BRANCH  15  19
ATOM     19  O   LIG A   1      -3.864   6.151 121.063  0.00  0.00    -0.503 OA
ATOM     20  H   LIG A   1      -3.704   6.401 121.989  0.00  0.00    +0.292 HD
ENDBRANCH  15  19
BRANCH  16  21
ATOM     21  O   LIG A   1      -5.318   5.911 118.790  0.00  0.00    -0.503 OA
ATOM     22  H   LIG A   1      -5.216   6.808 119.165  0.00  0.00    +0.292 HD
ENDBRANCH  16  21
ENDBRANCH   2  13
TORSDOF 6
ENDMDL
MODEL 3
REMARK VINA RESULT:      -6.5      8.573     11.202
REMARK  Name = NuBBE_1855
REMARK  6 active torsions:
REMARK  status: ('A' for Active; 'I' for Inactive)
REMARK    1  A    between atoms: O_1  and  C_2
REMARK    2  A    between atoms: C_4  and  C_5
REMARK    3  A    between atoms: C_6  and  C_7
REMARK    4  A    between atoms: C_9  and  O_10
REMARK    5  A    between atoms: C_11  and  O_12
REMARK    6  A    between atoms: C_16  and  O_17
REMARK                            x       y       z     vdW  Elec       q    Type
REMARK                         _______ _______ _______ _____ _____    ______ ____
ROOT
ATOM      1  C   LIG A   1      -5.975   2.937 124.446  0.00  0.00    +0.009 C 
ATOM      2  C   LIG A   1      -6.567   2.770 123.253  0.00  0.00    +0.008 C 
ENDROOT
BRANCH   1   5
ATOM      3  C   LIG A   1      -7.855   1.736 127.469  0.00  0.00    +0.121 A 
ATOM      4  C   LIG A   1      -7.518   2.438 126.314  0.00  0.00    +0.053 A 
ATOM      5  C   LIG A   1      -6.316   2.159 125.647  0.00  0.00    -0.018 A 
ATOM      6  C   LIG A   1      -5.453   1.187 126.177  0.00  0.00    +0.053 A 
ATOM      7  C   LIG A   1      -5.811   0.495 127.334  0.00  0.00    +0.121 A 
ATOM      8  C   LIG A   1      -7.010   0.762 127.984  0.00  0.00    +0.090 A 
BRANCH   3   9
ATOM      9  O   LIG A   1      -9.021   1.982 128.135  0.00  0.00    -0.507 OA
ATOM     10  H   LIG A   1      -9.767   1.771 127.551  0.00  0.00    +0.292 HD
ENDBRANCH   3   9
BRANCH   7  11
ATOM     11  O   LIG A   1      -4.996  -0.459 127.871  0.00  0.00    -0.507 OA
ATOM     12  H   LIG A   1      -4.304  -0.022 128.394  0.00  0.00    +0.292 HD
ENDBRANCH   7  11
ENDBRANCH   1   5
BRANCH   2  13
ATOM     13  C   LIG A   1      -6.241   3.560 122.055  0.00  0.00    -0.021 A 
ATOM     14  C   LIG A   1      -5.186   4.485 122.124  0.00  0.00    +0.057 A 
ATOM     15  C   LIG A   1      -4.879   5.265 121.014  0.00  0.00    +0.159 A 
ATOM     16  C   LIG A   1      -5.615   5.142 119.840  0.00  0.00    +0.158 A 
ATOM     17  C   LIG A   1      -6.669   4.248 119.755  0.00  0.00    +0.050 A 
ATOM     18  C   LIG A   1      -6.986   3.461 120.867  0.00  0.00    +0.012 A 
BRANCH  15  19
ATOM     19  O   LIG A   1      -3.855   6.174 121.029  0.00  0.00    -0.503 OA
ATOM     20  H   LIG A   1      -3.442   6.151 121.909  0.00  0.00    +0.292 HD
ENDBRANCH  15  19
BRANCH  16  21
ATOM     21  O   LIG A   1      -5.306   5.913 118.756  0.00  0.00    -0.503 OA
ATOM     22  H   LIG A   1      -4.438   5.577 118.457  0.00  0.00    +0.292 HD
ENDBRANCH  16  21
ENDBRANCH   2  13
TORSDOF 6
ENDMDL
MODEL 4
REMARK VINA RESULT:      -6.4      2.410      3.474
REMARK  Name = NuBBE_1855
REMARK  6 active torsions:
REMARK  status: ('A' for Active; 'I' for Inactive)
REMARK    1  A    between atoms: O_1  and  C_2
REMARK    2  A    between atoms: C_4  and  C_5
REMARK    3  A    between atoms: C_6  and  C_7
REMARK    4  A    between atoms: C_9  and  O_10
REMARK    5  A    between atoms: C_11  and  O_12
REMARK    6  A    between atoms: C_16  and  O_17
REMARK                            x       y       z     vdW  Elec       q    Type
REMARK                         _______ _______ _______ _____ _____    ______ ____
ROOT
ATOM      1  C   LIG A   1      -8.608   6.480 131.345  0.00  0.00    +0.009 C 
ATOM      2  C   LIG A   1      -7.421   7.021 131.025  0.00  0.00    +0.008 C 
ENDROOT
BRANCH   1   5
ATOM      3  C   LIG A   1     -11.093   8.100 129.039  0.00  0.00    +0.121 A 
ATOM      4  C   LIG A   1      -9.895   7.631 129.572  0.00  0.00    +0.053 A 
ATOM      5  C   LIG A   1      -9.893   6.938 130.792  0.00  0.00    -0.018 A 
ATOM      6  C   LIG A   1     -11.106   6.752 131.472  0.00  0.00    +0.053 A 
ATOM      7  C   LIG A   1     -12.295   7.229 130.918  0.00  0.00    +0.121 A 
ATOM      8  C   LIG A   1     -12.297   7.900 129.702  0.00  0.00    +0.090 A 
BRANCH   3   9
ATOM      9  O   LIG A   1     -11.127   8.771 127.851  0.00  0.00    -0.507 OA
ATOM     10  H   LIG A   1     -11.184   8.127 127.127  0.00  0.00    +0.292 HD
ENDBRANCH   3   9
BRANCH   7  11
ATOM     11  O   LIG A   1     -13.491   7.059 131.553  0.00  0.00    -0.507 OA
ATOM     12  H   LIG A   1     -14.106   7.749 131.253  0.00  0.00    +0.292 HD
ENDBRANCH   7  11
ENDBRANCH   1   5
BRANCH   2  13
ATOM     13  C   LIG A   1      -6.136   6.578 131.590  0.00  0.00    -0.021 A 
ATOM     14  C   LIG A   1      -4.947   7.017 130.986  0.00  0.00    +0.057 A 
ATOM     15  C   LIG A   1      -3.721   6.587 131.483  0.00  0.00    +0.159 A 
ATOM     16  C   LIG A   1      -3.666   5.718 132.568  0.00  0.00    +0.158 A 
ATOM     17  C   LIG A   1      -4.827   5.261 133.169  0.00  0.00    +0.050 A 
ATOM     18  C   LIG A   1      -6.064   5.686 132.674  0.00  0.00    +0.012 A 
BRANCH  15  19
ATOM     19  O   LIG A   1      -2.534   6.994 130.934  0.00  0.00    -0.503 OA
ATOM     20  H   LIG A   1      -1.944   7.268 131.655  0.00  0.00    +0.292 HD
ENDBRANCH  15  19
BRANCH  16  21
ATOM     21  O   LIG A   1      -2.458   5.301 133.048  0.00  0.00    -0.503 OA
ATOM     22  H   LIG A   1      -2.389   5.716 133.931  0.00  0.00    +0.292 HD
ENDBRANCH  16  21
ENDBRANCH   2  13
TORSDOF 6
ENDMDL
MODEL 5
REMARK VINA RESULT:      -6.4      9.459     10.456
REMARK  Name = NuBBE_1855
REMARK  6 active torsions:
REMARK  status: ('A' for Active; 'I' for Inactive)
REMARK    1  A    between atoms: O_1  and  C_2
REMARK    2  A    between atoms: C_4  and  C_5
REMARK    3  A    between atoms: C_6  and  C_7
REMARK    4  A    between atoms: C_9  and  O_10
REMARK    5  A    between atoms: C_11  and  O_12
REMARK    6  A    between atoms: C_16  and  O_17
REMARK                            x       y       z     vdW  Elec       q    Type
REMARK                         _______ _______ _______ _____ _____    ______ ____
ROOT
ATOM      1  C   LIG A   1      -8.265  -2.833 127.777  0.00  0.00    +0.009 C 
ATOM      2  C   LIG A   1      -7.355  -2.223 128.553  0.00  0.00    +0.008 C 
ENDROOT
BRANCH   1   5
ATOM      3  C   LIG A   1      -6.896  -2.540 124.290  0.00  0.00    +0.121 A 
ATOM      4  C   LIG A   1      -6.986  -2.535 125.680  0.00  0.00    +0.053 A 
ATOM      5  C   LIG A   1      -8.194  -2.875 126.307  0.00  0.00    -0.018 A 
ATOM      6  C   LIG A   1      -9.308  -3.189 125.514  0.00  0.00    +0.053 A 
ATOM      7  C   LIG A   1      -9.195  -3.189 124.124  0.00  0.00    +0.121 A 
ATOM      8  C   LIG A   1      -7.994  -2.868 123.505  0.00  0.00    +0.090 A 
BRANCH   3   9
ATOM      9  O   LIG A   1      -5.732  -2.220 123.652  0.00  0.00    -0.507 OA
ATOM     10  H   LIG A   1      -5.096  -1.890 124.306  0.00  0.00    +0.292 HD
ENDBRANCH   3   9
BRANCH   7  11
ATOM     11  O   LIG A   1     -10.259  -3.495 123.326  0.00  0.00    -0.507 OA
ATOM     12  H   LIG A   1     -10.330  -2.825 122.626  0.00  0.00    +0.292 HD
ENDBRANCH   7  11
ENDBRANCH   1   5
BRANCH   2  13
ATOM     13  C   LIG A   1      -7.433  -2.164 130.021  0.00  0.00    -0.021 A 
ATOM     14  C   LIG A   1      -7.871  -0.974 130.624  0.00  0.00    +0.057 A 
ATOM     15  C   LIG A   1      -7.925  -0.883 132.012  0.00  0.00    +0.159 A 
ATOM     16  C   LIG A   1      -7.539  -1.959 132.804  0.00  0.00    +0.158 A 
ATOM     17  C   LIG A   1      -7.090  -3.136 132.230  0.00  0.00    +0.050 A 
ATOM     18  C   LIG A   1      -7.030  -3.236 130.836  0.00  0.00    +0.012 A 
BRANCH  15  19
ATOM     19  O   LIG A   1      -8.352   0.253 132.647  0.00  0.00    -0.503 OA
ATOM     20  H   LIG A   1      -8.391   0.970 131.992  0.00  0.00    +0.292 HD
ENDBRANCH  15  19
BRANCH  16  21
ATOM     21  O   LIG A   1      -7.595  -1.860 134.164  0.00  0.00    -0.503 OA
ATOM     22  H   LIG A   1      -7.183  -2.686 134.487  0.00  0.00    +0.292 HD
ENDBRANCH  16  21
ENDBRANCH   2  13
TORSDOF 6
ENDMDL
MODEL 6
REMARK VINA RESULT:      -6.3      1.768      7.734
REMARK  Name = NuBBE_1855
REMARK  6 active torsions:
REMARK  status: ('A' for Active; 'I' for Inactive)
REMARK    1  A    between atoms: O_1  and  C_2
REMARK    2  A    between atoms: C_4  and  C_5
REMARK    3  A    between atoms: C_6  and  C_7
REMARK    4  A    between atoms: C_9  and  O_10
REMARK    5  A    between atoms: C_11  and  O_12
REMARK    6  A    between atoms: C_16  and  O_17
REMARK                            x       y       z     vdW  Elec       q    Type
REMARK                         _______ _______ _______ _____ _____    ______ ____
ROOT
ATOM      1  C   LIG A   1      -7.848   6.932 130.907  0.00  0.00    +0.009 C 
ATOM      2  C   LIG A   1      -9.104   6.610 131.256  0.00  0.00    +0.008 C 
ENDROOT
BRANCH   1   5
ATOM      3  C   LIG A   1      -5.721   5.490 133.649  0.00  0.00    +0.121 A 
ATOM      4  C   LIG A   1      -6.830   5.858 132.890  0.00  0.00    +0.053 A 
ATOM      5  C   LIG A   1      -6.656   6.532 131.672  0.00  0.00    -0.018 A 
ATOM      6  C   LIG A   1      -5.356   6.853 131.251  0.00  0.00    +0.053 A 
ATOM      7  C   LIG A   1      -4.260   6.474 132.027  0.00  0.00    +0.121 A 
ATOM      8  C   LIG A   1      -4.434   5.791 133.223  0.00  0.00    +0.090 A 
BRANCH   3   9
ATOM      9  O   LIG A   1      -5.860   4.827 134.834  0.00  0.00    -0.507 OA
ATOM     10  H   LIG A   1      -6.726   4.389 134.849  0.00  0.00    +0.292 HD
ENDBRANCH   3   9
BRANCH   7  11
ATOM     11  O   LIG A   1      -2.984   6.767 131.642  0.00  0.00    -0.507 OA
ATOM     12  H   LIG A   1      -2.978   7.637 131.210  0.00  0.00    +0.292 HD
ENDBRANCH   7  11
ENDBRANCH   1   5
BRANCH   2  13
ATOM     13  C   LIG A   1     -10.299   7.025 130.503  0.00  0.00    -0.021 A 
ATOM     14  C   LIG A   1     -10.126   7.694 129.281  0.00  0.00    +0.057 A 
ATOM     15  C   LIG A   1     -11.240   8.122 128.566  0.00  0.00    +0.159 A 
ATOM     16  C   LIG A   1     -12.522   7.902 129.058  0.00  0.00    +0.158 A 
ATOM     17  C   LIG A   1     -12.714   7.258 130.270  0.00  0.00    +0.050 A 
ATOM     18  C   LIG A   1     -11.600   6.825 130.996  0.00  0.00    +0.012 A 
BRANCH  15  19
ATOM     19  O   LIG A   1     -11.124   8.772 127.366  0.00  0.00    -0.503 OA
ATOM     20  H   LIG A   1     -12.000   9.115 127.121  0.00  0.00    +0.292 HD
ENDBRANCH  15  19
BRANCH  16  21
ATOM     21  O   LIG A   1     -13.608   8.327 128.350  0.00  0.00    -0.503 OA
ATOM     22  H   LIG A   1     -14.152   7.523 128.228  0.00  0.00    +0.292 HD
ENDBRANCH  16  21
ENDBRANCH   2  13
TORSDOF 6
ENDMDL
MODEL 7
REMARK VINA RESULT:      -6.3      3.540      7.702
REMARK  Name = NuBBE_1855
REMARK  6 active torsions:
REMARK  status: ('A' for Active; 'I' for Inactive)
REMARK    1  A    between atoms: O_1  and  C_2
REMARK    2  A    between atoms: C_4  and  C_5
REMARK    3  A    between atoms: C_6  and  C_7
REMARK    4  A    between atoms: C_9  and  O_10
REMARK    5  A    between atoms: C_11  and  O_12
REMARK    6  A    between atoms: C_16  and  O_17
REMARK                            x       y       z     vdW  Elec       q    Type
REMARK                         _______ _______ _______ _____ _____    ______ ____
ROOT
ATOM      1  C   LIG A   1      -5.817   6.134 131.354  0.00  0.00    +0.009 C 
ATOM      2  C   LIG A   1      -6.799   6.944 130.928  0.00  0.00    +0.008 C 
ENDROOT
BRANCH   1   5
ATOM      3  C   LIG A   1      -2.549   6.195 129.501  0.00  0.00    +0.121 A 
ATOM      4  C   LIG A   1      -3.900   6.023 129.794  0.00  0.00    +0.053 A 
ATOM      5  C   LIG A   1      -4.390   6.354 131.066  0.00  0.00    -0.018 A 
ATOM      6  C   LIG A   1      -3.497   6.829 132.038  0.00  0.00    +0.053 A 
ATOM      7  C   LIG A   1      -2.148   6.995 131.722  0.00  0.00    +0.121 A 
ATOM      8  C   LIG A   1      -1.668   6.683 130.457  0.00  0.00    +0.090 A 
BRANCH   3   9
ATOM      9  O   LIG A   1      -2.044   5.889 128.270  0.00  0.00    -0.507 OA
ATOM     10  H   LIG A   1      -2.733   6.038 127.602  0.00  0.00    +0.292 HD
ENDBRANCH   3   9
BRANCH   7  11
ATOM     11  O   LIG A   1      -1.256   7.461 132.644  0.00  0.00    -0.507 OA
ATOM     12  H   LIG A   1      -1.743   7.915 133.351  0.00  0.00    +0.292 HD
ENDBRANCH   7  11
ENDBRANCH   1   5
BRANCH   2  13
ATOM     13  C   LIG A   1      -8.228   6.716 131.199  0.00  0.00    -0.021 A 
ATOM     14  C   LIG A   1      -9.174   7.213 130.289  0.00  0.00    +0.057 A 
ATOM     15  C   LIG A   1     -10.532   7.036 130.539  0.00  0.00    +0.159 A 
ATOM     16  C   LIG A   1     -10.957   6.381 131.689  0.00  0.00    +0.158 A 
ATOM     17  C   LIG A   1     -10.041   5.896 132.608  0.00  0.00    +0.050 A 
ATOM     18  C   LIG A   1      -8.675   6.071 132.366  0.00  0.00    +0.012 A 
BRANCH  15  19
ATOM     19  O   LIG A   1     -11.492   7.496 129.677  0.00  0.00    -0.503 OA
ATOM     20  H   LIG A   1     -12.095   6.761 129.476  0.00  0.00    +0.292 HD
ENDBRANCH  15  19
BRANCH  16  21
ATOM     21  O   LIG A   1     -12.291   6.213 131.926  0.00  0.00    -0.503 OA
ATOM     22  H   LIG A   1     -12.355   5.340 132.362  0.00  0.00    +0.292 HD
ENDBRANCH  16  21
ENDBRANCH   2  13
TORSDOF 6
ENDMDL
MODEL 8
REMARK VINA RESULT:      -6.3      1.825      7.702
REMARK  Name = NuBBE_1855
REMARK  6 active torsions:
REMARK  status: ('A' for Active; 'I' for Inactive)
REMARK    1  A    between atoms: O_1  and  C_2
REMARK    2  A    between atoms: C_4  and  C_5
REMARK    3  A    between atoms: C_6  and  C_7
REMARK    4  A    between atoms: C_9  and  O_10
REMARK    5  A    between atoms: C_11  and  O_12
REMARK    6  A    between atoms: C_16  and  O_17
REMARK                            x       y       z     vdW  Elec       q    Type
REMARK                         _______ _______ _______ _____ _____    ______ ____
ROOT
ATOM      1  C   LIG A   1      -7.804   6.922 130.926  0.00  0.00    +0.009 C 
ATOM      2  C   LIG A   1      -9.058   6.608 131.288  0.00  0.00    +0.008 C 
ENDROOT
BRANCH   1   5
ATOM      3  C   LIG A   1      -4.194   6.506 131.883  0.00  0.00    +0.121 A 
ATOM      4  C   LIG A   1      -5.344   6.883 131.194  0.00  0.00    +0.053 A 
ATOM      5  C   LIG A   1      -6.608   6.534 131.692  0.00  0.00    -0.018 A 
ATOM      6  C   LIG A   1      -6.690   5.777 132.872  0.00  0.00    +0.053 A 
ATOM      7  C   LIG A   1      -5.525   5.412 133.546  0.00  0.00    +0.121 A 
ATOM      8  C   LIG A   1      -4.275   5.774 133.060  0.00  0.00    +0.090 A 
BRANCH   3   9
ATOM      9  O   LIG A   1      -2.951   6.838 131.426  0.00  0.00    -0.507 OA
ATOM     10  H   LIG A   1      -3.029   7.601 130.831  0.00  0.00    +0.292 HD
ENDBRANCH   3   9
BRANCH   7  11
ATOM     11  O   LIG A   1      -5.572   4.681 134.698  0.00  0.00    -0.507 OA
ATOM     12  H   LIG A   1      -6.301   4.043 134.635  0.00  0.00    +0.292 HD
ENDBRANCH   7  11
ENDBRANCH   1   5
BRANCH   2  13
ATOM     13  C   LIG A   1     -10.257   7.011 130.534  0.00  0.00    -0.021 A 
ATOM     14  C   LIG A   1     -10.090   7.699 129.322  0.00  0.00    +0.057 A 
ATOM     15  C   LIG A   1     -11.208   8.117 128.607  0.00  0.00    +0.159 A 
ATOM     16  C   LIG A   1     -12.488   7.868 129.089  0.00  0.00    +0.158 A 
ATOM     17  C   LIG A   1     -12.674   7.205 130.291  0.00  0.00    +0.050 A 
ATOM     18  C   LIG A   1     -11.557   6.782 131.017  0.00  0.00    +0.012 A 
BRANCH  15  19
ATOM     19  O   LIG A   1     -11.097   8.785 127.416  0.00  0.00    -0.503 OA
ATOM     20  H   LIG A   1     -11.977   9.115 127.170  0.00  0.00    +0.292 HD
ENDBRANCH  15  19
BRANCH  16  21
ATOM     21  O   LIG A   1     -13.578   8.283 128.381  0.00  0.00    -0.503 OA
ATOM     22  H   LIG A   1     -14.106   7.471 128.246  0.00  0.00    +0.292 HD
ENDBRANCH  16  21
ENDBRANCH   2  13
TORSDOF 6
ENDMDL
MODEL 9
REMARK VINA RESULT:      -6.3      3.555      7.726
REMARK  Name = NuBBE_1855
REMARK  6 active torsions:
REMARK  status: ('A' for Active; 'I' for Inactive)
REMARK    1  A    between atoms: O_1  and  C_2
REMARK    2  A    between atoms: C_4  and  C_5
REMARK    3  A    between atoms: C_6  and  C_7
REMARK    4  A    between atoms: C_9  and  O_10
REMARK    5  A    between atoms: C_11  and  O_12
REMARK    6  A    between atoms: C_16  and  O_17
REMARK                            x       y       z     vdW  Elec       q    Type
REMARK                         _______ _______ _______ _____ _____    ______ ____
ROOT
ATOM      1  C   LIG A   1      -5.731   5.961 130.988  0.00  0.00    +0.009 C 
ATOM      2  C   LIG A   1      -6.642   6.947 130.960  0.00  0.00    +0.008 C 
ENDROOT
BRANCH   1   5
ATOM      3  C   LIG A   1      -2.081   6.560 131.646  0.00  0.00    +0.121 A 
ATOM      4  C   LIG A   1      -3.441   6.338 131.846  0.00  0.00    +0.053 A 
ATOM      5  C   LIG A   1      -4.294   6.164 130.746  0.00  0.00    -0.018 A 
ATOM      6  C   LIG A   1      -3.760   6.247 129.451  0.00  0.00    +0.053 A 
ATOM      7  C   LIG A   1      -2.394   6.468 129.274  0.00  0.00    +0.121 A 
ATOM      8  C   LIG A   1      -1.548   6.623 130.365  0.00  0.00    +0.090 A 
BRANCH   3   9
ATOM      9  O   LIG A   1      -1.226   6.725 132.698  0.00  0.00    -0.507 OA
ATOM     10  H   LIG A   1      -1.033   7.671 132.800  0.00  0.00    +0.292 HD
ENDBRANCH   3   9
BRANCH   7  11
ATOM     11  O   LIG A   1      -1.843   6.548 128.028  0.00  0.00    -0.507 OA
ATOM     12  H   LIG A   1      -2.558   6.574 127.370  0.00  0.00    +0.292 HD
ENDBRANCH   7  11
ENDBRANCH   1   5
BRANCH   2  13
ATOM     13  C   LIG A   1      -8.082   6.743 131.184  0.00  0.00    -0.021 A 
ATOM     14  C   LIG A   1      -8.489   5.922 132.248  0.00  0.00    +0.057 A 
ATOM     15  C   LIG A   1      -9.844   5.690 132.461  0.00  0.00    +0.159 A 
ATOM     16  C   LIG A   1     -10.797   6.257 131.622  0.00  0.00    +0.158 A 
ATOM     17  C   LIG A   1     -10.417   7.057 130.557  0.00  0.00    +0.050 A 
ATOM     18  C   LIG A   1      -9.057   7.295 130.334  0.00  0.00    +0.012 A 
BRANCH  15  19
ATOM     19  O   LIG A   1     -10.291   4.904 133.489  0.00  0.00    -0.503 OA
ATOM     20  H   LIG A   1      -9.981   3.996 133.333  0.00  0.00    +0.292 HD
ENDBRANCH  15  19
BRANCH  16  21
ATOM     21  O   LIG A   1     -12.124   6.022 131.838  0.00  0.00    -0.503 OA
ATOM     22  H   LIG A   1     -12.146   5.182 132.337  0.00  0.00    +0.292 HD
ENDBRANCH  16  21
ENDBRANCH   2  13
TORSDOF 6
ENDMDL
