MODEL 1
REMARK VINA RESULT:      -7.2      0.000      0.000
REMARK  Name = NuBBE_1870
REMARK  12 active torsions:
REMARK  status: ('A' for Active; 'I' for Inactive)
REMARK    1  A    between atoms: C_1  and  O_2
REMARK    2  A    between atoms: O_2  and  C_3
REMARK    3  A    between atoms: C_4  and  C_5
REMARK    4  A    between atoms: C_7  and  O_8
REMARK    5  A    between atoms: C_9  and  O_10
REMARK    6  A    between atoms: O_10  and  C_11
REMARK    7  A    between atoms: C_12  and  O_13
REMARK    8  A    between atoms: O_13  and  C_14
REMARK    9  A    between atoms: C_19  and  O_20
REMARK   10  A    between atoms: C_21  and  O_22
REMARK   11  A    between atoms: C_23  and  O_24
REMARK   12  A    between atoms: O_24  and  C_25
REMARK                            x       y       z     vdW  Elec       q    Type
REMARK                         _______ _______ _______ _____ _____    ______ ____
ROOT
ATOM      1  C   LIG A   1      -8.332   4.647 131.587  0.00  0.00    +0.211 A 
ATOM      2  C   LIG A   1      -9.017   5.688 132.117  0.00  0.00    +0.181 A 
ATOM      3  O   LIG A   1      -8.904   6.150 133.417  0.00  0.00    -0.451 OA
ATOM      4  C   LIG A   1      -7.965   5.585 134.237  0.00  0.00    +0.147 A 
ATOM      5  C   LIG A   1      -7.171   4.519 133.833  0.00  0.00    +0.113 A 
ATOM      6  C   LIG A   1      -6.221   3.993 134.701  0.00  0.00    +0.177 A 
ATOM      7  C   LIG A   1      -6.055   4.528 135.978  0.00  0.00    +0.202 A 
ATOM      8  C   LIG A   1      -6.854   5.590 136.409  0.00  0.00    +0.169 A 
ATOM      9  C   LIG A   1      -7.803   6.120 135.520  0.00  0.00    +0.096 A 
ATOM     10  C   LIG A   1      -7.361   3.975 132.486  0.00  0.00    +0.238 A 
ATOM     11  O   LIG A   1      -6.691   2.983 132.165  0.00  0.00    -0.283 OA
ENDROOT
BRANCH   2  12
ATOM     12  C   LIG A   1     -10.037   6.413 131.343  0.00  0.00    +0.028 A 
ATOM     13  C   LIG A   1     -11.346   6.463 131.820  0.00  0.00    +0.061 A 
ATOM     14  C   LIG A   1     -12.325   7.169 131.120  0.00  0.00    +0.163 A 
ATOM     15  C   LIG A   1     -12.033   7.833 129.914  0.00  0.00    +0.203 A 
ATOM     16  C   LIG A   1     -10.704   7.796 129.437  0.00  0.00    +0.166 A 
ATOM     17  C   LIG A   1      -9.722   7.083 130.155  0.00  0.00    +0.061 A 
BRANCH  14  18
ATOM     18  O   LIG A   1     -13.575   7.233 131.677  0.00  0.00    -0.503 OA
ATOM     19  H   LIG A   1     -13.633   6.619 132.424  0.00  0.00    +0.292 HD
ENDBRANCH  14  18
BRANCH  15  20
ATOM     20  O   LIG A   1     -12.941   8.599 129.233  0.00  0.00    -0.488 OA
ATOM     21  C   LIG A   1     -13.071   9.970 129.584  0.00  0.00    +0.277 C 
ENDBRANCH  15  20
BRANCH  16  22
ATOM     22  O   LIG A   1     -10.191   8.392 128.308  0.00  0.00    -0.491 OA
ATOM     23  C   LIG A   1     -10.612   7.911 127.038  0.00  0.00    +0.277 C 
ENDBRANCH  16  22
ENDBRANCH   2  12
BRANCH   1  25
ATOM     24  C   LIG A   1      -9.359   3.148 130.027  0.00  0.00    +0.277 C 
ATOM     25  O   LIG A   1      -8.522   4.279 130.262  0.00  0.00    -0.488 OA
ENDBRANCH   1  25
BRANCH   6  26
ATOM     26  O   LIG A   1      -5.385   2.947 134.371  0.00  0.00    -0.503 OA
ATOM     27  H   LIG A   1      -5.953   2.168 134.167  0.00  0.00    +0.292 HD
ENDBRANCH   6  26
BRANCH   7  28
ATOM     28  O   LIG A   1      -5.068   3.976 136.747  0.00  0.00    -0.501 OA
ATOM     29  H   LIG A   1      -4.388   4.677 136.826  0.00  0.00    +0.292 HD
ENDBRANCH   7  28
BRANCH   8  30
ATOM     30  O   LIG A   1      -6.798   6.221 137.623  0.00  0.00    -0.491 OA
ATOM     31  C   LIG A   1      -8.031   6.715 138.137  0.00  0.00    +0.277 C 
ENDBRANCH   8  30
TORSDOF 8
ENDMDL
MODEL 2
REMARK VINA RESULT:      -7.1      6.814     10.571
REMARK  Name = NuBBE_1870
REMARK  12 active torsions:
REMARK  status: ('A' for Active; 'I' for Inactive)
REMARK    1  A    between atoms: C_1  and  O_2
REMARK    2  A    between atoms: O_2  and  C_3
REMARK    3  A    between atoms: C_4  and  C_5
REMARK    4  A    between atoms: C_7  and  O_8
REMARK    5  A    between atoms: C_9  and  O_10
REMARK    6  A    between atoms: O_10  and  C_11
REMARK    7  A    between atoms: C_12  and  O_13
REMARK    8  A    between atoms: O_13  and  C_14
REMARK    9  A    between atoms: C_19  and  O_20
REMARK   10  A    between atoms: C_21  and  O_22
REMARK   11  A    between atoms: C_23  and  O_24
REMARK   12  A    between atoms: O_24  and  C_25
REMARK                            x       y       z     vdW  Elec       q    Type
REMARK                         _______ _______ _______ _____ _____    ______ ____
ROOT
ATOM      1  C   LIG A   1      -7.429   2.342 124.381  0.00  0.00    +0.211 A 
ATOM      2  C   LIG A   1      -6.777   1.944 125.499  0.00  0.00    +0.181 A 
ATOM      3  O   LIG A   1      -6.902   0.707 126.110  0.00  0.00    -0.451 OA
ATOM      4  C   LIG A   1      -7.675  -0.248 125.507  0.00  0.00    +0.147 A 
ATOM      5  C   LIG A   1      -8.393   0.001 124.345  0.00  0.00    +0.113 A 
ATOM      6  C   LIG A   1      -9.150  -1.011 123.766  0.00  0.00    +0.177 A 
ATOM      7  C   LIG A   1      -9.194  -2.279 124.342  0.00  0.00    +0.202 A 
ATOM      8  C   LIG A   1      -8.492  -2.546 125.520  0.00  0.00    +0.169 A 
ATOM      9  C   LIG A   1      -7.722  -1.519 126.090  0.00  0.00    +0.096 A 
ATOM     10  C   LIG A   1      -8.329   1.341 123.756  0.00  0.00    +0.238 A 
ATOM     11  O   LIG A   1      -9.026   1.566 122.756  0.00  0.00    -0.283 OA
ENDROOT
BRANCH   2  12
ATOM     12  C   LIG A   1      -5.887   2.854 126.236  0.00  0.00    +0.028 A 
ATOM     13  C   LIG A   1      -6.396   3.583 127.311  0.00  0.00    +0.061 A 
ATOM     14  C   LIG A   1      -5.564   4.430 128.045  0.00  0.00    +0.163 A 
ATOM     15  C   LIG A   1      -4.206   4.591 127.720  0.00  0.00    +0.203 A 
ATOM     16  C   LIG A   1      -3.685   3.842 126.641  0.00  0.00    +0.166 A 
ATOM     17  C   LIG A   1      -4.533   2.986 125.909  0.00  0.00    +0.061 A 
BRANCH  14  18
ATOM     18  O   LIG A   1      -6.111   5.066 129.128  0.00  0.00    -0.503 OA
ATOM     19  H   LIG A   1      -5.518   5.771 129.430  0.00  0.00    +0.292 HD
ENDBRANCH  14  18
BRANCH  15  20
ATOM     20  O   LIG A   1      -3.336   5.351 128.456  0.00  0.00    -0.488 OA
ATOM     21  C   LIG A   1      -3.137   6.707 128.081  0.00  0.00    +0.277 C 
ENDBRANCH  15  20
BRANCH  16  22
ATOM     22  O   LIG A   1      -2.392   3.820 126.170  0.00  0.00    -0.491 OA
ATOM     23  C   LIG A   1      -1.489   2.865 126.715  0.00  0.00    +0.277 C 
ENDBRANCH  16  22
ENDBRANCH   2  12
BRANCH   1  25
ATOM     24  C   LIG A   1      -6.313   3.696 122.751  0.00  0.00    +0.277 C 
ATOM     25  O   LIG A   1      -7.216   3.608 123.852  0.00  0.00    -0.488 OA
ENDBRANCH   1  25
BRANCH   6  26
ATOM     26  O   LIG A   1      -9.878  -0.849 122.606  0.00  0.00    -0.503 OA
ATOM     27  H   LIG A   1     -10.297   0.042 122.642  0.00  0.00    +0.292 HD
ENDBRANCH   6  26
BRANCH   7  28
ATOM     28  O   LIG A   1      -9.929  -3.225 123.681  0.00  0.00    -0.501 OA
ATOM     29  H   LIG A   1      -9.924  -2.939 122.744  0.00  0.00    +0.292 HD
ENDBRANCH   7  28
BRANCH   8  30
ATOM     30  O   LIG A   1      -8.433  -3.740 126.190  0.00  0.00    -0.491 OA
ATOM     31  C   LIG A   1      -8.837  -3.720 127.556  0.00  0.00    +0.277 C 
ENDBRANCH   8  30
TORSDOF 8
ENDMDL
MODEL 3
REMARK VINA RESULT:      -7.0      3.970      7.632
REMARK  Name = NuBBE_1870
REMARK  12 active torsions:
REMARK  status: ('A' for Active; 'I' for Inactive)
REMARK    1  A    between atoms: C_1  and  O_2
REMARK    2  A    between atoms: O_2  and  C_3
REMARK    3  A    between atoms: C_4  and  C_5
REMARK    4  A    between atoms: C_7  and  O_8
REMARK    5  A    between atoms: C_9  and  O_10
REMARK    6  A    between atoms: O_10  and  C_11
REMARK    7  A    between atoms: C_12  and  O_13
REMARK    8  A    between atoms: O_13  and  C_14
REMARK    9  A    between atoms: C_19  and  O_20
REMARK   10  A    between atoms: C_21  and  O_22
REMARK   11  A    between atoms: C_23  and  O_24
REMARK   12  A    between atoms: O_24  and  C_25
REMARK                            x       y       z     vdW  Elec       q    Type
REMARK                         _______ _______ _______ _____ _____    ______ ____
ROOT
ATOM      1  C   LIG A   1      -7.103   4.230 130.890  0.00  0.00    +0.211 A 
ATOM      2  C   LIG A   1      -7.058   4.663 129.608  0.00  0.00    +0.181 A 
ATOM      3  O   LIG A   1      -8.070   5.341 128.949  0.00  0.00    -0.451 OA
ATOM      4  C   LIG A   1      -9.189   5.697 129.653  0.00  0.00    +0.147 A 
ATOM      5  C   LIG A   1      -9.376   5.342 130.983  0.00  0.00    +0.113 A 
ATOM      6  C   LIG A   1     -10.525   5.743 131.654  0.00  0.00    +0.177 A 
ATOM      7  C   LIG A   1     -11.495   6.504 131.004  0.00  0.00    +0.202 A 
ATOM      8  C   LIG A   1     -11.334   6.859 129.662  0.00  0.00    +0.169 A 
ATOM      9  C   LIG A   1     -10.164   6.457 128.997  0.00  0.00    +0.096 A 
ATOM     10  C   LIG A   1      -8.341   4.543 131.646  0.00  0.00    +0.238 A 
ATOM     11  O   LIG A   1      -8.552   4.179 132.811  0.00  0.00    -0.283 OA
ENDROOT
BRANCH   2  12
ATOM     12  C   LIG A   1      -5.905   4.382 128.740  0.00  0.00    +0.028 A 
ATOM     13  C   LIG A   1      -5.896   3.217 127.974  0.00  0.00    +0.061 A 
ATOM     14  C   LIG A   1      -4.827   2.942 127.120  0.00  0.00    +0.163 A 
ATOM     15  C   LIG A   1      -3.726   3.812 127.016  0.00  0.00    +0.203 A 
ATOM     16  C   LIG A   1      -3.739   5.000 127.781  0.00  0.00    +0.166 A 
ATOM     17  C   LIG A   1      -4.827   5.269 128.637  0.00  0.00    +0.061 A 
BRANCH  14  18
ATOM     18  O   LIG A   1      -4.912   1.815 126.347  0.00  0.00    -0.503 OA
ATOM     19  H   LIG A   1      -5.735   1.829 125.835  0.00  0.00    +0.292 HD
ENDBRANCH  14  18
BRANCH  15  20
ATOM     20  O   LIG A   1      -2.692   3.622 126.139  0.00  0.00    -0.488 OA
ATOM     21  C   LIG A   1      -1.522   2.961 126.601  0.00  0.00    +0.277 C 
ENDBRANCH  15  20
BRANCH  16  22
ATOM     22  O   LIG A   1      -2.793   5.997 127.813  0.00  0.00    -0.491 OA
ATOM     23  C   LIG A   1      -2.168   6.298 129.055  0.00  0.00    +0.277 C 
ENDBRANCH  16  22
ENDBRANCH   2  12
BRANCH   1  25
ATOM     24  C   LIG A   1      -5.155   4.341 132.278  0.00  0.00    +0.277 C 
ATOM     25  O   LIG A   1      -6.019   3.566 131.449  0.00  0.00    -0.488 OA
ENDBRANCH   1  25
BRANCH   6  26
ATOM     26  O   LIG A   1     -10.777   5.444 132.976  0.00  0.00    -0.503 OA
ATOM     27  H   LIG A   1     -10.927   4.473 133.037  0.00  0.00    +0.292 HD
ENDBRANCH   6  26
BRANCH   7  28
ATOM     28  O   LIG A   1     -12.571   6.891 131.755  0.00  0.00    -0.501 OA
ATOM     29  H   LIG A   1     -12.187   7.361 132.523  0.00  0.00    +0.292 HD
ENDBRANCH   7  28
BRANCH   8  30
ATOM     30  O   LIG A   1     -12.192   7.608 128.901  0.00  0.00    -0.491 OA
ATOM     31  C   LIG A   1     -13.290   6.914 128.317  0.00  0.00    +0.277 C 
ENDBRANCH   8  30
TORSDOF 8
ENDMDL
MODEL 4
REMARK VINA RESULT:      -7.0      6.634     10.558
REMARK  Name = NuBBE_1870
REMARK  12 active torsions:
REMARK  status: ('A' for Active; 'I' for Inactive)
REMARK    1  A    between atoms: C_1  and  O_2
REMARK    2  A    between atoms: O_2  and  C_3
REMARK    3  A    between atoms: C_4  and  C_5
REMARK    4  A    between atoms: C_7  and  O_8
REMARK    5  A    between atoms: C_9  and  O_10
REMARK    6  A    between atoms: O_10  and  C_11
REMARK    7  A    between atoms: C_12  and  O_13
REMARK    8  A    between atoms: O_13  and  C_14
REMARK    9  A    between atoms: C_19  and  O_20
REMARK   10  A    between atoms: C_21  and  O_22
REMARK   11  A    between atoms: C_23  and  O_24
REMARK   12  A    between atoms: O_24  and  C_25
REMARK                            x       y       z     vdW  Elec       q    Type
REMARK                         _______ _______ _______ _____ _____    ______ ____
ROOT
ATOM      1  C   LIG A   1      -6.775   2.813 124.649  0.00  0.00    +0.211 A 
ATOM      2  C   LIG A   1      -6.126   2.301 125.722  0.00  0.00    +0.181 A 
ATOM      3  O   LIG A   1      -6.318   1.036 126.252  0.00  0.00    -0.451 OA
ATOM      4  C   LIG A   1      -7.164   0.174 125.608  0.00  0.00    +0.147 A 
ATOM      5  C   LIG A   1      -7.889   0.546 124.483  0.00  0.00    +0.113 A 
ATOM      6  C   LIG A   1      -8.722  -0.375 123.858  0.00  0.00    +0.177 A 
ATOM      7  C   LIG A   1      -8.836  -1.674 124.351  0.00  0.00    +0.202 A 
ATOM      8  C   LIG A   1      -8.128  -2.063 125.490  0.00  0.00    +0.169 A 
ATOM      9  C   LIG A   1      -7.282  -1.128 126.107  0.00  0.00    +0.096 A 
ATOM     10  C   LIG A   1      -7.751   1.916 123.982  0.00  0.00    +0.238 A 
ATOM     11  O   LIG A   1      -8.453   2.251 123.017  0.00  0.00    -0.283 OA
ENDROOT
BRANCH   2  12
ATOM     12  C   LIG A   1      -5.164   3.101 126.494  0.00  0.00    +0.028 A 
ATOM     13  C   LIG A   1      -3.801   2.973 126.226  0.00  0.00    +0.061 A 
ATOM     14  C   LIG A   1      -2.870   3.743 126.924  0.00  0.00    +0.163 A 
ATOM     15  C   LIG A   1      -3.266   4.651 127.923  0.00  0.00    +0.203 A 
ATOM     16  C   LIG A   1      -4.647   4.792 128.186  0.00  0.00    +0.166 A 
ATOM     17  C   LIG A   1      -5.579   4.012 127.471  0.00  0.00    +0.061 A 
BRANCH  14  18
ATOM     18  O   LIG A   1      -1.554   3.618 126.566  0.00  0.00    -0.503 OA
ATOM     19  H   LIG A   1      -1.002   3.551 127.361  0.00  0.00    +0.292 HD
ENDBRANCH  14  18
BRANCH  15  20
ATOM     20  O   LIG A   1      -2.397   5.480 128.581  0.00  0.00    -0.488 OA
ATOM     21  C   LIG A   1      -2.276   6.825 128.139  0.00  0.00    +0.277 C 
ENDBRANCH  15  20
BRANCH  16  22
ATOM     22  O   LIG A   1      -5.257   5.632 129.089  0.00  0.00    -0.491 OA
ATOM     23  C   LIG A   1      -5.422   5.183 130.428  0.00  0.00    +0.277 C 
ENDBRANCH  16  22
ENDBRANCH   2  12
BRANCH   1  25
ATOM     24  C   LIG A   1      -5.619   4.200 123.075  0.00  0.00    +0.277 C 
ATOM     25  O   LIG A   1      -6.491   4.096 124.199  0.00  0.00    -0.488 OA
ENDBRANCH   1  25
BRANCH   6  26
ATOM     26  O   LIG A   1      -9.462  -0.089 122.731  0.00  0.00    -0.503 OA
ATOM     27  H   LIG A   1     -10.399   0.029 123.013  0.00  0.00    +0.292 HD
ENDBRANCH   6  26
BRANCH   7  28
ATOM     28  O   LIG A   1      -9.645  -2.524 123.648  0.00  0.00    -0.501 OA
ATOM     29  H   LIG A   1      -9.127  -2.764 122.851  0.00  0.00    +0.292 HD
ENDBRANCH   7  28
BRANCH   8  30
ATOM     30  O   LIG A   1      -8.133  -3.300 126.078  0.00  0.00    -0.491 OA
ATOM     31  C   LIG A   1      -8.655  -3.370 127.402  0.00  0.00    +0.277 C 
ENDBRANCH   8  30
TORSDOF 8
ENDMDL
MODEL 5
REMARK VINA RESULT:      -7.0      2.493      3.053
REMARK  Name = NuBBE_1870
REMARK  12 active torsions:
REMARK  status: ('A' for Active; 'I' for Inactive)
REMARK    1  A    between atoms: C_1  and  O_2
REMARK    2  A    between atoms: O_2  and  C_3
REMARK    3  A    between atoms: C_4  and  C_5
REMARK    4  A    between atoms: C_7  and  O_8
REMARK    5  A    between atoms: C_9  and  O_10
REMARK    6  A    between atoms: O_10  and  C_11
REMARK    7  A    between atoms: C_12  and  O_13
REMARK    8  A    between atoms: O_13  and  C_14
REMARK    9  A    between atoms: C_19  and  O_20
REMARK   10  A    between atoms: C_21  and  O_22
REMARK   11  A    between atoms: C_23  and  O_24
REMARK   12  A    between atoms: O_24  and  C_25
REMARK                            x       y       z     vdW  Elec       q    Type
REMARK                         _______ _______ _______ _____ _____    ______ ____
ROOT
ATOM      1  C   LIG A   1      -8.621   4.769 131.766  0.00  0.00    +0.211 A 
ATOM      2  C   LIG A   1      -8.566   5.991 131.184  0.00  0.00    +0.181 A 
ATOM      3  O   LIG A   1      -7.439   6.789 131.090  0.00  0.00    -0.451 OA
ATOM      4  C   LIG A   1      -6.242   6.294 131.534  0.00  0.00    +0.147 A 
ATOM      5  C   LIG A   1      -6.133   5.048 132.139  0.00  0.00    +0.113 A 
ATOM      6  C   LIG A   1      -4.890   4.586 132.557  0.00  0.00    +0.177 A 
ATOM      7  C   LIG A   1      -3.748   5.364 132.374  0.00  0.00    +0.202 A 
ATOM      8  C   LIG A   1      -3.839   6.626 131.782  0.00  0.00    +0.169 A 
ATOM      9  C   LIG A   1      -5.098   7.077 131.354  0.00  0.00    +0.096 A 
ATOM     10  C   LIG A   1      -7.347   4.248 132.319  0.00  0.00    +0.238 A 
ATOM     11  O   LIG A   1      -7.242   3.168 132.919  0.00  0.00    -0.283 OA
ENDROOT
BRANCH   2  12
ATOM     12  C   LIG A   1      -9.767   6.636 130.633  0.00  0.00    +0.028 A 
ATOM     13  C   LIG A   1     -10.946   6.630 131.378  0.00  0.00    +0.061 A 
ATOM     14  C   LIG A   1     -12.091   7.262 130.890  0.00  0.00    +0.163 A 
ATOM     15  C   LIG A   1     -12.101   7.904 129.639  0.00  0.00    +0.203 A 
ATOM     16  C   LIG A   1     -10.904   7.924 128.889  0.00  0.00    +0.166 A 
ATOM     17  C   LIG A   1      -9.752   7.286 129.394  0.00  0.00    +0.061 A 
BRANCH  14  18
ATOM     18  O   LIG A   1     -13.196   7.276 131.700  0.00  0.00    -0.503 OA
ATOM     19  H   LIG A   1     -13.075   7.926 132.409  0.00  0.00    +0.292 HD
ENDBRANCH  14  18
BRANCH  15  20
ATOM     20  O   LIG A   1     -13.176   8.600 129.154  0.00  0.00    -0.488 OA
ATOM     21  C   LIG A   1     -13.243   9.999 129.393  0.00  0.00    +0.277 C 
ENDBRANCH  15  20
BRANCH  16  22
ATOM     22  O   LIG A   1     -10.678   8.513 127.667  0.00  0.00    -0.491 OA
ATOM     23  C   LIG A   1     -10.976   7.770 126.491  0.00  0.00    +0.277 C 
ENDBRANCH  16  22
ENDBRANCH   2  12
BRANCH   1  25
ATOM     24  C   LIG A   1      -9.974   3.050 130.791  0.00  0.00    +0.277 C 
ATOM     25  O   LIG A   1      -9.811   4.053 131.792  0.00  0.00    -0.488 OA
ENDBRANCH   1  25
BRANCH   6  26
ATOM     26  O   LIG A   1      -4.696   3.357 133.152  0.00  0.00    -0.503 OA
ATOM     27  H   LIG A   1      -5.575   3.032 133.454  0.00  0.00    +0.292 HD
ENDBRANCH   6  26
BRANCH   7  28
ATOM     28  O   LIG A   1      -2.562   4.812 132.777  0.00  0.00    -0.501 OA
ATOM     29  H   LIG A   1      -1.925   5.556 132.777  0.00  0.00    +0.292 HD
ENDBRANCH   7  28
BRANCH   8  30
ATOM     30  O   LIG A   1      -2.808   7.491 131.528  0.00  0.00    -0.491 OA
ATOM     31  C   LIG A   1      -2.528   8.457 132.538  0.00  0.00    +0.277 C 
ENDBRANCH   8  30
TORSDOF 8
ENDMDL
MODEL 6
REMARK VINA RESULT:      -6.9      4.048      7.592
REMARK  Name = NuBBE_1870
REMARK  12 active torsions:
REMARK  status: ('A' for Active; 'I' for Inactive)
REMARK    1  A    between atoms: C_1  and  O_2
REMARK    2  A    between atoms: O_2  and  C_3
REMARK    3  A    between atoms: C_4  and  C_5
REMARK    4  A    between atoms: C_7  and  O_8
REMARK    5  A    between atoms: C_9  and  O_10
REMARK    6  A    between atoms: O_10  and  C_11
REMARK    7  A    between atoms: C_12  and  O_13
REMARK    8  A    between atoms: O_13  and  C_14
REMARK    9  A    between atoms: C_19  and  O_20
REMARK   10  A    between atoms: C_21  and  O_22
REMARK   11  A    between atoms: C_23  and  O_24
REMARK   12  A    between atoms: O_24  and  C_25
REMARK                            x       y       z     vdW  Elec       q    Type
REMARK                         _______ _______ _______ _____ _____    ______ ____
ROOT
ATOM      1  C   LIG A   1      -6.821   4.083 130.829  0.00  0.00    +0.211 A 
ATOM      2  C   LIG A   1      -6.843   4.604 129.579  0.00  0.00    +0.181 A 
ATOM      3  O   LIG A   1      -7.900   5.296 129.012  0.00  0.00    -0.451 OA
ATOM      4  C   LIG A   1      -8.997   5.569 129.784  0.00  0.00    +0.147 A 
ATOM      5  C   LIG A   1      -9.117   5.117 131.092  0.00  0.00    +0.113 A 
ATOM      6  C   LIG A   1     -10.246   5.438 131.837  0.00  0.00    +0.177 A 
ATOM      7  C   LIG A   1     -11.263   6.212 131.282  0.00  0.00    +0.202 A 
ATOM      8  C   LIG A   1     -11.170   6.663 129.963  0.00  0.00    +0.169 A 
ATOM      9  C   LIG A   1     -10.020   6.342 129.223  0.00  0.00    +0.096 A 
ATOM     10  C   LIG A   1      -8.033   4.307 131.654  0.00  0.00    +0.238 A 
ATOM     11  O   LIG A   1      -8.184   3.858 132.800  0.00  0.00    -0.283 OA
ENDROOT
BRANCH   2  12
ATOM     12  C   LIG A   1      -5.721   4.418 128.647  0.00  0.00    +0.028 A 
ATOM     13  C   LIG A   1      -4.596   5.234 128.764  0.00  0.00    +0.061 A 
ATOM     14  C   LIG A   1      -3.505   5.057 127.911  0.00  0.00    +0.163 A 
ATOM     15  C   LIG A   1      -3.510   4.075 126.904  0.00  0.00    +0.203 A 
ATOM     16  C   LIG A   1      -4.643   3.238 126.794  0.00  0.00    +0.166 A 
ATOM     17  C   LIG A   1      -5.736   3.423 127.664  0.00  0.00    +0.061 A 
BRANCH  14  18
ATOM     18  O   LIG A   1      -2.406   5.847 128.121  0.00  0.00    -0.503 OA
ATOM     19  H   LIG A   1      -1.681   5.563 127.543  0.00  0.00    +0.292 HD
ENDBRANCH  14  18
BRANCH  15  20
ATOM     20  O   LIG A   1      -2.436   3.816 126.094  0.00  0.00    -0.488 OA
ATOM     21  C   LIG A   1      -1.440   2.914 126.556  0.00  0.00    +0.277 C 
ENDBRANCH  15  20
BRANCH  16  22
ATOM     22  O   LIG A   1      -4.849   2.203 125.912  0.00  0.00    -0.491 OA
ATOM     23  C   LIG A   1      -5.160   0.918 126.436  0.00  0.00    +0.277 C 
ENDBRANCH  16  22
ENDBRANCH   2  12
BRANCH   1  25
ATOM     24  C   LIG A   1      -5.751   1.990 131.287  0.00  0.00    +0.277 C 
ATOM     25  O   LIG A   1      -5.696   3.416 131.295  0.00  0.00    -0.488 OA
ENDBRANCH   1  25
BRANCH   6  26
ATOM     26  O   LIG A   1     -10.433   5.041 133.144  0.00  0.00    -0.503 OA
ATOM     27  H   LIG A   1      -9.739   5.480 133.688  0.00  0.00    +0.292 HD
ENDBRANCH   6  26
BRANCH   7  28
ATOM     28  O   LIG A   1     -12.317   6.514 132.101  0.00  0.00    -0.501 OA
ATOM     29  H   LIG A   1     -12.321   5.806 132.778  0.00  0.00    +0.292 HD
ENDBRANCH   7  28
BRANCH   8  30
ATOM     30  O   LIG A   1     -12.080   7.436 129.292  0.00  0.00    -0.491 OA
ATOM     31  C   LIG A   1     -13.158   6.746 128.667  0.00  0.00    +0.277 C 
ENDBRANCH   8  30
TORSDOF 8
ENDMDL
MODEL 7
REMARK VINA RESULT:      -6.9      6.310     10.589
REMARK  Name = NuBBE_1870
REMARK  12 active torsions:
REMARK  status: ('A' for Active; 'I' for Inactive)
REMARK    1  A    between atoms: C_1  and  O_2
REMARK    2  A    between atoms: O_2  and  C_3
REMARK    3  A    between atoms: C_4  and  C_5
REMARK    4  A    between atoms: C_7  and  O_8
REMARK    5  A    between atoms: C_9  and  O_10
REMARK    6  A    between atoms: O_10  and  C_11
REMARK    7  A    between atoms: C_12  and  O_13
REMARK    8  A    between atoms: O_13  and  C_14
REMARK    9  A    between atoms: C_19  and  O_20
REMARK   10  A    between atoms: C_21  and  O_22
REMARK   11  A    between atoms: C_23  and  O_24
REMARK   12  A    between atoms: O_24  and  C_25
REMARK                            x       y       z     vdW  Elec       q    Type
REMARK                         _______ _______ _______ _____ _____    ______ ____
ROOT
ATOM      1  C   LIG A   1      -6.535   1.162 126.864  0.00  0.00    +0.211 A 
ATOM      2  C   LIG A   1      -6.152   2.337 126.310  0.00  0.00    +0.181 A 
ATOM      3  O   LIG A   1      -6.598   2.841 125.100  0.00  0.00    -0.451 OA
ATOM      4  C   LIG A   1      -7.574   2.162 124.423  0.00  0.00    +0.147 A 
ATOM      5  C   LIG A   1      -8.084   0.950 124.872  0.00  0.00    +0.113 A 
ATOM      6  C   LIG A   1      -9.087   0.309 124.154  0.00  0.00    +0.177 A 
ATOM      7  C   LIG A   1      -9.590   0.875 122.984  0.00  0.00    +0.202 A 
ATOM      8  C   LIG A   1      -9.081   2.085 122.507  0.00  0.00    +0.169 A 
ATOM      9  C   LIG A   1      -8.075   2.728 123.246  0.00  0.00    +0.096 A 
ATOM     10  C   LIG A   1      -7.540   0.376 126.106  0.00  0.00    +0.238 A 
ATOM     11  O   LIG A   1      -7.958  -0.736 126.458  0.00  0.00    -0.283 OA
ENDROOT
BRANCH   2  12
ATOM     12  C   LIG A   1      -5.133   3.190 126.940  0.00  0.00    +0.028 A 
ATOM     13  C   LIG A   1      -3.792   3.009 126.607  0.00  0.00    +0.061 A 
ATOM     14  C   LIG A   1      -2.809   3.826 127.169  0.00  0.00    +0.163 A 
ATOM     15  C   LIG A   1      -3.132   4.836 128.093  0.00  0.00    +0.203 A 
ATOM     16  C   LIG A   1      -4.492   5.030 128.421  0.00  0.00    +0.166 A 
ATOM     17  C   LIG A   1      -5.476   4.202 127.844  0.00  0.00    +0.061 A 
BRANCH  14  18
ATOM     18  O   LIG A   1      -1.519   3.638 126.749  0.00  0.00    -0.503 OA
ATOM     19  H   LIG A   1      -0.929   4.248 127.219  0.00  0.00    +0.292 HD
ENDBRANCH  14  18
BRANCH  15  20
ATOM     20  O   LIG A   1      -2.212   5.708 128.612  0.00  0.00    -0.488 OA
ATOM     21  C   LIG A   1      -2.185   7.040 128.116  0.00  0.00    +0.277 C 
ENDBRANCH  15  20
BRANCH  16  22
ATOM     22  O   LIG A   1      -5.034   5.968 129.269  0.00  0.00    -0.491 OA
ATOM     23  C   LIG A   1      -5.497   5.541 130.544  0.00  0.00    +0.277 C 
ENDBRANCH  16  22
ENDBRANCH   2  12
BRANCH   1  25
ATOM     24  C   LIG A   1      -6.871   0.951 129.226  0.00  0.00    +0.277 C 
ATOM     25  O   LIG A   1      -6.026   0.762 128.092  0.00  0.00    -0.488 OA
ENDBRANCH   1  25
BRANCH   6  26
ATOM     26  O   LIG A   1      -9.654  -0.886 124.541  0.00  0.00    -0.503 OA
ATOM     27  H   LIG A   1     -10.519  -0.968 124.075  0.00  0.00    +0.292 HD
ENDBRANCH   6  26
BRANCH   7  28
ATOM     28  O   LIG A   1     -10.606   0.197 122.366  0.00  0.00    -0.501 OA
ATOM     29  H   LIG A   1     -10.988  -0.376 123.064  0.00  0.00    +0.292 HD
ENDBRANCH   7  28
BRANCH   8  30
ATOM     30  O   LIG A   1      -9.483   2.761 121.385  0.00  0.00    -0.491 OA
ATOM     31  C   LIG A   1      -8.550   3.686 120.835  0.00  0.00    +0.277 C 
ENDBRANCH   8  30
TORSDOF 8
ENDMDL
MODEL 8
REMARK VINA RESULT:      -6.7      7.582     11.600
REMARK  Name = NuBBE_1870
REMARK  12 active torsions:
REMARK  status: ('A' for Active; 'I' for Inactive)
REMARK    1  A    between atoms: C_1  and  O_2
REMARK    2  A    between atoms: O_2  and  C_3
REMARK    3  A    between atoms: C_4  and  C_5
REMARK    4  A    between atoms: C_7  and  O_8
REMARK    5  A    between atoms: C_9  and  O_10
REMARK    6  A    between atoms: O_10  and  C_11
REMARK    7  A    between atoms: C_12  and  O_13
REMARK    8  A    between atoms: O_13  and  C_14
REMARK    9  A    between atoms: C_19  and  O_20
REMARK   10  A    between atoms: C_21  and  O_22
REMARK   11  A    between atoms: C_23  and  O_24
REMARK   12  A    between atoms: O_24  and  C_25
REMARK                            x       y       z     vdW  Elec       q    Type
REMARK                         _______ _______ _______ _____ _____    ______ ____
ROOT
ATOM      1  C   LIG A   1      -8.538  -1.008 125.717  0.00  0.00    +0.211 A 
ATOM      2  C   LIG A   1      -7.484  -0.522 126.414  0.00  0.00    +0.181 A 
ATOM      3  O   LIG A   1      -6.754   0.609 126.089  0.00  0.00    -0.451 OA
ATOM      4  C   LIG A   1      -7.162   1.373 125.029  0.00  0.00    +0.147 A 
ATOM      5  C   LIG A   1      -8.238   1.016 124.226  0.00  0.00    +0.113 A 
ATOM      6  C   LIG A   1      -8.620   1.838 123.172  0.00  0.00    +0.177 A 
ATOM      7  C   LIG A   1      -7.931   3.021 122.912  0.00  0.00    +0.202 A 
ATOM      8  C   LIG A   1      -6.837   3.390 123.697  0.00  0.00    +0.169 A 
ATOM      9  C   LIG A   1      -6.467   2.558 124.766  0.00  0.00    +0.096 A 
ATOM     10  C   LIG A   1      -8.948  -0.231 124.521  0.00  0.00    +0.238 A 
ATOM     11  O   LIG A   1      -9.864  -0.568 123.756  0.00  0.00    -0.283 OA
ENDROOT
BRANCH   2  12
ATOM     12  C   LIG A   1      -6.954  -1.220 127.595  0.00  0.00    +0.028 A 
ATOM     13  C   LIG A   1      -5.769  -1.946 127.483  0.00  0.00    +0.061 A 
ATOM     14  C   LIG A   1      -5.230  -2.592 128.597  0.00  0.00    +0.163 A 
ATOM     15  C   LIG A   1      -5.864  -2.549 129.851  0.00  0.00    +0.203 A 
ATOM     16  C   LIG A   1      -7.057  -1.801 129.970  0.00  0.00    +0.166 A 
ATOM     17  C   LIG A   1      -7.590  -1.149 128.840  0.00  0.00    +0.061 A 
BRANCH  14  18
ATOM     18  O   LIG A   1      -4.030  -3.233 128.434  0.00  0.00    -0.503 OA
ATOM     19  H   LIG A   1      -3.351  -2.595 128.162  0.00  0.00    +0.292 HD
ENDBRANCH  14  18
BRANCH  15  20
ATOM     20  O   LIG A   1      -5.335  -3.103 130.986  0.00  0.00    -0.488 OA
ATOM     21  C   LIG A   1      -5.670  -4.447 131.305  0.00  0.00    +0.277 C 
ENDBRANCH  15  20
BRANCH  16  22
ATOM     22  O   LIG A   1      -7.822  -1.599 131.096  0.00  0.00    -0.491 OA
ATOM     23  C   LIG A   1      -8.276  -0.281 131.379  0.00  0.00    +0.277 C 
ENDBRANCH  16  22
ENDBRANCH   2  12
BRANCH   1  25
ATOM     24  C   LIG A   1      -8.892  -3.363 125.461  0.00  0.00    +0.277 C 
ATOM     25  O   LIG A   1      -9.201  -2.150 126.146  0.00  0.00    -0.488 OA
ENDBRANCH   1  25
BRANCH   6  26
ATOM     26  O   LIG A   1      -9.684   1.562 122.340  0.00  0.00    -0.503 OA
ATOM     27  H   LIG A   1      -9.729   0.584 122.231  0.00  0.00    +0.292 HD
ENDBRANCH   6  26
BRANCH   7  28
ATOM     28  O   LIG A   1      -8.403   3.788 121.881  0.00  0.00    -0.501 OA
ATOM     29  H   LIG A   1      -8.183   3.284 121.071  0.00  0.00    +0.292 HD
ENDBRANCH   7  28
BRANCH   8  30
ATOM     30  O   LIG A   1      -6.076   4.522 123.568  0.00  0.00    -0.491 OA
ATOM     31  C   LIG A   1      -5.095   4.511 122.535  0.00  0.00    +0.277 C 
ENDBRANCH   8  30
TORSDOF 8
ENDMDL
MODEL 9
REMARK VINA RESULT:      -6.6      4.166      7.790
REMARK  Name = NuBBE_1870
REMARK  12 active torsions:
REMARK  status: ('A' for Active; 'I' for Inactive)
REMARK    1  A    between atoms: C_1  and  O_2
REMARK    2  A    between atoms: O_2  and  C_3
REMARK    3  A    between atoms: C_4  and  C_5
REMARK    4  A    between atoms: C_7  and  O_8
REMARK    5  A    between atoms: C_9  and  O_10
REMARK    6  A    between atoms: O_10  and  C_11
REMARK    7  A    between atoms: C_12  and  O_13
REMARK    8  A    between atoms: O_13  and  C_14
REMARK    9  A    between atoms: C_19  and  O_20
REMARK   10  A    between atoms: C_21  and  O_22
REMARK   11  A    between atoms: C_23  and  O_24
REMARK   12  A    between atoms: O_24  and  C_25
REMARK                            x       y       z     vdW  Elec       q    Type
REMARK                         _______ _______ _______ _____ _____    ______ ____
ROOT
ATOM      1  C   LIG A   1      -8.320   1.363 130.362  0.00  0.00    +0.211 A 
ATOM      2  C   LIG A   1      -8.223   1.984 129.163  0.00  0.00    +0.181 A 
ATOM      3  O   LIG A   1      -8.628   3.280 128.890  0.00  0.00    -0.451 OA
ATOM      4  C   LIG A   1      -9.089   4.056 129.919  0.00  0.00    +0.147 A 
ATOM      5  C   LIG A   1      -9.231   3.568 131.212  0.00  0.00    +0.113 A 
ATOM      6  C   LIG A   1      -9.689   4.404 132.223  0.00  0.00    +0.177 A 
ATOM      7  C   LIG A   1     -10.008   5.733 131.952  0.00  0.00    +0.202 A 
ATOM      8  C   LIG A   1      -9.888   6.239 130.656  0.00  0.00    +0.169 A 
ATOM      9  C   LIG A   1      -9.414   5.388 129.644  0.00  0.00    +0.096 A 
ATOM     10  C   LIG A   1      -8.887   2.167 131.473  0.00  0.00    +0.238 A 
ATOM     11  O   LIG A   1      -9.080   1.730 132.617  0.00  0.00    -0.283 OA
ENDROOT
BRANCH   2  12
ATOM     12  C   LIG A   1      -7.715   1.285 127.973  0.00  0.00    +0.028 A 
ATOM     13  C   LIG A   1      -6.367   1.404 127.636  0.00  0.00    +0.061 A 
ATOM     14  C   LIG A   1      -5.855   0.726 126.528  0.00  0.00    +0.163 A 
ATOM     15  C   LIG A   1      -6.674  -0.076 125.713  0.00  0.00    +0.203 A 
ATOM     16  C   LIG A   1      -8.036  -0.209 126.061  0.00  0.00    +0.166 A 
ATOM     17  C   LIG A   1      -8.542   0.477 127.184  0.00  0.00    +0.061 A 
BRANCH  14  18
ATOM     18  O   LIG A   1      -4.510   0.832 126.292  0.00  0.00    -0.503 OA
ATOM     19  H   LIG A   1      -4.081  -0.025 126.442  0.00  0.00    +0.292 HD
ENDBRANCH  14  18
BRANCH  15  20
ATOM     20  O   LIG A   1      -6.201  -0.818 124.663  0.00  0.00    -0.488 OA
ATOM     21  C   LIG A   1      -5.667  -2.107 124.929  0.00  0.00    +0.277 C 
ENDBRANCH  15  20
BRANCH  16  22
ATOM     22  O   LIG A   1      -9.003  -0.957 125.430  0.00  0.00    -0.491 OA
ATOM     23  C   LIG A   1      -9.243  -2.281 125.891  0.00  0.00    +0.277 C 
ENDBRANCH  16  22
ENDBRANCH   2  12
BRANCH   1  25
ATOM     24  C   LIG A   1      -6.585  -0.103 131.121  0.00  0.00    +0.277 C 
ATOM     25  O   LIG A   1      -7.869   0.060 130.521  0.00  0.00    -0.488 OA
ENDBRANCH   1  25
BRANCH   6  26
ATOM     26  O   LIG A   1      -9.842   4.000 133.533  0.00  0.00    -0.503 OA
ATOM     27  H   LIG A   1     -10.727   3.574 133.610  0.00  0.00    +0.292 HD
ENDBRANCH   6  26
BRANCH   7  28
ATOM     28  O   LIG A   1     -10.409   6.494 133.016  0.00  0.00    -0.501 OA
ATOM     29  H   LIG A   1      -9.602   6.615 133.559  0.00  0.00    +0.292 HD
ENDBRANCH   7  28
BRANCH   8  30
ATOM     30  O   LIG A   1     -10.152   7.519 130.245  0.00  0.00    -0.491 OA
ATOM     31  C   LIG A   1     -11.427   7.742 129.650  0.00  0.00    +0.277 C 
ENDBRANCH   8  30
TORSDOF 8
ENDMDL
