MODEL 1
REMARK VINA RESULT:      -8.2      0.000      0.000
REMARK  Name = NuBBE_572
REMARK  7 active torsions:
REMARK  status: ('A' for Active; 'I' for Inactive)
REMARK    1  A    between atoms: C_1  and  C_2
REMARK    2  A    between atoms: C_6  and  O_7
REMARK    3  A    between atoms: C_10  and  O_11
REMARK    4  A    between atoms: C_10  and  C_12
REMARK    5  A    between atoms: C_18  and  C_19
REMARK    6  A    between atoms: C_18  and  C_20
REMARK    7  A    between atoms: C_23  and  C_25
REMARK                            x       y       z     vdW  Elec       q    Type
REMARK                         _______ _______ _______ _____ _____    ______ ____
ROOT
ATOM      1  C   LIG A   1      -8.349   1.404 127.981  0.00  0.00    +0.047 C 
ATOM      2  C   LIG A   1      -8.632   1.916 129.335  0.00  0.00    -0.004 C 
ATOM      3  C   LIG A   1      -8.884   3.348 129.575  0.00  0.00    +0.188 C 
ATOM      4  O   LIG A   1      -8.762   4.182 128.717  0.00  0.00    -0.287 OA
ATOM      5  C   LIG A   1      -8.755   1.285 130.500  0.00  0.00    +0.027 C 
ATOM      6  C   LIG A   1      -9.160   2.182 131.632  0.00  0.00    +0.171 C 
ATOM      7  C   LIG A   1      -9.375   3.552 130.997  0.00  0.00    +0.041 C 
ATOM      8  C   LIG A   1     -10.516   4.274 130.899  0.00  0.00    +0.018 C 
ATOM      9  C   LIG A   1     -10.671   5.780 130.800  0.00  0.00    +0.082 C 
ATOM     10  C   LIG A   1     -11.031   6.264 129.391  0.00  0.00    +0.046 C 
ATOM     11  C   LIG A   1      -9.541   6.623 131.443  0.00  0.00    +0.039 C 
ATOM     12  C   LIG A   1      -8.175   6.632 130.752  0.00  0.00    +0.007 C 
ATOM     13  C   LIG A   1      -7.034   6.616 131.727  0.00  0.00    -0.001 C 
ATOM     14  C   LIG A   1      -6.408   5.426 132.463  0.00  0.00    -0.001 C 
ATOM     15  C   LIG A   1      -5.635   6.146 131.353  0.00  0.00    -0.029 C 
ATOM     16  C   LIG A   1      -4.446   6.950 131.808  0.00  0.00    +0.011 C 
ATOM     17  C   LIG A   1      -5.384   5.458 130.022  0.00  0.00    +0.011 C 
ATOM     18  C   LIG A   1      -6.516   3.941 132.315  0.00  0.00    +0.015 C 
ATOM     19  C   LIG A   1      -7.336   3.174 133.359  0.00  0.00    +0.056 C 
ATOM     20  C   LIG A   1      -8.289   3.927 134.270  0.00  0.00    +0.015 C 
ATOM     21  C   LIG A   1      -8.036   1.984 132.714  0.00  0.00    +0.176 C 
ATOM     22  O   LIG A   1      -7.704   0.844 133.079  0.00  0.00    -0.293 OA
ENDROOT
BRANCH   6  23
ATOM     23  O   LIG A   1     -10.388   1.714 132.180  0.00  0.00    -0.373 OA
ATOM     24  H   LIG A   1     -10.460   2.058 133.085  0.00  0.00    +0.211 HD
ENDBRANCH   6  23
BRANCH   9  25
ATOM     25  O   LIG A   1     -11.823   6.064 131.628  0.00  0.00    -0.385 OA
ATOM     26  H   LIG A   1     -11.524   6.551 132.413  0.00  0.00    +0.211 HD
ENDBRANCH   9  25
TORSDOF 2
ENDMDL
MODEL 2
REMARK VINA RESULT:      -7.6      4.126      7.985
REMARK  Name = NuBBE_572
REMARK  7 active torsions:
REMARK  status: ('A' for Active; 'I' for Inactive)
REMARK    1  A    between atoms: C_1  and  C_2
REMARK    2  A    between atoms: C_6  and  O_7
REMARK    3  A    between atoms: C_10  and  O_11
REMARK    4  A    between atoms: C_10  and  C_12
REMARK    5  A    between atoms: C_18  and  C_19
REMARK    6  A    between atoms: C_18  and  C_20
REMARK    7  A    between atoms: C_23  and  C_25
REMARK                            x       y       z     vdW  Elec       q    Type
REMARK                         _______ _______ _______ _____ _____    ______ ____
ROOT
ATOM      1  C   LIG A   1      -2.545   3.010 126.810  0.00  0.00    +0.047 C 
ATOM      2  C   LIG A   1      -3.937   3.216 126.368  0.00  0.00    -0.004 C 
ATOM      3  C   LIG A   1      -5.047   2.438 126.946  0.00  0.00    +0.188 C 
ATOM      4  O   LIG A   1      -4.873   1.528 127.711  0.00  0.00    -0.287 OA
ATOM      5  C   LIG A   1      -4.458   4.071 125.491  0.00  0.00    +0.027 C 
ATOM      6  C   LIG A   1      -5.956   4.023 125.418  0.00  0.00    +0.171 C 
ATOM      7  C   LIG A   1      -6.374   3.017 126.485  0.00  0.00    +0.041 C 
ATOM      8  C   LIG A   1      -7.102   3.222 127.608  0.00  0.00    +0.018 C 
ATOM      9  C   LIG A   1      -7.975   2.232 128.357  0.00  0.00    +0.082 C 
ATOM     10  C   LIG A   1      -7.345   1.727 129.658  0.00  0.00    +0.046 C 
ATOM     11  C   LIG A   1      -8.582   1.086 127.510  0.00  0.00    +0.039 C 
ATOM     12  C   LIG A   1      -7.636  -0.005 127.000  0.00  0.00    +0.007 C 
ATOM     13  C   LIG A   1      -7.972  -0.459 125.610  0.00  0.00    -0.001 C 
ATOM     14  C   LIG A   1      -7.602   0.182 124.267  0.00  0.00    -0.001 C 
ATOM     15  C   LIG A   1      -6.963  -1.143 124.698  0.00  0.00    -0.029 C 
ATOM     16  C   LIG A   1      -7.389  -2.354 123.911  0.00  0.00    +0.011 C 
ATOM     17  C   LIG A   1      -5.494  -1.197 125.080  0.00  0.00    +0.011 C 
ATOM     18  C   LIG A   1      -6.645   1.257 123.860  0.00  0.00    +0.015 C 
ATOM     19  C   LIG A   1      -7.222   2.627 123.484  0.00  0.00    +0.056 C 
ATOM     20  C   LIG A   1      -8.650   2.973 123.868  0.00  0.00    +0.015 C 
ATOM     21  C   LIG A   1      -6.268   3.738 123.903  0.00  0.00    +0.176 C 
ATOM     22  O   LIG A   1      -5.750   4.429 123.010  0.00  0.00    -0.293 OA
ENDROOT
BRANCH   6  23
ATOM     23  O   LIG A   1      -6.479   5.306 125.743  0.00  0.00    -0.373 OA
ATOM     24  H   LIG A   1      -7.419   5.197 125.961  0.00  0.00    +0.211 HD
ENDBRANCH   6  23
BRANCH   9  25
ATOM     25  O   LIG A   1      -9.127   3.016 128.747  0.00  0.00    -0.385 OA
ATOM     26  H   LIG A   1      -9.905   2.432 128.761  0.00  0.00    +0.211 HD
ENDBRANCH   9  25
TORSDOF 2
ENDMDL
MODEL 3
REMARK VINA RESULT:      -7.4      3.123      6.279
REMARK  Name = NuBBE_572
REMARK  7 active torsions:
REMARK  status: ('A' for Active; 'I' for Inactive)
REMARK    1  A    between atoms: C_1  and  C_2
REMARK    2  A    between atoms: C_6  and  O_7
REMARK    3  A    between atoms: C_10  and  O_11
REMARK    4  A    between atoms: C_10  and  C_12
REMARK    5  A    between atoms: C_18  and  C_19
REMARK    6  A    between atoms: C_18  and  C_20
REMARK    7  A    between atoms: C_23  and  C_25
REMARK                            x       y       z     vdW  Elec       q    Type
REMARK                         _______ _______ _______ _____ _____    ______ ____
ROOT
ATOM      1  C   LIG A   1      -2.819   7.589 133.703  0.00  0.00    +0.047 C 
ATOM      2  C   LIG A   1      -3.377   7.281 132.372  0.00  0.00    -0.004 C 
ATOM      3  C   LIG A   1      -4.598   6.469 132.222  0.00  0.00    +0.188 C 
ATOM      4  O   LIG A   1      -5.134   5.925 133.150  0.00  0.00    -0.287 OA
ATOM      5  C   LIG A   1      -2.988   7.651 131.155  0.00  0.00    +0.027 C 
ATOM      6  C   LIG A   1      -3.912   7.200 130.062  0.00  0.00    +0.171 C 
ATOM      7  C   LIG A   1      -5.069   6.512 130.779  0.00  0.00    +0.041 C 
ATOM      8  C   LIG A   1      -6.375   6.869 130.823  0.00  0.00    +0.018 C 
ATOM      9  C   LIG A   1      -7.587   5.980 131.025  0.00  0.00    +0.082 C 
ATOM     10  C   LIG A   1      -8.198   6.091 132.425  0.00  0.00    +0.046 C 
ATOM     11  C   LIG A   1      -7.434   4.509 130.563  0.00  0.00    +0.039 C 
ATOM     12  C   LIG A   1      -6.520   3.593 131.381  0.00  0.00    +0.007 C 
ATOM     13  C   LIG A   1      -5.726   2.652 130.523  0.00  0.00    -0.001 C 
ATOM     14  C   LIG A   1      -4.421   2.907 129.760  0.00  0.00    -0.001 C 
ATOM     15  C   LIG A   1      -4.434   1.996 130.993  0.00  0.00    -0.029 C 
ATOM     16  C   LIG A   1      -4.214   0.532 130.720  0.00  0.00    +0.011 C 
ATOM     17  C   LIG A   1      -3.769   2.444 132.283  0.00  0.00    +0.011 C 
ATOM     18  C   LIG A   1      -3.405   4.005 129.779  0.00  0.00    +0.015 C 
ATOM     19  C   LIG A   1      -3.389   4.989 128.604  0.00  0.00    +0.056 C 
ATOM     20  C   LIG A   1      -4.582   5.061 127.667  0.00  0.00    +0.015 C 
ATOM     21  C   LIG A   1      -2.995   6.380 129.083  0.00  0.00    +0.176 C 
ATOM     22  O   LIG A   1      -1.930   6.861 128.663  0.00  0.00    -0.293 OA
ENDROOT
BRANCH   6  23
ATOM     23  O   LIG A   1      -4.397   8.341 129.363  0.00  0.00    -0.373 OA
ATOM     24  H   LIG A   1      -3.662   8.969 129.273  0.00  0.00    +0.211 HD
ENDBRANCH   6  23
BRANCH   9  25
ATOM     25  O   LIG A   1      -8.570   6.524 130.114  0.00  0.00    -0.385 OA
ATOM     26  H   LIG A   1      -9.318   5.905 130.064  0.00  0.00    +0.211 HD
ENDBRANCH   9  25
TORSDOF 2
ENDMDL
MODEL 4
REMARK VINA RESULT:      -7.3      1.813      4.317
REMARK  Name = NuBBE_572
REMARK  7 active torsions:
REMARK  status: ('A' for Active; 'I' for Inactive)
REMARK    1  A    between atoms: C_1  and  C_2
REMARK    2  A    between atoms: C_6  and  O_7
REMARK    3  A    between atoms: C_10  and  O_11
REMARK    4  A    between atoms: C_10  and  C_12
REMARK    5  A    between atoms: C_18  and  C_19
REMARK    6  A    between atoms: C_18  and  C_20
REMARK    7  A    between atoms: C_23  and  C_25
REMARK                            x       y       z     vdW  Elec       q    Type
REMARK                         _______ _______ _______ _____ _____    ______ ____
ROOT
ATOM      1  C   LIG A   1      -7.776   0.360 130.179  0.00  0.00    +0.047 C 
ATOM      2  C   LIG A   1      -7.956   1.817 130.036  0.00  0.00    -0.004 C 
ATOM      3  C   LIG A   1      -6.924   2.765 130.493  0.00  0.00    +0.188 C 
ATOM      4  O   LIG A   1      -5.947   2.418 131.101  0.00  0.00    -0.287 OA
ATOM      5  C   LIG A   1      -8.942   2.526 129.492  0.00  0.00    +0.027 C 
ATOM      6  C   LIG A   1      -8.675   4.002 129.456  0.00  0.00    +0.171 C 
ATOM      7  C   LIG A   1      -7.264   4.164 130.011  0.00  0.00    +0.041 C 
ATOM      8  C   LIG A   1      -6.153   4.625 129.388  0.00  0.00    +0.018 C 
ATOM      9  C   LIG A   1      -4.942   5.302 130.002  0.00  0.00    +0.082 C 
ATOM     10  C   LIG A   1      -3.711   4.394 130.083  0.00  0.00    +0.046 C 
ATOM     11  C   LIG A   1      -5.193   6.075 131.321  0.00  0.00    +0.039 C 
ATOM     12  C   LIG A   1      -5.484   5.260 132.584  0.00  0.00    +0.007 C 
ATOM     13  C   LIG A   1      -6.528   5.895 133.455  0.00  0.00    -0.001 C 
ATOM     14  C   LIG A   1      -8.055   5.838 133.332  0.00  0.00    -0.001 C 
ATOM     15  C   LIG A   1      -7.340   5.110 134.477  0.00  0.00    -0.029 C 
ATOM     16  C   LIG A   1      -7.552   5.693 135.848  0.00  0.00    +0.011 C 
ATOM     17  C   LIG A   1      -7.283   3.593 134.503  0.00  0.00    +0.011 C 
ATOM     18  C   LIG A   1      -9.001   5.003 132.528  0.00  0.00    +0.015 C 
ATOM     19  C   LIG A   1      -9.694   5.659 131.329  0.00  0.00    +0.056 C 
ATOM     20  C   LIG A   1      -9.159   6.967 130.773  0.00  0.00    +0.015 C 
ATOM     21  C   LIG A   1      -9.896   4.643 130.212  0.00  0.00    +0.176 C 
ATOM     22  O   LIG A   1     -11.060   4.342 129.900  0.00  0.00    -0.293 OA
ENDROOT
BRANCH   6  23
ATOM     23  O   LIG A   1      -8.708   4.448 128.105  0.00  0.00    -0.373 OA
ATOM     24  H   LIG A   1      -7.847   4.846 127.901  0.00  0.00    +0.211 HD
ENDBRANCH   6  23
BRANCH   9  25
ATOM     25  O   LIG A   1      -4.611   6.343 129.054  0.00  0.00    -0.385 OA
ATOM     26  H   LIG A   1      -5.066   6.152 128.217  0.00  0.00    +0.211 HD
ENDBRANCH   9  25
TORSDOF 2
ENDMDL
MODEL 5
REMARK VINA RESULT:      -7.2      3.028      5.609
REMARK  Name = NuBBE_572
REMARK  7 active torsions:
REMARK  status: ('A' for Active; 'I' for Inactive)
REMARK    1  A    between atoms: C_1  and  C_2
REMARK    2  A    between atoms: C_6  and  O_7
REMARK    3  A    between atoms: C_10  and  O_11
REMARK    4  A    between atoms: C_10  and  C_12
REMARK    5  A    between atoms: C_18  and  C_19
REMARK    6  A    between atoms: C_18  and  C_20
REMARK    7  A    between atoms: C_23  and  C_25
REMARK                            x       y       z     vdW  Elec       q    Type
REMARK                         _______ _______ _______ _____ _____    ______ ____
ROOT
ATOM      1  C   LIG A   1      -8.418   7.178 130.684  0.00  0.00    +0.047 C 
ATOM      2  C   LIG A   1      -7.357   6.308 131.226  0.00  0.00    -0.004 C 
ATOM      3  C   LIG A   1      -5.931   6.618 131.018  0.00  0.00    +0.188 C 
ATOM      4  O   LIG A   1      -5.559   7.515 130.311  0.00  0.00    -0.287 OA
ATOM      5  C   LIG A   1      -7.425   5.207 131.970  0.00  0.00    +0.027 C 
ATOM      6  C   LIG A   1      -6.085   4.686 132.402  0.00  0.00    +0.171 C 
ATOM      7  C   LIG A   1      -5.076   5.700 131.873  0.00  0.00    +0.041 C 
ATOM      8  C   LIG A   1      -4.240   6.508 132.567  0.00  0.00    +0.018 C 
ATOM      9  C   LIG A   1      -2.905   7.080 132.129  0.00  0.00    +0.082 C 
ATOM     10  C   LIG A   1      -2.969   8.568 131.768  0.00  0.00    +0.046 C 
ATOM     11  C   LIG A   1      -2.123   6.251 131.079  0.00  0.00    +0.039 C 
ATOM     12  C   LIG A   1      -2.670   6.208 129.650  0.00  0.00    +0.007 C 
ATOM     13  C   LIG A   1      -2.523   4.856 129.015  0.00  0.00    -0.001 C 
ATOM     14  C   LIG A   1      -3.415   3.617 129.160  0.00  0.00    -0.001 C 
ATOM     15  C   LIG A   1      -3.377   4.397 127.841  0.00  0.00    -0.029 C 
ATOM     16  C   LIG A   1      -2.718   3.690 126.687  0.00  0.00    +0.011 C 
ATOM     17  C   LIG A   1      -4.579   5.214 127.399  0.00  0.00    +0.011 C 
ATOM     18  C   LIG A   1      -4.777   3.381 129.731  0.00  0.00    +0.015 C 
ATOM     19  C   LIG A   1      -4.874   2.665 131.083  0.00  0.00    +0.056 C 
ATOM     20  C   LIG A   1      -3.641   2.544 131.960  0.00  0.00    +0.015 C 
ATOM     21  C   LIG A   1      -6.053   3.202 131.884  0.00  0.00    +0.176 C 
ATOM     22  O   LIG A   1      -6.991   2.425 132.133  0.00  0.00    -0.293 OA
ENDROOT
BRANCH   6  23
ATOM     23  O   LIG A   1      -6.033   4.659 133.823  0.00  0.00    -0.373 OA
ATOM     24  H   LIG A   1      -5.550   3.860 134.088  0.00  0.00    +0.211 HD
ENDBRANCH   6  23
BRANCH   9  25
ATOM     25  O   LIG A   1      -2.084   6.990 133.317  0.00  0.00    -0.385 OA
ATOM     26  H   LIG A   1      -2.416   7.630 133.968  0.00  0.00    +0.211 HD
ENDBRANCH   9  25
TORSDOF 2
ENDMDL
MODEL 6
REMARK VINA RESULT:      -7.0      1.807      2.845
REMARK  Name = NuBBE_572
REMARK  7 active torsions:
REMARK  status: ('A' for Active; 'I' for Inactive)
REMARK    1  A    between atoms: C_1  and  C_2
REMARK    2  A    between atoms: C_6  and  O_7
REMARK    3  A    between atoms: C_10  and  O_11
REMARK    4  A    between atoms: C_10  and  C_12
REMARK    5  A    between atoms: C_18  and  C_19
REMARK    6  A    between atoms: C_18  and  C_20
REMARK    7  A    between atoms: C_23  and  C_25
REMARK                            x       y       z     vdW  Elec       q    Type
REMARK                         _______ _______ _______ _____ _____    ______ ____
ROOT
ATOM      1  C   LIG A   1      -4.815   4.660 128.616  0.00  0.00    +0.047 C 
ATOM      2  C   LIG A   1      -6.035   4.049 129.176  0.00  0.00    -0.004 C 
ATOM      3  C   LIG A   1      -7.085   4.872 129.804  0.00  0.00    +0.188 C 
ATOM      4  O   LIG A   1      -6.957   6.051 129.996  0.00  0.00    -0.287 OA
ATOM      5  C   LIG A   1      -6.445   2.784 129.205  0.00  0.00    +0.027 C 
ATOM      6  C   LIG A   1      -7.818   2.607 129.783  0.00  0.00    +0.171 C 
ATOM      7  C   LIG A   1      -8.312   4.019 130.073  0.00  0.00    +0.041 C 
ATOM      8  C   LIG A   1      -9.357   4.684 129.525  0.00  0.00    +0.018 C 
ATOM      9  C   LIG A   1     -10.190   5.795 130.135  0.00  0.00    +0.082 C 
ATOM     10  C   LIG A   1      -9.869   7.181 129.566  0.00  0.00    +0.046 C 
ATOM     11  C   LIG A   1     -10.288   5.800 131.681  0.00  0.00    +0.039 C 
ATOM     12  C   LIG A   1      -9.037   6.186 132.475  0.00  0.00    +0.007 C 
ATOM     13  C   LIG A   1      -8.864   5.364 133.718  0.00  0.00    -0.001 C 
ATOM     14  C   LIG A   1      -8.262   3.962 133.875  0.00  0.00    -0.001 C 
ATOM     15  C   LIG A   1      -7.521   5.190 134.414  0.00  0.00    -0.029 C 
ATOM     16  C   LIG A   1      -7.453   5.300 135.914  0.00  0.00    +0.011 C 
ATOM     17  C   LIG A   1      -6.242   5.668 133.748  0.00  0.00    +0.011 C 
ATOM     18  C   LIG A   1      -7.465   3.070 132.978  0.00  0.00    +0.015 C 
ATOM     19  C   LIG A   1      -8.173   1.862 132.354  0.00  0.00    +0.056 C 
ATOM     20  C   LIG A   1      -9.690   1.797 132.352  0.00  0.00    +0.015 C 
ATOM     21  C   LIG A   1      -7.621   1.584 130.961  0.00  0.00    +0.176 C 
ATOM     22  O   LIG A   1      -7.020   0.513 130.775  0.00  0.00    -0.293 OA
ENDROOT
BRANCH   6  23
ATOM     23  O   LIG A   1      -8.659   2.000 128.808  0.00  0.00    -0.373 OA
ATOM     24  H   LIG A   1      -8.089   1.599 128.131  0.00  0.00    +0.211 HD
ENDBRANCH   6  23
BRANCH   9  25
ATOM     25  O   LIG A   1     -11.538   5.490 129.708  0.00  0.00    -0.385 OA
ATOM     26  H   LIG A   1     -12.143   5.678 130.445  0.00  0.00    +0.211 HD
ENDBRANCH   9  25
TORSDOF 2
ENDMDL
MODEL 7
REMARK VINA RESULT:      -6.8      2.114      5.101
REMARK  Name = NuBBE_572
REMARK  7 active torsions:
REMARK  status: ('A' for Active; 'I' for Inactive)
REMARK    1  A    between atoms: C_1  and  C_2
REMARK    2  A    between atoms: C_6  and  O_7
REMARK    3  A    between atoms: C_10  and  O_11
REMARK    4  A    between atoms: C_10  and  C_12
REMARK    5  A    between atoms: C_18  and  C_19
REMARK    6  A    between atoms: C_18  and  C_20
REMARK    7  A    between atoms: C_23  and  C_25
REMARK                            x       y       z     vdW  Elec       q    Type
REMARK                         _______ _______ _______ _____ _____    ______ ____
ROOT
ATOM      1  C   LIG A   1      -5.754   5.936 134.921  0.00  0.00    +0.047 C 
ATOM      2  C   LIG A   1      -6.005   5.877 133.468  0.00  0.00    -0.004 C 
ATOM      3  C   LIG A   1      -7.329   5.513 132.934  0.00  0.00    +0.188 C 
ATOM      4  O   LIG A   1      -8.231   5.137 133.634  0.00  0.00    -0.287 OA
ATOM      5  C   LIG A   1      -5.213   6.147 132.433  0.00  0.00    +0.027 C 
ATOM      6  C   LIG A   1      -5.907   6.063 131.106  0.00  0.00    +0.171 C 
ATOM      7  C   LIG A   1      -7.364   5.761 131.437  0.00  0.00    +0.041 C 
ATOM      8  C   LIG A   1      -8.463   6.521 131.210  0.00  0.00    +0.018 C 
ATOM      9  C   LIG A   1      -9.896   6.066 131.007  0.00  0.00    +0.082 C 
ATOM     10  C   LIG A   1     -10.792   6.316 132.224  0.00  0.00    +0.046 C 
ATOM     11  C   LIG A   1     -10.080   4.644 130.420  0.00  0.00    +0.039 C 
ATOM     12  C   LIG A   1      -9.738   3.450 131.316  0.00  0.00    +0.007 C 
ATOM     13  C   LIG A   1      -9.070   2.337 130.565  0.00  0.00    -0.001 C 
ATOM     14  C   LIG A   1      -7.596   2.183 130.172  0.00  0.00    -0.001 C 
ATOM     15  C   LIG A   1      -8.212   1.279 131.247  0.00  0.00    -0.029 C 
ATOM     16  C   LIG A   1      -8.383  -0.165 130.859  0.00  0.00    +0.011 C 
ATOM     17  C   LIG A   1      -7.809   1.437 132.703  0.00  0.00    +0.011 C 
ATOM     18  C   LIG A   1      -6.338   2.889 130.567  0.00  0.00    +0.015 C 
ATOM     19  C   LIG A   1      -5.713   3.859 129.558  0.00  0.00    +0.056 C 
ATOM     20  C   LIG A   1      -6.534   4.351 128.379  0.00  0.00    +0.015 C 
ATOM     21  C   LIG A   1      -5.057   5.028 130.281  0.00  0.00    +0.176 C 
ATOM     22  O   LIG A   1      -3.824   5.153 130.190  0.00  0.00    -0.293 OA
ENDROOT
BRANCH   6  23
ATOM     23  O   LIG A   1      -5.819   7.326 130.454  0.00  0.00    -0.373 OA
ATOM     24  H   LIG A   1      -4.953   7.376 130.018  0.00  0.00    +0.211 HD
ENDBRANCH   6  23
BRANCH   9  25
ATOM     25  O   LIG A   1     -10.389   6.935 129.961  0.00  0.00    -0.385 OA
ATOM     26  H   LIG A   1      -9.751   6.925 129.228  0.00  0.00    +0.211 HD
ENDBRANCH   9  25
TORSDOF 2
ENDMDL
MODEL 8
REMARK VINA RESULT:      -6.8      2.315      5.391
REMARK  Name = NuBBE_572
REMARK  7 active torsions:
REMARK  status: ('A' for Active; 'I' for Inactive)
REMARK    1  A    between atoms: C_1  and  C_2
REMARK    2  A    between atoms: C_6  and  O_7
REMARK    3  A    between atoms: C_10  and  O_11
REMARK    4  A    between atoms: C_10  and  C_12
REMARK    5  A    between atoms: C_18  and  C_19
REMARK    6  A    between atoms: C_18  and  C_20
REMARK    7  A    between atoms: C_23  and  C_25
REMARK                            x       y       z     vdW  Elec       q    Type
REMARK                         _______ _______ _______ _____ _____    ______ ____
ROOT
ATOM      1  C   LIG A   1      -2.813   4.462 132.670  0.00  0.00    +0.047 C 
ATOM      2  C   LIG A   1      -4.125   4.752 132.061  0.00  0.00    -0.004 C 
ATOM      3  C   LIG A   1      -5.381   4.465 132.778  0.00  0.00    +0.188 C 
ATOM      4  O   LIG A   1      -5.411   3.884 133.829  0.00  0.00    -0.287 OA
ATOM      5  C   LIG A   1      -4.445   5.307 130.895  0.00  0.00    +0.027 C 
ATOM      6  C   LIG A   1      -5.918   5.519 130.711  0.00  0.00    +0.171 C 
ATOM      7  C   LIG A   1      -6.551   5.074 132.025  0.00  0.00    +0.041 C 
ATOM      8  C   LIG A   1      -7.236   5.811 132.932  0.00  0.00    +0.018 C 
ATOM      9  C   LIG A   1      -8.306   5.350 133.903  0.00  0.00    +0.082 C 
ATOM     10  C   LIG A   1      -7.813   5.248 135.350  0.00  0.00    +0.046 C 
ATOM     11  C   LIG A   1      -9.128   4.110 133.470  0.00  0.00    +0.039 C 
ATOM     12  C   LIG A   1      -8.423   2.750 133.469  0.00  0.00    +0.007 C 
ATOM     13  C   LIG A   1      -8.828   1.890 132.308  0.00  0.00    -0.001 C 
ATOM     14  C   LIG A   1      -8.314   1.911 130.864  0.00  0.00    -0.001 C 
ATOM     15  C   LIG A   1      -7.972   0.741 131.793  0.00  0.00    -0.029 C 
ATOM     16  C   LIG A   1      -8.630  -0.570 131.456  0.00  0.00    +0.011 C 
ATOM     17  C   LIG A   1      -6.551   0.554 132.299  0.00  0.00    +0.011 C 
ATOM     18  C   LIG A   1      -7.148   2.559 130.187  0.00  0.00    +0.015 C 
ATOM     19  C   LIG A   1      -7.421   3.778 129.298  0.00  0.00    +0.056 C 
ATOM     20  C   LIG A   1      -8.751   4.504 129.405  0.00  0.00    +0.015 C 
ATOM     21  C   LIG A   1      -6.263   4.763 129.376  0.00  0.00    +0.176 C 
ATOM     22  O   LIG A   1      -5.600   4.967 128.345  0.00  0.00    -0.293 OA
ENDROOT
BRANCH   6  23
ATOM     23  O   LIG A   1      -6.167   6.906 130.510  0.00  0.00    -0.373 OA
ATOM     24  H   LIG A   1      -6.720   7.219 131.243  0.00  0.00    +0.211 HD
ENDBRANCH   6  23
BRANCH   9  25
ATOM     25  O   LIG A   1      -9.275   6.425 133.885  0.00  0.00    -0.385 OA
ATOM     26  H   LIG A   1      -8.836   7.238 134.187  0.00  0.00    +0.211 HD
ENDBRANCH   9  25
TORSDOF 2
ENDMDL
MODEL 9
REMARK VINA RESULT:      -6.8      2.853      4.877
REMARK  Name = NuBBE_572
REMARK  7 active torsions:
REMARK  status: ('A' for Active; 'I' for Inactive)
REMARK    1  A    between atoms: C_1  and  C_2
REMARK    2  A    between atoms: C_6  and  O_7
REMARK    3  A    between atoms: C_10  and  O_11
REMARK    4  A    between atoms: C_10  and  C_12
REMARK    5  A    between atoms: C_18  and  C_19
REMARK    6  A    between atoms: C_18  and  C_20
REMARK    7  A    between atoms: C_23  and  C_25
REMARK                            x       y       z     vdW  Elec       q    Type
REMARK                         _______ _______ _______ _____ _____    ______ ____
ROOT
ATOM      1  C   LIG A   1      -5.007   0.632 131.158  0.00  0.00    +0.047 C 
ATOM      2  C   LIG A   1      -5.494   1.992 130.861  0.00  0.00    -0.004 C 
ATOM      3  C   LIG A   1      -4.737   2.901 129.982  0.00  0.00    +0.188 C 
ATOM      4  O   LIG A   1      -3.644   2.635 129.559  0.00  0.00    -0.287 OA
ATOM      5  C   LIG A   1      -6.606   2.622 131.230  0.00  0.00    +0.027 C 
ATOM      6  C   LIG A   1      -6.766   3.979 130.609  0.00  0.00    +0.171 C 
ATOM      7  C   LIG A   1      -5.577   4.127 129.667  0.00  0.00    +0.041 C 
ATOM      8  C   LIG A   1      -5.571   4.246 128.317  0.00  0.00    +0.018 C 
ATOM      9  C   LIG A   1      -4.538   4.924 127.437  0.00  0.00    +0.082 C 
ATOM     10  C   LIG A   1      -3.635   3.938 126.688  0.00  0.00    +0.046 C 
ATOM     11  C   LIG A   1      -3.737   6.076 128.094  0.00  0.00    +0.039 C 
ATOM     12  C   LIG A   1      -2.708   5.711 129.167  0.00  0.00    +0.007 C 
ATOM     13  C   LIG A   1      -2.678   6.696 130.299  0.00  0.00    -0.001 C 
ATOM     14  C   LIG A   1      -3.596   6.789 131.524  0.00  0.00    -0.001 C 
ATOM     15  C   LIG A   1      -2.135   6.351 131.680  0.00  0.00    -0.029 C 
ATOM     16  C   LIG A   1      -1.235   7.334 132.379  0.00  0.00    +0.011 C 
ATOM     17  C   LIG A   1      -1.800   4.913 132.037  0.00  0.00    +0.011 C 
ATOM     18  C   LIG A   1      -4.612   5.874 132.131  0.00  0.00    +0.015 C 
ATOM     19  C   LIG A   1      -6.093   6.224 131.949  0.00  0.00    +0.056 C 
ATOM     20  C   LIG A   1      -6.502   7.236 130.893  0.00  0.00    +0.015 C 
ATOM     21  C   LIG A   1      -6.928   4.956 131.831  0.00  0.00    +0.176 C 
ATOM     22  O   LIG A   1      -7.758   4.719 132.724  0.00  0.00    -0.293 OA
ENDROOT
BRANCH   6  23
ATOM     23  O   LIG A   1      -7.975   4.007 129.858  0.00  0.00    -0.373 OA
ATOM     24  H   LIG A   1      -7.743   3.942 128.918  0.00  0.00    +0.211 HD
ENDBRANCH   6  23
BRANCH   9  25
ATOM     25  O   LIG A   1      -5.329   5.590 126.426  0.00  0.00    -0.385 OA
ATOM     26  H   LIG A   1      -4.844   5.558 125.585  0.00  0.00    +0.211 HD
ENDBRANCH   9  25
TORSDOF 2
ENDMDL
