MODEL 1
REMARK VINA RESULT:      -7.8      0.000      0.000
REMARK  Name = NuBBE_2301
REMARK  5 active torsions:
REMARK  status: ('A' for Active; 'I' for Inactive)
REMARK    1  A    between atoms: C_1  and  C_2
REMARK    2  A    between atoms: C_1  and  C_3
REMARK    3  A    between atoms: C_17  and  O_18
REMARK    4  A    between atoms: O_18  and  C_19
REMARK    5  A    between atoms: C_20  and  C_22
REMARK                            x       y       z     vdW  Elec       q    Type
REMARK                         _______ _______ _______ _____ _____    ______ ____
ROOT
ATOM      1  C   LIG A   1      -6.717  -1.938 125.157  0.00  0.00    -0.013 C 
ATOM      2  C   LIG A   1      -7.784  -0.916 125.544  0.00  0.00    +0.075 C 
ATOM      3  C   LIG A   1      -7.509   0.563 125.313  0.00  0.00    +0.034 C 
ATOM      4  C   LIG A   1      -6.004   0.823 125.481  0.00  0.00    +0.094 C 
ATOM      5  C   LIG A   1      -5.370  -0.069 126.540  0.00  0.00    +0.024 C 
ATOM      6  C   LIG A   1      -5.469  -1.574 126.071  0.00  0.00    +0.010 C 
ATOM      7  N   LIG A   1      -5.864   2.269 125.296  0.00  0.00    -0.264 N 
ATOM      8  C   LIG A   1      -6.753   2.548 124.201  0.00  0.00    +0.082 A 
ATOM      9  C   LIG A   1      -7.683   1.468 124.106  0.00  0.00    -0.013 A 
ATOM     10  C   LIG A   1      -8.670   1.430 123.132  0.00  0.00    +0.006 A 
ATOM     11  C   LIG A   1      -8.743   2.488 122.235  0.00  0.00    +0.004 A 
ATOM     12  C   LIG A   1      -7.814   3.539 122.289  0.00  0.00    +0.047 A 
ATOM     13  C   LIG A   1      -6.793   3.573 123.257  0.00  0.00    +0.142 A 
ATOM     14  C   LIG A   1      -4.876   3.015 125.895  0.00  0.00    +0.217 C 
ATOM     15  O   LIG A   1      -4.001   2.504 126.592  0.00  0.00    -0.276 OA
ATOM     16  C   LIG A   1      -4.907   4.514 125.791  0.00  0.00    +0.110 C 
ATOM     17  C   LIG A   1      -8.614   1.062 126.277  0.00  0.00    +0.030 C 
ATOM     18  C   LIG A   1      -9.792   0.062 125.982  0.00  0.00    +0.086 C 
ATOM     19  N   LIG A   1      -9.183  -1.043 125.184  0.00  0.00    -0.298 NA
ATOM     20  C   LIG A   1      -9.710  -2.373 125.486  0.00  0.00    +0.085 C 
ATOM     21  C   LIG A   1      -8.756  -3.494 125.024  0.00  0.00    +0.016 C 
ATOM     22  C   LIG A   1      -7.326  -3.313 125.571  0.00  0.00    +0.009 C 
ENDROOT
BRANCH   1  23
ATOM     23  C   LIG A   1      -6.392  -1.931 123.636  0.00  0.00    +0.005 C 
ATOM     24  C   LIG A   1      -5.279  -2.882 123.196  0.00  0.00    +0.004 C 
ENDBRANCH   1  23
BRANCH  13  25
ATOM     25  O   LIG A   1      -5.771   4.474 123.196  0.00  0.00    -0.493 OA
ATOM     26  C   LIG A   1      -5.018   4.492 121.986  0.00  0.00    +0.277 C 
ENDBRANCH  13  25
TORSDOF 2
ENDMDL
MODEL 2
REMARK VINA RESULT:      -7.6      1.767      2.305
REMARK  Name = NuBBE_2301
REMARK  5 active torsions:
REMARK  status: ('A' for Active; 'I' for Inactive)
REMARK    1  A    between atoms: C_1  and  C_2
REMARK    2  A    between atoms: C_1  and  C_3
REMARK    3  A    between atoms: C_17  and  O_18
REMARK    4  A    between atoms: O_18  and  C_19
REMARK    5  A    between atoms: C_20  and  C_22
REMARK                            x       y       z     vdW  Elec       q    Type
REMARK                         _______ _______ _______ _____ _____    ______ ____
ROOT
ATOM      1  C   LIG A   1      -7.354  -1.674 124.815  0.00  0.00    -0.013 C 
ATOM      2  C   LIG A   1      -8.257  -0.459 124.614  0.00  0.00    +0.075 C 
ATOM      3  C   LIG A   1      -7.795   0.898 125.126  0.00  0.00    +0.034 C 
ATOM      4  C   LIG A   1      -6.942   0.691 126.387  0.00  0.00    +0.094 C 
ATOM      5  C   LIG A   1      -7.414  -0.489 127.226  0.00  0.00    +0.024 C 
ATOM      6  C   LIG A   1      -7.229  -1.819 126.393  0.00  0.00    +0.010 C 
ATOM      7  N   LIG A   1      -6.605   2.048 126.821  0.00  0.00    -0.264 N 
ATOM      8  C   LIG A   1      -6.314   2.725 125.586  0.00  0.00    +0.082 A 
ATOM      9  C   LIG A   1      -6.916   1.980 124.526  0.00  0.00    -0.013 A 
ATOM     10  C   LIG A   1      -6.803   2.368 123.199  0.00  0.00    +0.006 A 
ATOM     11  C   LIG A   1      -6.085   3.522 122.914  0.00  0.00    +0.004 A 
ATOM     12  C   LIG A   1      -5.455   4.245 123.939  0.00  0.00    +0.047 A 
ATOM     13  C   LIG A   1      -5.541   3.846 125.285  0.00  0.00    +0.142 A 
ATOM     14  C   LIG A   1      -6.376   2.386 128.134  0.00  0.00    +0.217 C 
ATOM     15  O   LIG A   1      -6.388   1.551 129.037  0.00  0.00    -0.276 OA
ATOM     16  C   LIG A   1      -6.205   3.831 128.513  0.00  0.00    +0.110 C 
ATOM     17  C   LIG A   1      -9.203   1.544 125.095  0.00  0.00    +0.030 C 
ATOM     18  C   LIG A   1      -9.803   0.975 123.757  0.00  0.00    +0.086 C 
ATOM     19  N   LIG A   1      -8.886  -0.129 123.349  0.00  0.00    -0.298 NA
ATOM     20  C   LIG A   1      -9.551  -1.283 122.747  0.00  0.00    +0.085 C 
ATOM     21  C   LIG A   1      -8.671  -2.549 122.791  0.00  0.00    +0.016 C 
ATOM     22  C   LIG A   1      -8.163  -2.864 124.211  0.00  0.00    +0.009 C 
ENDROOT
BRANCH   1  23
ATOM     23  C   LIG A   1      -5.981  -1.538 124.097  0.00  0.00    +0.005 C 
ATOM     24  C   LIG A   1      -5.171  -2.828 123.975  0.00  0.00    +0.004 C 
ENDBRANCH   1  23
BRANCH  13  25
ATOM     25  O   LIG A   1      -4.775   4.418 126.258  0.00  0.00    -0.493 OA
ATOM     26  C   LIG A   1      -3.429   3.957 126.352  0.00  0.00    +0.277 C 
ENDBRANCH  13  25
TORSDOF 2
ENDMDL
MODEL 3
REMARK VINA RESULT:      -7.5      4.478      6.289
REMARK  Name = NuBBE_2301
REMARK  5 active torsions:
REMARK  status: ('A' for Active; 'I' for Inactive)
REMARK    1  A    between atoms: C_1  and  C_2
REMARK    2  A    between atoms: C_1  and  C_3
REMARK    3  A    between atoms: C_17  and  O_18
REMARK    4  A    between atoms: O_18  and  C_19
REMARK    5  A    between atoms: C_20  and  C_22
REMARK                            x       y       z     vdW  Elec       q    Type
REMARK                         _______ _______ _______ _____ _____    ______ ____
ROOT
ATOM      1  C   LIG A   1      -4.293  -2.786 130.892  0.00  0.00    -0.013 C 
ATOM      2  C   LIG A   1      -5.746  -2.383 131.134  0.00  0.00    +0.075 C 
ATOM      3  C   LIG A   1      -6.555  -1.808 129.979  0.00  0.00    +0.034 C 
ATOM      4  C   LIG A   1      -5.613  -1.022 129.053  0.00  0.00    +0.094 C 
ATOM      5  C   LIG A   1      -4.487  -0.333 129.811  0.00  0.00    +0.024 C 
ATOM      6  C   LIG A   1      -3.569  -1.432 130.479  0.00  0.00    +0.010 C 
ATOM      7  N   LIG A   1      -6.497  -0.472 128.024  0.00  0.00    -0.264 N 
ATOM      8  C   LIG A   1      -7.400  -1.557 127.751  0.00  0.00    +0.082 A 
ATOM      9  C   LIG A   1      -7.360  -2.450 128.865  0.00  0.00    -0.013 A 
ATOM     10  C   LIG A   1      -8.115  -3.614 128.903  0.00  0.00    +0.006 A 
ATOM     11  C   LIG A   1      -8.933  -3.897 127.817  0.00  0.00    +0.004 A 
ATOM     12  C   LIG A   1      -8.956  -3.051 126.697  0.00  0.00    +0.047 A 
ATOM     13  C   LIG A   1      -8.174  -1.882 126.638  0.00  0.00    +0.142 A 
ATOM     14  C   LIG A   1      -6.240   0.704 127.358  0.00  0.00    +0.217 C 
ATOM     15  O   LIG A   1      -5.213   1.353 127.547  0.00  0.00    -0.276 OA
ATOM     16  C   LIG A   1      -7.282   1.284 126.441  0.00  0.00    +0.110 C 
ATOM     17  C   LIG A   1      -7.651  -1.181 130.878  0.00  0.00    +0.030 C 
ATOM     18  C   LIG A   1      -7.858  -2.290 131.974  0.00  0.00    +0.086 C 
ATOM     19  N   LIG A   1      -6.709  -3.228 131.813  0.00  0.00    -0.298 NA
ATOM     20  C   LIG A   1      -6.182  -3.767 133.065  0.00  0.00    +0.085 C 
ATOM     21  C   LIG A   1      -4.749  -4.315 132.904  0.00  0.00    +0.016 C 
ATOM     22  C   LIG A   1      -3.789  -3.281 132.283  0.00  0.00    +0.009 C 
ENDROOT
BRANCH   1  23
ATOM     23  C   LIG A   1      -4.142  -3.915 129.833  0.00  0.00    +0.005 C 
ATOM     24  C   LIG A   1      -2.925  -3.800 128.917  0.00  0.00    +0.004 C 
ENDBRANCH   1  23
BRANCH  13  25
ATOM     25  O   LIG A   1      -8.034  -1.165 125.486  0.00  0.00    -0.493 OA
ATOM     26  C   LIG A   1      -8.577  -1.755 124.307  0.00  0.00    +0.277 C 
ENDBRANCH  13  25
TORSDOF 2
ENDMDL
MODEL 4
REMARK VINA RESULT:      -7.3      1.969      3.060
REMARK  Name = NuBBE_2301
REMARK  5 active torsions:
REMARK  status: ('A' for Active; 'I' for Inactive)
REMARK    1  A    between atoms: C_1  and  C_2
REMARK    2  A    between atoms: C_1  and  C_3
REMARK    3  A    between atoms: C_17  and  O_18
REMARK    4  A    between atoms: O_18  and  C_19
REMARK    5  A    between atoms: C_20  and  C_22
REMARK                            x       y       z     vdW  Elec       q    Type
REMARK                         _______ _______ _______ _____ _____    ______ ____
ROOT
ATOM      1  C   LIG A   1      -7.267  -1.967 124.742  0.00  0.00    -0.013 C 
ATOM      2  C   LIG A   1      -8.102  -0.697 124.895  0.00  0.00    +0.075 C 
ATOM      3  C   LIG A   1      -7.582   0.428 125.779  0.00  0.00    +0.034 C 
ATOM      4  C   LIG A   1      -6.768  -0.180 126.932  0.00  0.00    +0.094 C 
ATOM      5  C   LIG A   1      -7.317  -1.523 127.392  0.00  0.00    +0.024 C 
ATOM      6  C   LIG A   1      -7.183  -2.565 126.213  0.00  0.00    +0.010 C 
ATOM      7  N   LIG A   1      -6.371   0.974 127.740  0.00  0.00    -0.264 N 
ATOM      8  C   LIG A   1      -6.019   1.961 126.755  0.00  0.00    +0.082 A 
ATOM      9  C   LIG A   1      -6.636   1.587 125.522  0.00  0.00    -0.013 A 
ATOM     10  C   LIG A   1      -6.476   2.332 124.363  0.00  0.00    +0.006 A 
ATOM     11  C   LIG A   1      -5.695   3.479 124.427  0.00  0.00    +0.004 A 
ATOM     12  C   LIG A   1      -5.050   3.841 125.620  0.00  0.00    +0.047 A 
ATOM     13  C   LIG A   1      -5.185   3.076 126.794  0.00  0.00    +0.142 A 
ATOM     14  C   LIG A   1      -6.152   0.907 129.097  0.00  0.00    +0.217 C 
ATOM     15  O   LIG A   1      -6.227  -0.150 129.720  0.00  0.00    -0.276 OA
ATOM     16  C   LIG A   1      -5.916   2.171 129.877  0.00  0.00    +0.110 C 
ATOM     17  C   LIG A   1      -8.954   1.132 125.929  0.00  0.00    +0.030 C 
ATOM     18  C   LIG A   1      -9.554   1.005 124.480  0.00  0.00    +0.086 C 
ATOM     19  N   LIG A   1      -8.686   0.017 123.776  0.00  0.00    -0.298 NA
ATOM     20  C   LIG A   1      -9.397  -0.877 122.864  0.00  0.00    +0.085 C 
ATOM     21  C   LIG A   1      -8.584  -2.149 122.545  0.00  0.00    +0.016 C 
ATOM     22  C   LIG A   1      -8.122  -2.886 123.817  0.00  0.00    +0.009 C 
ENDROOT
BRANCH   1  23
ATOM     23  C   LIG A   1      -5.874  -1.705 124.102  0.00  0.00    +0.005 C 
ATOM     24  C   LIG A   1      -5.110  -2.952 123.656  0.00  0.00    +0.004 C 
ENDBRANCH   1  23
BRANCH  13  25
ATOM     25  O   LIG A   1      -4.411   3.302 127.894  0.00  0.00    -0.493 OA
ATOM     26  C   LIG A   1      -3.001   3.313 127.681  0.00  0.00    +0.277 C 
ENDBRANCH  13  25
TORSDOF 2
ENDMDL
MODEL 5
REMARK VINA RESULT:      -7.3      2.738      4.519
REMARK  Name = NuBBE_2301
REMARK  5 active torsions:
REMARK  status: ('A' for Active; 'I' for Inactive)
REMARK    1  A    between atoms: C_1  and  C_2
REMARK    2  A    between atoms: C_1  and  C_3
REMARK    3  A    between atoms: C_17  and  O_18
REMARK    4  A    between atoms: O_18  and  C_19
REMARK    5  A    between atoms: C_20  and  C_22
REMARK                            x       y       z     vdW  Elec       q    Type
REMARK                         _______ _______ _______ _____ _____    ______ ____
ROOT
ATOM      1  C   LIG A   1      -7.801  -2.659 124.925  0.00  0.00    -0.013 C 
ATOM      2  C   LIG A   1      -8.381  -1.273 125.194  0.00  0.00    +0.075 C 
ATOM      3  C   LIG A   1      -7.927  -0.510 126.431  0.00  0.00    +0.034 C 
ATOM      4  C   LIG A   1      -7.611  -1.515 127.549  0.00  0.00    +0.094 C 
ATOM      5  C   LIG A   1      -8.519  -2.736 127.513  0.00  0.00    +0.024 C 
ATOM      6  C   LIG A   1      -8.259  -3.531 126.173  0.00  0.00    +0.010 C 
ATOM      7  N   LIG A   1      -7.245  -0.678 128.693  0.00  0.00    -0.264 N 
ATOM      8  C   LIG A   1      -6.441   0.357 128.100  0.00  0.00    +0.082 A 
ATOM      9  C   LIG A   1      -6.740   0.397 126.704  0.00  0.00    -0.013 A 
ATOM     10  C   LIG A   1      -6.114   1.285 125.843  0.00  0.00    +0.006 A 
ATOM     11  C   LIG A   1      -5.176   2.160 126.375  0.00  0.00    +0.004 A 
ATOM     12  C   LIG A   1      -4.842   2.109 127.738  0.00  0.00    +0.047 A 
ATOM     13  C   LIG A   1      -5.452   1.194 128.614  0.00  0.00    +0.142 A 
ATOM     14  C   LIG A   1      -7.441  -1.058 130.001  0.00  0.00    +0.217 C 
ATOM     15  O   LIG A   1      -7.894  -2.161 130.301  0.00  0.00    -0.276 OA
ATOM     16  C   LIG A   1      -7.197  -0.071 131.109  0.00  0.00    +0.110 C 
ATOM     17  C   LIG A   1      -9.120   0.479 126.429  0.00  0.00    +0.030 C 
ATOM     18  C   LIG A   1      -9.294   0.790 124.897  0.00  0.00    +0.086 C 
ATOM     19  N   LIG A   1      -8.470  -0.232 124.188  0.00  0.00    -0.298 NA
ATOM     20  C   LIG A   1      -9.050  -0.722 122.939  0.00  0.00    +0.085 C 
ATOM     21  C   LIG A   1      -8.443  -2.074 122.508  0.00  0.00    +0.016 C 
ATOM     22  C   LIG A   1      -8.518  -3.135 123.623  0.00  0.00    +0.009 C 
ENDROOT
BRANCH   1  23
ATOM     23  C   LIG A   1      -6.260  -2.644 124.714  0.00  0.00    +0.005 C 
ATOM     24  C   LIG A   1      -5.671  -3.899 124.071  0.00  0.00    +0.004 C 
ENDBRANCH   1  23
BRANCH  13  25
ATOM     25  O   LIG A   1      -4.997   0.998 129.885  0.00  0.00    -0.493 OA
ATOM     26  C   LIG A   1      -4.243   2.066 130.456  0.00  0.00    +0.277 C 
ENDBRANCH  13  25
TORSDOF 2
ENDMDL
MODEL 6
REMARK VINA RESULT:      -7.2      7.088     10.102
REMARK  Name = NuBBE_2301
REMARK  5 active torsions:
REMARK  status: ('A' for Active; 'I' for Inactive)
REMARK    1  A    between atoms: C_1  and  C_2
REMARK    2  A    between atoms: C_1  and  C_3
REMARK    3  A    between atoms: C_17  and  O_18
REMARK    4  A    between atoms: O_18  and  C_19
REMARK    5  A    between atoms: C_20  and  C_22
REMARK                            x       y       z     vdW  Elec       q    Type
REMARK                         _______ _______ _______ _____ _____    ______ ____
ROOT
ATOM      1  C   LIG A   1      -2.716   6.333 130.571  0.00  0.00    -0.013 C 
ATOM      2  C   LIG A   1      -3.821   5.379 130.122  0.00  0.00    +0.075 C 
ATOM      3  C   LIG A   1      -4.799   4.842 131.158  0.00  0.00    +0.034 C 
ATOM      4  C   LIG A   1      -4.073   4.704 132.505  0.00  0.00    +0.094 C 
ATOM      5  C   LIG A   1      -2.610   4.317 132.345  0.00  0.00    +0.024 C 
ATOM      6  C   LIG A   1      -1.849   5.481 131.596  0.00  0.00    +0.010 C 
ATOM      7  N   LIG A   1      -5.080   4.132 133.401  0.00  0.00    -0.264 N 
ATOM      8  C   LIG A   1      -6.279   4.842 133.044  0.00  0.00    +0.082 A 
ATOM      9  C   LIG A   1      -6.090   5.391 131.739  0.00  0.00    -0.013 A 
ATOM     10  C   LIG A   1      -7.066   6.151 131.112  0.00  0.00    +0.006 A 
ATOM     11  C   LIG A   1      -8.261   6.366 131.787  0.00  0.00    +0.004 A 
ATOM     12  C   LIG A   1      -8.450   5.866 133.085  0.00  0.00    +0.047 A 
ATOM     13  C   LIG A   1      -7.455   5.117 133.740  0.00  0.00    +0.142 A 
ATOM     14  C   LIG A   1      -4.769   3.330 134.474  0.00  0.00    +0.217 C 
ATOM     15  O   LIG A   1      -3.607   3.078 134.787  0.00  0.00    -0.276 OA
ATOM     16  C   LIG A   1      -5.869   2.646 135.237  0.00  0.00    +0.110 C 
ATOM     17  C   LIG A   1      -5.292   3.661 130.284  0.00  0.00    +0.030 C 
ATOM     18  C   LIG A   1      -5.389   4.319 128.858  0.00  0.00    +0.086 C 
ATOM     19  N   LIG A   1      -4.672   5.622 128.973  0.00  0.00    -0.298 NA
ATOM     20  C   LIG A   1      -3.901   6.000 127.789  0.00  0.00    +0.085 C 
ATOM     21  C   LIG A   1      -2.825   7.057 128.109  0.00  0.00    +0.016 C 
ATOM     22  C   LIG A   1      -1.906   6.629 129.271  0.00  0.00    +0.009 C 
ENDROOT
BRANCH   1  23
ATOM     23  C   LIG A   1      -3.263   7.657 131.177  0.00  0.00    +0.005 C 
ATOM     24  C   LIG A   1      -2.557   8.143 132.442  0.00  0.00    +0.004 C 
ENDBRANCH   1  23
BRANCH  13  25
ATOM     25  O   LIG A   1      -7.545   4.800 135.064  0.00  0.00    -0.493 OA
ATOM     26  C   LIG A   1      -7.474   5.891 135.979  0.00  0.00    +0.277 C 
ENDBRANCH  13  25
TORSDOF 2
ENDMDL
MODEL 7
REMARK VINA RESULT:      -6.9      3.090      6.260
REMARK  Name = NuBBE_2301
REMARK  5 active torsions:
REMARK  status: ('A' for Active; 'I' for Inactive)
REMARK    1  A    between atoms: C_1  and  C_2
REMARK    2  A    between atoms: C_1  and  C_3
REMARK    3  A    between atoms: C_17  and  O_18
REMARK    4  A    between atoms: O_18  and  C_19
REMARK    5  A    between atoms: C_20  and  C_22
REMARK                            x       y       z     vdW  Elec       q    Type
REMARK                         _______ _______ _______ _____ _____    ______ ____
ROOT
ATOM      1  C   LIG A   1      -7.267   1.629 126.193  0.00  0.00    -0.013 C 
ATOM      2  C   LIG A   1      -6.775   0.290 125.648  0.00  0.00    +0.075 C 
ATOM      3  C   LIG A   1      -6.445  -0.829 126.626  0.00  0.00    +0.034 C 
ATOM      4  C   LIG A   1      -5.913  -0.212 127.929  0.00  0.00    +0.094 C 
ATOM      5  C   LIG A   1      -5.109   1.058 127.690  0.00  0.00    +0.024 C 
ATOM      6  C   LIG A   1      -6.061   2.162 127.081  0.00  0.00    +0.010 C 
ATOM      7  N   LIG A   1      -5.576  -1.367 128.763  0.00  0.00    -0.264 N 
ATOM      8  C   LIG A   1      -6.667  -2.274 128.525  0.00  0.00    +0.082 A 
ATOM      9  C   LIG A   1      -7.292  -1.894 127.299  0.00  0.00    -0.013 A 
ATOM     10  C   LIG A   1      -8.394  -2.569 126.795  0.00  0.00    +0.006 A 
ATOM     11  C   LIG A   1      -8.885  -3.649 127.517  0.00  0.00    +0.004 A 
ATOM     12  C   LIG A   1      -8.307  -4.013 128.743  0.00  0.00    +0.047 A 
ATOM     13  C   LIG A   1      -7.205  -3.318 129.275  0.00  0.00    +0.142 A 
ATOM     14  C   LIG A   1      -4.586  -1.347 129.717  0.00  0.00    +0.217 C 
ATOM     15  O   LIG A   1      -3.943  -0.330 129.972  0.00  0.00    -0.276 OA
ATOM     16  C   LIG A   1      -4.190  -2.622 130.409  0.00  0.00    +0.110 C 
ATOM     17  C   LIG A   1      -5.601  -1.650 125.617  0.00  0.00    +0.030 C 
ATOM     18  C   LIG A   1      -6.434  -1.504 124.290  0.00  0.00    +0.086 C 
ATOM     19  N   LIG A   1      -7.419  -0.416 124.557  0.00  0.00    -0.298 NA
ATOM     20  C   LIG A   1      -7.684   0.458 123.416  0.00  0.00    +0.085 C 
ATOM     21  C   LIG A   1      -8.299   1.806 123.848  0.00  0.00    +0.016 C 
ATOM     22  C   LIG A   1      -7.458   2.518 124.926  0.00  0.00    +0.009 C 
ENDROOT
BRANCH   1  23
ATOM     23  C   LIG A   1      -8.606   1.513 126.976  0.00  0.00    +0.005 C 
ATOM     24  C   LIG A   1      -8.595   2.094 128.389  0.00  0.00    +0.004 C 
ENDBRANCH   1  23
BRANCH  13  25
ATOM     25  O   LIG A   1      -6.765  -3.531 130.549  0.00  0.00    -0.493 OA
ATOM     26  C   LIG A   1      -7.480  -2.860 131.583  0.00  0.00    +0.277 C 
ENDBRANCH  13  25
TORSDOF 2
ENDMDL
MODEL 8
REMARK VINA RESULT:      -6.9      2.485      6.186
REMARK  Name = NuBBE_2301
REMARK  5 active torsions:
REMARK  status: ('A' for Active; 'I' for Inactive)
REMARK    1  A    between atoms: C_1  and  C_2
REMARK    2  A    between atoms: C_1  and  C_3
REMARK    3  A    between atoms: C_17  and  O_18
REMARK    4  A    between atoms: O_18  and  C_19
REMARK    5  A    between atoms: C_20  and  C_22
REMARK                            x       y       z     vdW  Elec       q    Type
REMARK                         _______ _______ _______ _____ _____    ______ ____
ROOT
ATOM      1  C   LIG A   1      -4.070   3.626 126.902  0.00  0.00    -0.013 C 
ATOM      2  C   LIG A   1      -5.318   3.069 127.582  0.00  0.00    +0.075 C 
ATOM      3  C   LIG A   1      -6.004   1.849 126.983  0.00  0.00    +0.034 C 
ATOM      4  C   LIG A   1      -5.827   1.877 125.457  0.00  0.00    +0.094 C 
ATOM      5  C   LIG A   1      -5.824   3.291 124.894  0.00  0.00    +0.024 C 
ATOM      6  C   LIG A   1      -4.569   4.066 125.458  0.00  0.00    +0.010 C 
ATOM      7  N   LIG A   1      -6.567   0.704 124.987  0.00  0.00    -0.264 N 
ATOM      8  C   LIG A   1      -6.235  -0.305 125.957  0.00  0.00    +0.082 A 
ATOM      9  C   LIG A   1      -5.770   0.357 127.134  0.00  0.00    -0.013 A 
ATOM     10  C   LIG A   1      -5.354  -0.344 128.257  0.00  0.00    +0.006 A 
ATOM     11  C   LIG A   1      -5.407  -1.732 128.217  0.00  0.00    +0.004 A 
ATOM     12  C   LIG A   1      -5.825  -2.400 127.055  0.00  0.00    +0.047 A 
ATOM     13  C   LIG A   1      -6.223  -1.698 125.902  0.00  0.00    +0.142 A 
ATOM     14  C   LIG A   1      -7.162   0.632 123.749  0.00  0.00    +0.217 C 
ATOM     15  O   LIG A   1      -7.068   1.539 122.924  0.00  0.00    -0.276 OA
ATOM     16  C   LIG A   1      -8.045  -0.537 123.413  0.00  0.00    +0.110 C 
ATOM     17  C   LIG A   1      -7.344   2.063 127.731  0.00  0.00    +0.030 C 
ATOM     18  C   LIG A   1      -6.862   2.512 129.159  0.00  0.00    +0.086 C 
ATOM     19  N   LIG A   1      -5.410   2.821 129.009  0.00  0.00    -0.298 NA
ATOM     20  C   LIG A   1      -4.945   3.962 129.796  0.00  0.00    +0.085 C 
ATOM     21  C   LIG A   1      -3.616   4.534 129.260  0.00  0.00    +0.016 C 
ATOM     22  C   LIG A   1      -3.682   4.871 127.758  0.00  0.00    +0.009 C 
ENDROOT
BRANCH   1  23
ATOM     23  C   LIG A   1      -2.892   2.611 126.865  0.00  0.00    +0.005 C 
ATOM     24  C   LIG A   1      -1.534   3.193 126.475  0.00  0.00    +0.004 C 
ENDBRANCH   1  23
BRANCH  13  25
ATOM     25  O   LIG A   1      -6.437  -2.328 124.712  0.00  0.00    -0.493 OA
ATOM     26  C   LIG A   1      -5.293  -2.915 124.095  0.00  0.00    +0.277 C 
ENDBRANCH  13  25
TORSDOF 2
ENDMDL
MODEL 9
REMARK VINA RESULT:      -6.8      5.532      7.910
REMARK  Name = NuBBE_2301
REMARK  5 active torsions:
REMARK  status: ('A' for Active; 'I' for Inactive)
REMARK    1  A    between atoms: C_1  and  C_2
REMARK    2  A    between atoms: C_1  and  C_3
REMARK    3  A    between atoms: C_17  and  O_18
REMARK    4  A    between atoms: O_18  and  C_19
REMARK    5  A    between atoms: C_20  and  C_22
REMARK                            x       y       z     vdW  Elec       q    Type
REMARK                         _______ _______ _______ _____ _____    ______ ____
ROOT
ATOM      1  C   LIG A   1      -7.501   2.784 130.305  0.00  0.00    -0.013 C 
ATOM      2  C   LIG A   1      -6.176   2.071 130.047  0.00  0.00    +0.075 C 
ATOM      3  C   LIG A   1      -4.889   2.883 130.038  0.00  0.00    +0.034 C 
ATOM      4  C   LIG A   1      -5.193   4.295 129.512  0.00  0.00    +0.094 C 
ATOM      5  C   LIG A   1      -6.285   4.301 128.451  0.00  0.00    +0.024 C 
ATOM      6  C   LIG A   1      -7.639   3.814 129.102  0.00  0.00    +0.010 C 
ATOM      7  N   LIG A   1      -3.890   4.961 129.492  0.00  0.00    -0.264 N 
ATOM      8  C   LIG A   1      -3.277   4.523 130.717  0.00  0.00    +0.082 A 
ATOM      9  C   LIG A   1      -3.946   3.334 131.139  0.00  0.00    -0.013 A 
ATOM     10  C   LIG A   1      -3.597   2.668 132.305  0.00  0.00    +0.006 A 
ATOM     11  C   LIG A   1      -2.557   3.185 133.066  0.00  0.00    +0.004 A 
ATOM     12  C   LIG A   1      -1.914   4.374 132.686  0.00  0.00    +0.047 A 
ATOM     13  C   LIG A   1      -2.278   5.071 131.520  0.00  0.00    +0.142 A 
ATOM     14  C   LIG A   1      -3.568   5.964 128.607  0.00  0.00    +0.217 C 
ATOM     15  O   LIG A   1      -4.381   6.409 127.799  0.00  0.00    -0.276 OA
ATOM     16  C   LIG A   1      -2.156   6.474 128.540  0.00  0.00    +0.110 C 
ATOM     17  C   LIG A   1      -4.054   1.813 129.290  0.00  0.00    +0.030 C 
ATOM     18  C   LIG A   1      -4.554   0.477 129.953  0.00  0.00    +0.086 C 
ATOM     19  N   LIG A   1      -5.780   0.848 130.719  0.00  0.00    -0.298 NA
ATOM     20  C   LIG A   1      -6.839  -0.159 130.698  0.00  0.00    +0.085 C 
ATOM     21  C   LIG A   1      -8.214   0.437 131.065  0.00  0.00    +0.016 C 
ATOM     22  C   LIG A   1      -8.576   1.659 130.199  0.00  0.00    +0.009 C 
ENDROOT
BRANCH   1  23
ATOM     23  C   LIG A   1      -7.566   3.459 131.705  0.00  0.00    +0.005 C 
ATOM     24  C   LIG A   1      -8.160   4.866 131.731  0.00  0.00    +0.004 C 
ENDBRANCH   1  23
BRANCH  13  25
ATOM     25  O   LIG A   1      -1.804   6.320 131.248  0.00  0.00    -0.493 OA
ATOM     26  C   LIG A   1      -0.751   6.791 132.086  0.00  0.00    +0.277 C 
ENDBRANCH  13  25
TORSDOF 2
ENDMDL
