MODEL 1
REMARK VINA RESULT:      -6.2      0.000      0.000
REMARK  Name = NuBBE_1500
REMARK  6 active torsions:
REMARK  status: ('A' for Active; 'I' for Inactive)
REMARK    1  A    between atoms: C_1  and  C_6
REMARK    2  A    between atoms: C_2  and  C_3
REMARK    3  A    between atoms: C_3  and  C_5
REMARK    4  A    between atoms: C_7  and  C_14
REMARK    5  A    between atoms: C_11  and  C_12
REMARK    6  A    between atoms: C_11  and  C_13
REMARK                            x       y       z     vdW  Elec       q    Type
REMARK                         _______ _______ _______ _____ _____    ______ ____
ROOT
ATOM      1  C   LIG A   1     -11.262   7.452 128.858  0.00  0.00    -0.043 C 
ATOM      2  C   LIG A   1     -11.296   7.156 127.533  0.00  0.00    -0.069 C 
ATOM      3  C   LIG A   1     -12.593   7.057 126.755  0.00  0.00    +0.031 C 
ATOM      4  C   LIG A   1     -13.805   7.637 127.468  0.00  0.00    +0.005 C 
ATOM      5  C   LIG A   1     -13.810   7.202 128.923  0.00  0.00    +0.011 C 
ATOM      6  C   LIG A   1     -12.549   7.698 129.684  0.00  0.00    -0.010 C 
ATOM      7  C   LIG A   1     -12.702   9.208 129.982  0.00  0.00    +0.016 C 
ATOM      8  C   LIG A   1     -12.527   6.935 131.029  0.00  0.00    +0.016 C 
ATOM      9  C   LIG A   1     -10.095   6.910 126.649  0.00  0.00    +0.039 C 
ENDROOT
BRANCH   1  10
ATOM     10  C   LIG A   1     -10.013   7.598 129.602  0.00  0.00    +0.007 C 
ATOM     11  C   LIG A   1      -9.368   6.590 130.209  0.00  0.00    +0.046 C 
BRANCH  11  12
ATOM     12  C   LIG A   1      -8.089   6.839 130.927  0.00  0.00    +0.153 C 
ATOM     13  O   LIG A   1      -7.220   7.576 130.462  0.00  0.00    -0.293 OA
ATOM     14  C   LIG A   1      -7.884   6.114 132.232  0.00  0.00    +0.091 C 
ENDBRANCH  11  12
ENDBRANCH   1  10
TORSDOF 2
ENDMDL
MODEL 2
REMARK VINA RESULT:      -5.9      9.139     11.056
REMARK  Name = NuBBE_1500
REMARK  6 active torsions:
REMARK  status: ('A' for Active; 'I' for Inactive)
REMARK    1  A    between atoms: C_1  and  C_6
REMARK    2  A    between atoms: C_2  and  C_3
REMARK    3  A    between atoms: C_3  and  C_5
REMARK    4  A    between atoms: C_7  and  C_14
REMARK    5  A    between atoms: C_11  and  C_12
REMARK    6  A    between atoms: C_11  and  C_13
REMARK                            x       y       z     vdW  Elec       q    Type
REMARK                         _______ _______ _______ _____ _____    ______ ____
ROOT
ATOM      1  C   LIG A   1      -7.550  -1.311 123.637  0.00  0.00    -0.043 C 
ATOM      2  C   LIG A   1      -8.808  -1.629 123.235  0.00  0.00    -0.069 C 
ATOM      3  C   LIG A   1      -9.435  -2.979 123.520  0.00  0.00    +0.031 C 
ATOM      4  C   LIG A   1      -8.702  -3.810 124.561  0.00  0.00    +0.005 C 
ATOM      5  C   LIG A   1      -7.206  -3.756 124.311  0.00  0.00    +0.011 C 
ATOM      6  C   LIG A   1      -6.650  -2.309 124.406  0.00  0.00    -0.010 C 
ATOM      7  C   LIG A   1      -6.563  -1.899 125.895  0.00  0.00    +0.016 C 
ATOM      8  C   LIG A   1      -5.215  -2.356 123.828  0.00  0.00    +0.016 C 
ATOM      9  C   LIG A   1      -9.757  -0.719 122.490  0.00  0.00    +0.039 C 
ENDROOT
BRANCH   1  10
ATOM     10  C   LIG A   1      -6.959   0.007 123.409  0.00  0.00    +0.007 C 
ATOM     11  C   LIG A   1      -7.238   1.100 124.135  0.00  0.00    +0.046 C 
BRANCH  11  12
ATOM     12  C   LIG A   1      -6.568   2.394 123.835  0.00  0.00    +0.153 C 
ATOM     13  O   LIG A   1      -5.933   3.007 124.693  0.00  0.00    -0.293 OA
ATOM     14  C   LIG A   1      -6.737   2.947 122.443  0.00  0.00    +0.091 C 
ENDBRANCH  11  12
ENDBRANCH   1  10
TORSDOF 2
ENDMDL
MODEL 3
REMARK VINA RESULT:      -5.8      8.449     10.431
REMARK  Name = NuBBE_1500
REMARK  6 active torsions:
REMARK  status: ('A' for Active; 'I' for Inactive)
REMARK    1  A    between atoms: C_1  and  C_6
REMARK    2  A    between atoms: C_2  and  C_3
REMARK    3  A    between atoms: C_3  and  C_5
REMARK    4  A    between atoms: C_7  and  C_14
REMARK    5  A    between atoms: C_11  and  C_12
REMARK    6  A    between atoms: C_11  and  C_13
REMARK                            x       y       z     vdW  Elec       q    Type
REMARK                         _______ _______ _______ _____ _____    ______ ____
ROOT
ATOM      1  C   LIG A   1      -8.263  -0.954 124.751  0.00  0.00    -0.043 C 
ATOM      2  C   LIG A   1      -8.217  -1.504 125.992  0.00  0.00    -0.069 C 
ATOM      3  C   LIG A   1      -8.397  -2.991 126.228  0.00  0.00    +0.031 C 
ATOM      4  C   LIG A   1      -8.293  -3.849 124.977  0.00  0.00    +0.005 C 
ATOM      5  C   LIG A   1      -9.069  -3.207 123.840  0.00  0.00    +0.011 C 
ATOM      6  C   LIG A   1      -8.518  -1.800 123.479  0.00  0.00    -0.010 C 
ATOM      7  C   LIG A   1      -7.202  -1.963 122.683  0.00  0.00    +0.016 C 
ATOM      8  C   LIG A   1      -9.570  -1.146 122.553  0.00  0.00    +0.016 C 
ATOM      9  C   LIG A   1      -7.966  -0.761 127.283  0.00  0.00    +0.039 C 
ENDROOT
BRANCH   1  10
ATOM     10  C   LIG A   1      -8.039   0.471 124.512  0.00  0.00    +0.007 C 
ATOM     11  C   LIG A   1      -8.968   1.424 124.683  0.00  0.00    +0.046 C 
BRANCH  11  12
ATOM     12  C   LIG A   1      -8.636   2.852 124.430  0.00  0.00    +0.153 C 
ATOM     13  O   LIG A   1      -8.930   3.736 125.235  0.00  0.00    -0.293 OA
ATOM     14  C   LIG A   1      -7.963   3.178 123.122  0.00  0.00    +0.091 C 
ENDBRANCH  11  12
ENDBRANCH   1  10
TORSDOF 2
ENDMDL
MODEL 4
REMARK VINA RESULT:      -5.8      9.967     11.726
REMARK  Name = NuBBE_1500
REMARK  6 active torsions:
REMARK  status: ('A' for Active; 'I' for Inactive)
REMARK    1  A    between atoms: C_1  and  C_6
REMARK    2  A    between atoms: C_2  and  C_3
REMARK    3  A    between atoms: C_3  and  C_5
REMARK    4  A    between atoms: C_7  and  C_14
REMARK    5  A    between atoms: C_11  and  C_12
REMARK    6  A    between atoms: C_11  and  C_13
REMARK                            x       y       z     vdW  Elec       q    Type
REMARK                         _______ _______ _______ _____ _____    ______ ____
ROOT
ATOM      1  C   LIG A   1      -7.828  -2.454 127.235  0.00  0.00    -0.043 C 
ATOM      2  C   LIG A   1      -8.303  -3.292 128.192  0.00  0.00    -0.069 C 
ATOM      3  C   LIG A   1      -7.678  -3.391 129.570  0.00  0.00    +0.031 C 
ATOM      4  C   LIG A   1      -6.715  -2.263 129.911  0.00  0.00    +0.005 C 
ATOM      5  C   LIG A   1      -5.803  -1.983 128.730  0.00  0.00    +0.011 C 
ATOM      6  C   LIG A   1      -6.598  -1.542 127.470  0.00  0.00    -0.010 C 
ATOM      7  C   LIG A   1      -7.057  -0.076 127.651  0.00  0.00    +0.016 C 
ATOM      8  C   LIG A   1      -5.603  -1.600 126.287  0.00  0.00    +0.016 C 
ATOM      9  C   LIG A   1      -9.498  -4.208 128.056  0.00  0.00    +0.039 C 
ENDROOT
BRANCH   1  10
ATOM     10  C   LIG A   1      -8.458  -2.317 125.923  0.00  0.00    +0.007 C 
ATOM     11  C   LIG A   1      -8.327  -3.201 124.923  0.00  0.00    +0.046 C 
BRANCH  11  12
ATOM     12  C   LIG A   1      -9.025  -2.980 123.627  0.00  0.00    +0.153 C 
ATOM     13  O   LIG A   1     -10.089  -3.540 123.364  0.00  0.00    -0.293 OA
ATOM     14  C   LIG A   1      -8.350  -2.074 122.630  0.00  0.00    +0.091 C 
ENDBRANCH  11  12
ENDBRANCH   1  10
TORSDOF 2
ENDMDL
MODEL 5
REMARK VINA RESULT:      -5.5      9.925     11.123
REMARK  Name = NuBBE_1500
REMARK  6 active torsions:
REMARK  status: ('A' for Active; 'I' for Inactive)
REMARK    1  A    between atoms: C_1  and  C_6
REMARK    2  A    between atoms: C_2  and  C_3
REMARK    3  A    between atoms: C_3  and  C_5
REMARK    4  A    between atoms: C_7  and  C_14
REMARK    5  A    between atoms: C_11  and  C_12
REMARK    6  A    between atoms: C_11  and  C_13
REMARK                            x       y       z     vdW  Elec       q    Type
REMARK                         _______ _______ _______ _____ _____    ______ ____
ROOT
ATOM      1  C   LIG A   1      -7.407  -2.079 125.823  0.00  0.00    -0.043 C 
ATOM      2  C   LIG A   1      -8.478  -2.912 125.889  0.00  0.00    -0.069 C 
ATOM      3  C   LIG A   1      -9.292  -3.289 124.667  0.00  0.00    +0.031 C 
ATOM      4  C   LIG A   1      -8.634  -2.949 123.339  0.00  0.00    +0.005 C 
ATOM      5  C   LIG A   1      -8.035  -1.555 123.396  0.00  0.00    +0.011 C 
ATOM      6  C   LIG A   1      -6.942  -1.435 124.493  0.00  0.00    -0.010 C 
ATOM      7  C   LIG A   1      -5.651  -2.127 123.997  0.00  0.00    +0.016 C 
ATOM      8  C   LIG A   1      -6.654   0.077 124.655  0.00  0.00    +0.016 C 
ATOM      9  C   LIG A   1      -8.997  -3.591 127.136  0.00  0.00    +0.039 C 
ENDROOT
BRANCH   1  10
ATOM     10  C   LIG A   1      -6.588  -1.752 126.989  0.00  0.00    +0.007 C 
ATOM     11  C   LIG A   1      -5.589  -2.517 127.452  0.00  0.00    +0.046 C 
BRANCH  11  12
ATOM     12  C   LIG A   1      -4.800  -2.088 128.639  0.00  0.00    +0.153 C 
ATOM     13  O   LIG A   1      -4.916  -0.959 129.117  0.00  0.00    -0.293 OA
ATOM     14  C   LIG A   1      -3.819  -3.080 129.206  0.00  0.00    +0.091 C 
ENDBRANCH  11  12
ENDBRANCH   1  10
TORSDOF 2
ENDMDL
MODEL 6
REMARK VINA RESULT:      -5.5      9.540     10.941
REMARK  Name = NuBBE_1500
REMARK  6 active torsions:
REMARK  status: ('A' for Active; 'I' for Inactive)
REMARK    1  A    between atoms: C_1  and  C_6
REMARK    2  A    between atoms: C_2  and  C_3
REMARK    3  A    between atoms: C_3  and  C_5
REMARK    4  A    between atoms: C_7  and  C_14
REMARK    5  A    between atoms: C_11  and  C_12
REMARK    6  A    between atoms: C_11  and  C_13
REMARK                            x       y       z     vdW  Elec       q    Type
REMARK                         _______ _______ _______ _____ _____    ______ ____
ROOT
ATOM      1  C   LIG A   1      -7.750  -1.683 125.475  0.00  0.00    -0.043 C 
ATOM      2  C   LIG A   1      -8.503  -0.580 125.230  0.00  0.00    -0.069 C 
ATOM      3  C   LIG A   1      -9.073  -0.272 123.859  0.00  0.00    +0.031 C 
ATOM      4  C   LIG A   1      -9.029  -1.436 122.880  0.00  0.00    +0.005 C 
ATOM      5  C   LIG A   1      -7.681  -2.128 122.955  0.00  0.00    +0.011 C 
ATOM      6  C   LIG A   1      -7.400  -2.708 124.368  0.00  0.00    -0.010 C 
ATOM      7  C   LIG A   1      -8.235  -3.995 124.561  0.00  0.00    +0.016 C 
ATOM      8  C   LIG A   1      -5.901  -3.092 124.390  0.00  0.00    +0.016 C 
ATOM      9  C   LIG A   1      -8.900   0.466 126.246  0.00  0.00    +0.039 C 
ENDROOT
BRANCH   1  10
ATOM     10  C   LIG A   1      -7.240  -2.011 126.805  0.00  0.00    +0.007 C 
ATOM     11  C   LIG A   1      -7.927  -2.693 127.734  0.00  0.00    +0.046 C 
BRANCH  11  12
ATOM     12  C   LIG A   1      -7.313  -2.992 129.056  0.00  0.00    +0.153 C 
ATOM     13  O   LIG A   1      -7.999  -3.272 130.039  0.00  0.00    -0.293 OA
ATOM     14  C   LIG A   1      -5.812  -2.895 129.152  0.00  0.00    +0.091 C 
ENDBRANCH  11  12
ENDBRANCH   1  10
TORSDOF 2
ENDMDL
MODEL 7
REMARK VINA RESULT:      -5.4      8.471     10.081
REMARK  Name = NuBBE_1500
REMARK  6 active torsions:
REMARK  status: ('A' for Active; 'I' for Inactive)
REMARK    1  A    between atoms: C_1  and  C_6
REMARK    2  A    between atoms: C_2  and  C_3
REMARK    3  A    between atoms: C_3  and  C_5
REMARK    4  A    between atoms: C_7  and  C_14
REMARK    5  A    between atoms: C_11  and  C_12
REMARK    6  A    between atoms: C_11  and  C_13
REMARK                            x       y       z     vdW  Elec       q    Type
REMARK                         _______ _______ _______ _____ _____    ______ ____
ROOT
ATOM      1  C   LIG A   1      -7.882  -1.603 127.191  0.00  0.00    -0.043 C 
ATOM      2  C   LIG A   1      -8.660  -2.693 126.963  0.00  0.00    -0.069 C 
ATOM      3  C   LIG A   1      -8.757  -3.843 127.946  0.00  0.00    +0.031 C 
ATOM      4  C   LIG A   1      -8.200  -3.542 129.329  0.00  0.00    +0.005 C 
ATOM      5  C   LIG A   1      -6.873  -2.814 129.209  0.00  0.00    +0.011 C 
ATOM      6  C   LIG A   1      -7.018  -1.456 128.468  0.00  0.00    -0.010 C 
ATOM      7  C   LIG A   1      -7.663  -0.427 129.424  0.00  0.00    +0.016 C 
ATOM      8  C   LIG A   1      -5.581  -0.986 128.142  0.00  0.00    +0.016 C 
ATOM      9  C   LIG A   1      -9.539  -2.917 125.754  0.00  0.00    +0.039 C 
ENDROOT
BRANCH   1  10
ATOM     10  C   LIG A   1      -7.824  -0.469 126.272  0.00  0.00    +0.007 C 
ATOM     11  C   LIG A   1      -8.677   0.567 126.289  0.00  0.00    +0.046 C 
BRANCH  11  12
ATOM     12  C   LIG A   1      -8.523   1.685 125.320  0.00  0.00    +0.153 C 
ATOM     13  O   LIG A   1      -9.493   2.325 124.914  0.00  0.00    -0.293 OA
ATOM     14  C   LIG A   1      -7.131   1.972 124.819  0.00  0.00    +0.091 C 
ENDBRANCH  11  12
ENDBRANCH   1  10
TORSDOF 2
ENDMDL
MODEL 8
REMARK VINA RESULT:      -5.3      9.140     10.882
REMARK  Name = NuBBE_1500
REMARK  6 active torsions:
REMARK  status: ('A' for Active; 'I' for Inactive)
REMARK    1  A    between atoms: C_1  and  C_6
REMARK    2  A    between atoms: C_2  and  C_3
REMARK    3  A    between atoms: C_3  and  C_5
REMARK    4  A    between atoms: C_7  and  C_14
REMARK    5  A    between atoms: C_11  and  C_12
REMARK    6  A    between atoms: C_11  and  C_13
REMARK                            x       y       z     vdW  Elec       q    Type
REMARK                         _______ _______ _______ _____ _____    ______ ____
ROOT
ATOM      1  C   LIG A   1      -6.739  -1.500 125.418  0.00  0.00    -0.043 C 
ATOM      2  C   LIG A   1      -7.571  -1.971 126.383  0.00  0.00    -0.069 C 
ATOM      3  C   LIG A   1      -8.459  -3.181 126.171  0.00  0.00    +0.031 C 
ATOM      4  C   LIG A   1      -8.110  -4.017 124.950  0.00  0.00    +0.005 C 
ATOM      5  C   LIG A   1      -7.839  -3.113 123.761  0.00  0.00    +0.011 C 
ATOM      6  C   LIG A   1      -6.643  -2.155 124.017  0.00  0.00    -0.010 C 
ATOM      7  C   LIG A   1      -5.324  -2.952 123.899  0.00  0.00    +0.016 C 
ATOM      8  C   LIG A   1      -6.681  -1.102 122.884  0.00  0.00    +0.016 C 
ATOM      9  C   LIG A   1      -7.724  -1.403 127.775  0.00  0.00    +0.039 C 
ENDROOT
BRANCH   1  10
ATOM     10  C   LIG A   1      -5.844  -0.365 125.633  0.00  0.00    +0.007 C 
ATOM     11  C   LIG A   1      -6.225   0.920 125.597  0.00  0.00    +0.046 C 
BRANCH  11  12
ATOM     12  C   LIG A   1      -5.239   2.005 125.848  0.00  0.00    +0.153 C 
ATOM     13  O   LIG A   1      -4.287   1.849 126.613  0.00  0.00    -0.293 OA
ATOM     14  C   LIG A   1      -5.479   3.323 125.158  0.00  0.00    +0.091 C 
ENDBRANCH  11  12
ENDBRANCH   1  10
TORSDOF 2
ENDMDL
MODEL 9
REMARK VINA RESULT:      -5.3      8.347     10.192
REMARK  Name = NuBBE_1500
REMARK  6 active torsions:
REMARK  status: ('A' for Active; 'I' for Inactive)
REMARK    1  A    between atoms: C_1  and  C_6
REMARK    2  A    between atoms: C_2  and  C_3
REMARK    3  A    between atoms: C_3  and  C_5
REMARK    4  A    between atoms: C_7  and  C_14
REMARK    5  A    between atoms: C_11  and  C_12
REMARK    6  A    between atoms: C_11  and  C_13
REMARK                            x       y       z     vdW  Elec       q    Type
REMARK                         _______ _______ _______ _____ _____    ______ ____
ROOT
ATOM      1  C   LIG A   1      -8.217  -0.983 126.836  0.00  0.00    -0.043 C 
ATOM      2  C   LIG A   1      -7.822  -0.466 128.029  0.00  0.00    -0.069 C 
ATOM      3  C   LIG A   1      -7.384  -1.340 129.188  0.00  0.00    +0.031 C 
ATOM      4  C   LIG A   1      -7.099  -2.787 128.818  0.00  0.00    +0.005 C 
ATOM      5  C   LIG A   1      -8.186  -3.313 127.898  0.00  0.00    +0.011 C 
ATOM      6  C   LIG A   1      -8.268  -2.508 126.571  0.00  0.00    -0.010 C 
ATOM      7  C   LIG A   1      -7.091  -2.922 125.657  0.00  0.00    +0.016 C 
ATOM      8  C   LIG A   1      -9.589  -2.931 125.887  0.00  0.00    +0.016 C 
ATOM      9  C   LIG A   1      -7.733   1.003 128.373  0.00  0.00    +0.039 C 
ENDROOT
BRANCH   1  10
ATOM     10  C   LIG A   1      -8.592  -0.145 125.699  0.00  0.00    +0.007 C 
ATOM     11  C   LIG A   1      -9.731   0.559 125.617  0.00  0.00    +0.046 C 
BRANCH  11  12
ATOM     12  C   LIG A   1     -10.012   1.399 124.422  0.00  0.00    +0.153 C 
ATOM     13  O   LIG A   1     -11.015   1.222 123.730  0.00  0.00    -0.293 OA
ATOM     14  C   LIG A   1      -8.993   2.450 124.066  0.00  0.00    +0.091 C 
ENDBRANCH  11  12
ENDBRANCH   1  10
TORSDOF 2
ENDMDL
