MODEL 1
REMARK VINA RESULT:      -6.2      0.000      0.000
REMARK  Name = NuBBE_169
REMARK  22 active torsions:
REMARK  status: ('A' for Active; 'I' for Inactive)
REMARK    1  A    between atoms: C_1  and  C_2
REMARK    2  A    between atoms: C_4  and  O_6
REMARK    3  A    between atoms: O_6  and  C_7
REMARK    4  A    between atoms: C_7  and  O_8
REMARK    5  A    between atoms: O_8  and  C_9
REMARK    6  A    between atoms: C_9  and  C_10
REMARK    7  A    between atoms: C_9  and  C_11
REMARK    8  A    between atoms: C_9  and  C_12
REMARK    9  A    between atoms: C_16  and  C_18
REMARK   10  A    between atoms: C_18  and  C_19
REMARK   11  A    between atoms: C_19  and  C_20
REMARK   12  A    between atoms: C_20  and  C_21
REMARK   13  A    between atoms: C_21  and  C_22
REMARK   14  A    between atoms: C_22  and  C_23
REMARK   15  A    between atoms: C_23  and  C_24
REMARK   16  A    between atoms: C_24  and  C_25
REMARK   17  A    between atoms: C_25  and  C_26
REMARK   18  A    between atoms: C_26  and  C_27
REMARK   19  A    between atoms: C_27  and  C_28
REMARK   20  A    between atoms: C_28  and  C_29
REMARK   21  A    between atoms: C_29  and  C_30
REMARK   22  A    between atoms: C_30  and  C_31
REMARK                            x       y       z     vdW  Elec       q    Type
REMARK                         _______ _______ _______ _____ _____    ______ ____
ROOT
ATOM      1  C   LIG A   1     -11.872   6.637 131.876  0.00  0.00    +0.028 C 
ATOM      2  C   LIG A   1     -10.412   6.420 132.283  0.00  0.00    +0.092 C 
ATOM      3  C   LIG A   1      -9.420   6.665 131.121  0.00  0.00    +0.197 C 
ATOM      4  C   LIG A   1      -8.001   6.454 131.653  0.00  0.00    +0.048 C 
ATOM      5  C   LIG A   1      -7.836   5.091 132.338  0.00  0.00    +0.022 C 
ATOM      6  C   LIG A   1      -8.968   4.714 133.316  0.00  0.00    +0.054 C 
ATOM      7  N   LIG A   1     -10.306   5.043 132.798  0.00  0.00    -0.307 NA
ATOM      8  H   LIG A   1     -10.527   4.403 132.030  0.00  0.00    +0.123 HD
ENDROOT
BRANCH   6   9
ATOM      9  C   LIG A   1      -8.983   3.188 133.638  0.00  0.00    +0.019 C 
BRANCH   9  10
ATOM     10  C   LIG A   1      -8.365   2.289 132.555  0.00  0.00    +0.002 C 
BRANCH  10  11
ATOM     11  C   LIG A   1      -9.393   1.718 131.558  0.00  0.00    +0.000 C 
BRANCH  11  12
ATOM     12  C   LIG A   1      -9.207   2.242 130.114  0.00  0.00    -0.000 C 
BRANCH  12  13
ATOM     13  C   LIG A   1      -7.756   2.569 129.708  0.00  0.00    -0.000 C 
BRANCH  13  14
ATOM     14  C   LIG A   1      -7.326   1.879 128.400  0.00  0.00    -0.000 C 
BRANCH  14  15
ATOM     15  C   LIG A   1      -7.797   0.415 128.259  0.00  0.00    -0.000 C 
BRANCH  15  16
ATOM     16  C   LIG A   1      -6.857  -0.677 128.817  0.00  0.00    -0.000 C 
BRANCH  16  17
ATOM     17  C   LIG A   1      -7.392  -1.350 130.099  0.00  0.00    +0.000 C 
BRANCH  17  18
ATOM     18  C   LIG A   1      -8.217  -2.624 129.849  0.00  0.00    +0.000 C 
BRANCH  18  19
ATOM     19  C   LIG A   1      -7.842  -3.410 128.572  0.00  0.00    +0.007 C 
BRANCH  19  20
ATOM     20  C   LIG A   1      -8.995  -3.779 127.630  0.00  0.00    +0.074 C 
BRANCH  20  21
ATOM     21  C   LIG A   1      -8.751  -3.303 126.200  0.00  0.00    +0.130 C 
ATOM     22  C   LIG A   1      -9.266  -1.931 125.839  0.00  0.00    +0.086 C 
ATOM     23  O   LIG A   1      -8.137  -3.973 125.370  0.00  0.00    -0.298 OA
ENDBRANCH  20  21
ENDBRANCH  19  20
ENDBRANCH  18  19
ENDBRANCH  17  18
ENDBRANCH  16  17
ENDBRANCH  15  16
ENDBRANCH  14  15
ENDBRANCH  13  14
ENDBRANCH  12  13
ENDBRANCH  11  12
ENDBRANCH  10  11
ENDBRANCH   9  10
ENDBRANCH   6   9
BRANCH   3  24
ATOM     24  O   LIG A   1      -9.727   5.728 130.077  0.00  0.00    -0.429 OA
BRANCH  24  25
ATOM     25  C   LIG A   1      -9.556   6.087 128.802  0.00  0.00    +0.511 C 
ATOM     26  O   LIG A   1      -9.059   5.394 127.920  0.00  0.00    -0.203 OA
BRANCH  25  27
ATOM     27  O   LIG A   1     -10.025   7.336 128.670  0.00  0.00    -0.428 OA
BRANCH  27  28
ATOM     28  C   LIG A   1     -11.313   7.589 128.061  0.00  0.00    +0.109 C 
ATOM     29  C   LIG A   1     -11.846   8.904 128.638  0.00  0.00    +0.055 C 
ATOM     30  C   LIG A   1     -11.057   7.758 126.551  0.00  0.00    +0.055 C 
ATOM     31  C   LIG A   1     -12.312   6.453 128.260  0.00  0.00    +0.055 C 
ENDBRANCH  27  28
ENDBRANCH  25  27
ENDBRANCH  24  25
ENDBRANCH   3  24
TORSDOF 17
ENDMDL
MODEL 2
REMARK VINA RESULT:      -6.2      2.118      4.010
REMARK  Name = NuBBE_169
REMARK  22 active torsions:
REMARK  status: ('A' for Active; 'I' for Inactive)
REMARK    1  A    between atoms: C_1  and  C_2
REMARK    2  A    between atoms: C_4  and  O_6
REMARK    3  A    between atoms: O_6  and  C_7
REMARK    4  A    between atoms: C_7  and  O_8
REMARK    5  A    between atoms: O_8  and  C_9
REMARK    6  A    between atoms: C_9  and  C_10
REMARK    7  A    between atoms: C_9  and  C_11
REMARK    8  A    between atoms: C_9  and  C_12
REMARK    9  A    between atoms: C_16  and  C_18
REMARK   10  A    between atoms: C_18  and  C_19
REMARK   11  A    between atoms: C_19  and  C_20
REMARK   12  A    between atoms: C_20  and  C_21
REMARK   13  A    between atoms: C_21  and  C_22
REMARK   14  A    between atoms: C_22  and  C_23
REMARK   15  A    between atoms: C_23  and  C_24
REMARK   16  A    between atoms: C_24  and  C_25
REMARK   17  A    between atoms: C_25  and  C_26
REMARK   18  A    between atoms: C_26  and  C_27
REMARK   19  A    between atoms: C_27  and  C_28
REMARK   20  A    between atoms: C_28  and  C_29
REMARK   21  A    between atoms: C_29  and  C_30
REMARK   22  A    between atoms: C_30  and  C_31
REMARK                            x       y       z     vdW  Elec       q    Type
REMARK                         _______ _______ _______ _____ _____    ______ ____
ROOT
ATOM      1  C   LIG A   1     -11.065   3.496 130.507  0.00  0.00    +0.028 C 
ATOM      2  C   LIG A   1      -9.567   3.569 130.196  0.00  0.00    +0.092 C 
ATOM      3  C   LIG A   1      -9.040   5.021 130.109  0.00  0.00    +0.197 C 
ATOM      4  C   LIG A   1      -7.537   4.967 129.832  0.00  0.00    +0.048 C 
ATOM      5  C   LIG A   1      -7.205   4.108 128.605  0.00  0.00    +0.022 C 
ATOM      6  C   LIG A   1      -7.935   2.749 128.545  0.00  0.00    +0.054 C 
ATOM      7  N   LIG A   1      -9.352   2.843 128.931  0.00  0.00    -0.307 NA
ATOM      8  H   LIG A   1      -9.861   3.340 128.195  0.00  0.00    +0.123 HD
ENDROOT
BRANCH   6   9
ATOM      9  C   LIG A   1      -7.908   2.128 127.115  0.00  0.00    +0.019 C 
BRANCH   9  10
ATOM     10  C   LIG A   1      -8.264   0.634 127.048  0.00  0.00    +0.002 C 
BRANCH  10  11
ATOM     11  C   LIG A   1      -7.770  -0.178 128.261  0.00  0.00    +0.000 C 
BRANCH  11  12
ATOM     12  C   LIG A   1      -6.540  -1.065 127.951  0.00  0.00    -0.000 C 
BRANCH  12  13
ATOM     13  C   LIG A   1      -6.746  -2.580 128.153  0.00  0.00    -0.000 C 
BRANCH  13  14
ATOM     14  C   LIG A   1      -8.222  -2.965 128.358  0.00  0.00    -0.000 C 
BRANCH  14  15
ATOM     15  C   LIG A   1      -8.879  -3.664 127.148  0.00  0.00    -0.000 C 
BRANCH  15  16
ATOM     16  C   LIG A   1      -9.470  -2.750 126.051  0.00  0.00    -0.000 C 
BRANCH  16  17
ATOM     17  C   LIG A   1      -8.983  -3.105 124.630  0.00  0.00    +0.000 C 
BRANCH  17  18
ATOM     18  C   LIG A   1      -7.816  -4.106 124.590  0.00  0.00    +0.000 C 
BRANCH  18  19
ATOM     19  C   LIG A   1      -6.414  -3.474 124.443  0.00  0.00    +0.007 C 
BRANCH  19  20
ATOM     20  C   LIG A   1      -6.331  -1.949 124.581  0.00  0.00    +0.074 C 
BRANCH  20  21
ATOM     21  C   LIG A   1      -6.545  -1.233 123.250  0.00  0.00    +0.130 C 
ATOM     22  C   LIG A   1      -7.085   0.175 123.311  0.00  0.00    +0.086 C 
ATOM     23  O   LIG A   1      -6.267  -1.744 122.166  0.00  0.00    -0.298 OA
ENDBRANCH  20  21
ENDBRANCH  19  20
ENDBRANCH  18  19
ENDBRANCH  17  18
ENDBRANCH  16  17
ENDBRANCH  15  16
ENDBRANCH  14  15
ENDBRANCH  13  14
ENDBRANCH  12  13
ENDBRANCH  11  12
ENDBRANCH  10  11
ENDBRANCH   9  10
ENDBRANCH   6   9
BRANCH   3  24
ATOM     24  O   LIG A   1      -9.741   5.679 129.042  0.00  0.00    -0.429 OA
BRANCH  24  25
ATOM     25  C   LIG A   1     -10.154   6.938 129.207  0.00  0.00    +0.511 C 
ATOM     26  O   LIG A   1      -9.432   7.923 129.328  0.00  0.00    -0.203 OA
BRANCH  25  27
ATOM     27  O   LIG A   1     -11.495   6.922 129.218  0.00  0.00    -0.428 OA
BRANCH  27  28
ATOM     28  C   LIG A   1     -12.258   7.675 128.245  0.00  0.00    +0.109 C 
ATOM     29  C   LIG A   1     -12.556   9.048 128.855  0.00  0.00    +0.055 C 
ATOM     30  C   LIG A   1     -11.349   7.846 127.014  0.00  0.00    +0.055 C 
ATOM     31  C   LIG A   1     -13.541   6.973 127.808  0.00  0.00    +0.055 C 
ENDBRANCH  27  28
ENDBRANCH  25  27
ENDBRANCH  24  25
ENDBRANCH   3  24
TORSDOF 17
ENDMDL
MODEL 3
REMARK VINA RESULT:      -6.1      2.482      4.951
REMARK  Name = NuBBE_169
REMARK  22 active torsions:
REMARK  status: ('A' for Active; 'I' for Inactive)
REMARK    1  A    between atoms: C_1  and  C_2
REMARK    2  A    between atoms: C_4  and  O_6
REMARK    3  A    between atoms: O_6  and  C_7
REMARK    4  A    between atoms: C_7  and  O_8
REMARK    5  A    between atoms: O_8  and  C_9
REMARK    6  A    between atoms: C_9  and  C_10
REMARK    7  A    between atoms: C_9  and  C_11
REMARK    8  A    between atoms: C_9  and  C_12
REMARK    9  A    between atoms: C_16  and  C_18
REMARK   10  A    between atoms: C_18  and  C_19
REMARK   11  A    between atoms: C_19  and  C_20
REMARK   12  A    between atoms: C_20  and  C_21
REMARK   13  A    between atoms: C_21  and  C_22
REMARK   14  A    between atoms: C_22  and  C_23
REMARK   15  A    between atoms: C_23  and  C_24
REMARK   16  A    between atoms: C_24  and  C_25
REMARK   17  A    between atoms: C_25  and  C_26
REMARK   18  A    between atoms: C_26  and  C_27
REMARK   19  A    between atoms: C_27  and  C_28
REMARK   20  A    between atoms: C_28  and  C_29
REMARK   21  A    between atoms: C_29  and  C_30
REMARK   22  A    between atoms: C_30  and  C_31
REMARK                            x       y       z     vdW  Elec       q    Type
REMARK                         _______ _______ _______ _____ _____    ______ ____
ROOT
ATOM      1  C   LIG A   1      -8.596   1.003 130.364  0.00  0.00    +0.028 C 
ATOM      2  C   LIG A   1      -7.894   2.050 129.495  0.00  0.00    +0.092 C 
ATOM      3  C   LIG A   1      -8.271   3.501 129.877  0.00  0.00    +0.197 C 
ATOM      4  C   LIG A   1      -7.487   4.452 128.971  0.00  0.00    +0.048 C 
ATOM      5  C   LIG A   1      -7.682   4.127 127.485  0.00  0.00    +0.022 C 
ATOM      6  C   LIG A   1      -7.566   2.631 127.125  0.00  0.00    +0.054 C 
ATOM      7  N   LIG A   1      -8.245   1.755 128.094  0.00  0.00    -0.307 NA
ATOM      8  H   LIG A   1      -9.256   1.875 127.992  0.00  0.00    +0.123 HD
ENDROOT
BRANCH   6   9
ATOM      9  C   LIG A   1      -8.187   2.311 125.731  0.00  0.00    +0.019 C 
BRANCH   9  10
ATOM     10  C   LIG A   1      -8.948   0.977 125.649  0.00  0.00    +0.002 C 
BRANCH  10  11
ATOM     11  C   LIG A   1     -10.006   0.932 124.530  0.00  0.00    +0.000 C 
BRANCH  11  12
ATOM     12  C   LIG A   1      -9.494   0.278 123.223  0.00  0.00    -0.000 C 
BRANCH  12  13
ATOM     13  C   LIG A   1      -8.212  -0.568 123.363  0.00  0.00    -0.000 C 
BRANCH  13  14
ATOM     14  C   LIG A   1      -8.336  -1.961 122.718  0.00  0.00    -0.000 C 
BRANCH  14  15
ATOM     15  C   LIG A   1      -9.301  -2.923 123.445  0.00  0.00    -0.000 C 
BRANCH  15  16
ATOM     16  C   LIG A   1      -8.777  -3.592 124.736  0.00  0.00    -0.000 C 
BRANCH  16  17
ATOM     17  C   LIG A   1      -9.362  -2.979 126.026  0.00  0.00    +0.000 C 
BRANCH  17  18
ATOM     18  C   LIG A   1      -9.004  -3.743 127.311  0.00  0.00    +0.000 C 
BRANCH  18  19
ATOM     19  C   LIG A   1      -7.981  -3.039 128.231  0.00  0.00    +0.007 C 
BRANCH  19  20
ATOM     20  C   LIG A   1      -7.347  -1.750 127.691  0.00  0.00    +0.074 C 
BRANCH  20  21
ATOM     21  C   LIG A   1      -5.912  -1.964 127.217  0.00  0.00    +0.130 C 
ATOM     22  C   LIG A   1      -5.616  -1.648 125.771  0.00  0.00    +0.086 C 
ATOM     23  O   LIG A   1      -5.012  -2.344 127.965  0.00  0.00    -0.298 OA
ENDBRANCH  20  21
ENDBRANCH  19  20
ENDBRANCH  18  19
ENDBRANCH  17  18
ENDBRANCH  16  17
ENDBRANCH  15  16
ENDBRANCH  14  15
ENDBRANCH  13  14
ENDBRANCH  12  13
ENDBRANCH  11  12
ENDBRANCH  10  11
ENDBRANCH   9  10
ENDBRANCH   6   9
BRANCH   3  24
ATOM     24  O   LIG A   1      -9.687   3.651 129.685  0.00  0.00    -0.429 OA
BRANCH  24  25
ATOM     25  C   LIG A   1     -10.387   4.409 130.533  0.00  0.00    +0.511 C 
ATOM     26  O   LIG A   1     -10.116   4.607 131.713  0.00  0.00    -0.203 OA
BRANCH  25  27
ATOM     27  O   LIG A   1     -11.432   4.909 129.856  0.00  0.00    -0.428 OA
BRANCH  27  28
ATOM     28  C   LIG A   1     -11.721   6.327 129.870  0.00  0.00    +0.109 C 
ATOM     29  C   LIG A   1     -10.426   7.065 129.516  0.00  0.00    +0.055 C 
ATOM     30  C   LIG A   1     -12.768   6.570 128.766  0.00  0.00    +0.055 C 
ATOM     31  C   LIG A   1     -12.291   6.816 131.198  0.00  0.00    +0.055 C 
ENDBRANCH  27  28
ENDBRANCH  25  27
ENDBRANCH  24  25
ENDBRANCH   3  24
TORSDOF 17
ENDMDL
MODEL 4
REMARK VINA RESULT:      -6.0      2.053      3.741
REMARK  Name = NuBBE_169
REMARK  22 active torsions:
REMARK  status: ('A' for Active; 'I' for Inactive)
REMARK    1  A    between atoms: C_1  and  C_2
REMARK    2  A    between atoms: C_4  and  O_6
REMARK    3  A    between atoms: O_6  and  C_7
REMARK    4  A    between atoms: C_7  and  O_8
REMARK    5  A    between atoms: O_8  and  C_9
REMARK    6  A    between atoms: C_9  and  C_10
REMARK    7  A    between atoms: C_9  and  C_11
REMARK    8  A    between atoms: C_9  and  C_12
REMARK    9  A    between atoms: C_16  and  C_18
REMARK   10  A    between atoms: C_18  and  C_19
REMARK   11  A    between atoms: C_19  and  C_20
REMARK   12  A    between atoms: C_20  and  C_21
REMARK   13  A    between atoms: C_21  and  C_22
REMARK   14  A    between atoms: C_22  and  C_23
REMARK   15  A    between atoms: C_23  and  C_24
REMARK   16  A    between atoms: C_24  and  C_25
REMARK   17  A    between atoms: C_25  and  C_26
REMARK   18  A    between atoms: C_26  and  C_27
REMARK   19  A    between atoms: C_27  and  C_28
REMARK   20  A    between atoms: C_28  and  C_29
REMARK   21  A    between atoms: C_29  and  C_30
REMARK   22  A    between atoms: C_30  and  C_31
REMARK                            x       y       z     vdW  Elec       q    Type
REMARK                         _______ _______ _______ _____ _____    ______ ____
ROOT
ATOM      1  C   LIG A   1     -10.758   3.256 130.441  0.00  0.00    +0.028 C 
ATOM      2  C   LIG A   1      -9.281   3.324 130.042  0.00  0.00    +0.092 C 
ATOM      3  C   LIG A   1      -8.760   4.774 129.904  0.00  0.00    +0.197 C 
ATOM      4  C   LIG A   1      -7.276   4.715 129.538  0.00  0.00    +0.048 C 
ATOM      5  C   LIG A   1      -7.018   3.839 128.306  0.00  0.00    +0.022 C 
ATOM      6  C   LIG A   1      -7.749   2.481 128.308  0.00  0.00    +0.054 C 
ATOM      7  N   LIG A   1      -9.141   2.580 128.776  0.00  0.00    -0.307 NA
ATOM      8  H   LIG A   1      -9.693   3.067 128.064  0.00  0.00    +0.123 HD
ENDROOT
BRANCH   6   9
ATOM      9  C   LIG A   1      -7.807   1.840 126.888  0.00  0.00    +0.019 C 
BRANCH   9  10
ATOM     10  C   LIG A   1      -6.487   1.887 126.099  0.00  0.00    +0.002 C 
BRANCH  10  11
ATOM     11  C   LIG A   1      -5.380   0.988 126.685  0.00  0.00    +0.000 C 
BRANCH  11  12
ATOM     12  C   LIG A   1      -5.180  -0.333 125.903  0.00  0.00    -0.000 C 
BRANCH  12  13
ATOM     13  C   LIG A   1      -5.839  -1.580 126.528  0.00  0.00    -0.000 C 
BRANCH  13  14
ATOM     14  C   LIG A   1      -5.676  -1.644 128.057  0.00  0.00    -0.000 C 
BRANCH  14  15
ATOM     15  C   LIG A   1      -6.860  -1.057 128.856  0.00  0.00    -0.000 C 
BRANCH  15  16
ATOM     16  C   LIG A   1      -7.827  -2.066 129.513  0.00  0.00    -0.000 C 
BRANCH  16  17
ATOM     17  C   LIG A   1      -7.725  -3.488 128.921  0.00  0.00    +0.000 C 
BRANCH  17  18
ATOM     18  C   LIG A   1      -8.911  -3.890 128.028  0.00  0.00    +0.000 C 
BRANCH  18  19
ATOM     19  C   LIG A   1      -8.712  -3.631 126.517  0.00  0.00    +0.007 C 
BRANCH  19  20
ATOM     20  C   LIG A   1      -9.308  -2.333 125.959  0.00  0.00    +0.074 C 
BRANCH  20  21
ATOM     21  C   LIG A   1      -8.978  -2.129 124.483  0.00  0.00    +0.130 C 
ATOM     22  C   LIG A   1      -9.429  -3.206 123.527  0.00  0.00    +0.086 C 
ATOM     23  O   LIG A   1      -8.400  -1.128 124.061  0.00  0.00    -0.298 OA
ENDBRANCH  20  21
ENDBRANCH  19  20
ENDBRANCH  18  19
ENDBRANCH  17  18
ENDBRANCH  16  17
ENDBRANCH  15  16
ENDBRANCH  14  15
ENDBRANCH  13  14
ENDBRANCH  12  13
ENDBRANCH  11  12
ENDBRANCH  10  11
ENDBRANCH   9  10
ENDBRANCH   6   9
BRANCH   3  24
ATOM     24  O   LIG A   1      -9.523   5.418 128.871  0.00  0.00    -0.429 OA
BRANCH  24  25
ATOM     25  C   LIG A   1     -10.033   6.632 129.092  0.00  0.00    +0.511 C 
ATOM     26  O   LIG A   1      -9.404   7.621 129.455  0.00  0.00    -0.203 OA
BRANCH  25  27
ATOM     27  O   LIG A   1     -11.349   6.566 128.847  0.00  0.00    -0.428 OA
BRANCH  27  28
ATOM     28  C   LIG A   1     -11.977   7.458 127.895  0.00  0.00    +0.109 C 
ATOM     29  C   LIG A   1     -13.398   6.944 127.648  0.00  0.00    +0.055 C 
ATOM     30  C   LIG A   1     -12.042   8.841 128.570  0.00  0.00    +0.055 C 
ATOM     31  C   LIG A   1     -11.202   7.591 126.587  0.00  0.00    +0.055 C 
ENDBRANCH  27  28
ENDBRANCH  25  27
ENDBRANCH  24  25
ENDBRANCH   3  24
TORSDOF 17
ENDMDL
MODEL 5
REMARK VINA RESULT:      -6.0      2.138      4.237
REMARK  Name = NuBBE_169
REMARK  22 active torsions:
REMARK  status: ('A' for Active; 'I' for Inactive)
REMARK    1  A    between atoms: C_1  and  C_2
REMARK    2  A    between atoms: C_4  and  O_6
REMARK    3  A    between atoms: O_6  and  C_7
REMARK    4  A    between atoms: C_7  and  O_8
REMARK    5  A    between atoms: O_8  and  C_9
REMARK    6  A    between atoms: C_9  and  C_10
REMARK    7  A    between atoms: C_9  and  C_11
REMARK    8  A    between atoms: C_9  and  C_12
REMARK    9  A    between atoms: C_16  and  C_18
REMARK   10  A    between atoms: C_18  and  C_19
REMARK   11  A    between atoms: C_19  and  C_20
REMARK   12  A    between atoms: C_20  and  C_21
REMARK   13  A    between atoms: C_21  and  C_22
REMARK   14  A    between atoms: C_22  and  C_23
REMARK   15  A    between atoms: C_23  and  C_24
REMARK   16  A    between atoms: C_24  and  C_25
REMARK   17  A    between atoms: C_25  and  C_26
REMARK   18  A    between atoms: C_26  and  C_27
REMARK   19  A    between atoms: C_27  and  C_28
REMARK   20  A    between atoms: C_28  and  C_29
REMARK   21  A    between atoms: C_29  and  C_30
REMARK   22  A    between atoms: C_30  and  C_31
REMARK                            x       y       z     vdW  Elec       q    Type
REMARK                         _______ _______ _______ _____ _____    ______ ____
ROOT
ATOM      1  C   LIG A   1      -9.721   3.174 132.350  0.00  0.00    +0.028 C 
ATOM      2  C   LIG A   1      -8.790   3.434 131.162  0.00  0.00    +0.092 C 
ATOM      3  C   LIG A   1      -9.154   4.719 130.381  0.00  0.00    +0.197 C 
ATOM      4  C   LIG A   1      -8.142   4.892 129.248  0.00  0.00    +0.048 C 
ATOM      5  C   LIG A   1      -8.034   3.638 128.371  0.00  0.00    +0.022 C 
ATOM      6  C   LIG A   1      -7.932   2.309 129.148  0.00  0.00    +0.054 C 
ATOM      7  N   LIG A   1      -8.851   2.243 130.295  0.00  0.00    -0.307 NA
ATOM      8  H   LIG A   1      -9.809   2.160 129.944  0.00  0.00    +0.123 HD
ENDROOT
BRANCH   6   9
ATOM      9  C   LIG A   1      -8.260   1.076 128.250  0.00  0.00    +0.019 C 
BRANCH   9  10
ATOM     10  C   LIG A   1      -8.258   1.354 126.738  0.00  0.00    +0.002 C 
BRANCH  10  11
ATOM     11  C   LIG A   1      -9.079   0.340 125.917  0.00  0.00    +0.000 C 
BRANCH  11  12
ATOM     12  C   LIG A   1      -9.696   0.941 124.632  0.00  0.00    -0.000 C 
BRANCH  12  13
ATOM     13  C   LIG A   1      -9.229   0.301 123.309  0.00  0.00    -0.000 C 
BRANCH  13  14
ATOM     14  C   LIG A   1      -7.865  -0.403 123.429  0.00  0.00    -0.000 C 
BRANCH  14  15
ATOM     15  C   LIG A   1      -7.809  -1.811 122.800  0.00  0.00    -0.000 C 
BRANCH  15  16
ATOM     16  C   LIG A   1      -7.887  -3.012 123.768  0.00  0.00    -0.000 C 
BRANCH  16  17
ATOM     17  C   LIG A   1      -9.324  -3.344 124.221  0.00  0.00    +0.000 C 
BRANCH  17  18
ATOM     18  C   LIG A   1      -9.617  -3.019 125.695  0.00  0.00    +0.000 C 
BRANCH  18  19
ATOM     19  C   LIG A   1      -8.611  -3.609 126.710  0.00  0.00    +0.007 C 
BRANCH  19  20
ATOM     20  C   LIG A   1      -8.145  -2.678 127.836  0.00  0.00    +0.074 C 
BRANCH  20  21
ATOM     21  C   LIG A   1      -6.704  -2.214 127.646  0.00  0.00    +0.130 C 
ATOM     22  C   LIG A   1      -5.794  -2.298 128.847  0.00  0.00    +0.086 C 
ATOM     23  O   LIG A   1      -6.268  -1.815 126.566  0.00  0.00    -0.298 OA
ENDBRANCH  20  21
ENDBRANCH  19  20
ENDBRANCH  18  19
ENDBRANCH  17  18
ENDBRANCH  16  17
ENDBRANCH  15  16
ENDBRANCH  14  15
ENDBRANCH  13  14
ENDBRANCH  12  13
ENDBRANCH  11  12
ENDBRANCH  10  11
ENDBRANCH   9  10
ENDBRANCH   6   9
BRANCH   3  24
ATOM     24  O   LIG A   1     -10.486   4.557 129.866  0.00  0.00    -0.429 OA
BRANCH  24  25
ATOM     25  C   LIG A   1     -11.390   5.517 130.073  0.00  0.00    +0.511 C 
ATOM     26  O   LIG A   1     -11.743   5.950 131.165  0.00  0.00    -0.203 OA
BRANCH  25  27
ATOM     27  O   LIG A   1     -11.837   5.913 128.872  0.00  0.00    -0.428 OA
BRANCH  27  28
ATOM     28  C   LIG A   1     -11.643   7.272 128.414  0.00  0.00    +0.109 C 
ATOM     29  C   LIG A   1     -11.610   7.243 126.883  0.00  0.00    +0.055 C 
ATOM     30  C   LIG A   1     -12.873   8.072 128.886  0.00  0.00    +0.055 C 
ATOM     31  C   LIG A   1     -10.389   7.929 128.982  0.00  0.00    +0.055 C 
ENDBRANCH  27  28
ENDBRANCH  25  27
ENDBRANCH  24  25
ENDBRANCH   3  24
TORSDOF 17
ENDMDL
MODEL 6
REMARK VINA RESULT:      -6.0      5.313      6.781
REMARK  Name = NuBBE_169
REMARK  22 active torsions:
REMARK  status: ('A' for Active; 'I' for Inactive)
REMARK    1  A    between atoms: C_1  and  C_2
REMARK    2  A    between atoms: C_4  and  O_6
REMARK    3  A    between atoms: O_6  and  C_7
REMARK    4  A    between atoms: C_7  and  O_8
REMARK    5  A    between atoms: O_8  and  C_9
REMARK    6  A    between atoms: C_9  and  C_10
REMARK    7  A    between atoms: C_9  and  C_11
REMARK    8  A    between atoms: C_9  and  C_12
REMARK    9  A    between atoms: C_16  and  C_18
REMARK   10  A    between atoms: C_18  and  C_19
REMARK   11  A    between atoms: C_19  and  C_20
REMARK   12  A    between atoms: C_20  and  C_21
REMARK   13  A    between atoms: C_21  and  C_22
REMARK   14  A    between atoms: C_22  and  C_23
REMARK   15  A    between atoms: C_23  and  C_24
REMARK   16  A    between atoms: C_24  and  C_25
REMARK   17  A    between atoms: C_25  and  C_26
REMARK   18  A    between atoms: C_26  and  C_27
REMARK   19  A    between atoms: C_27  and  C_28
REMARK   20  A    between atoms: C_28  and  C_29
REMARK   21  A    between atoms: C_29  and  C_30
REMARK   22  A    between atoms: C_30  and  C_31
REMARK                            x       y       z     vdW  Elec       q    Type
REMARK                         _______ _______ _______ _____ _____    ______ ____
ROOT
ATOM      1  C   LIG A   1      -1.864   3.134 127.006  0.00  0.00    +0.028 C 
ATOM      2  C   LIG A   1      -3.273   3.072 126.409  0.00  0.00    +0.092 C 
ATOM      3  C   LIG A   1      -4.067   4.386 126.601  0.00  0.00    +0.197 C 
ATOM      4  C   LIG A   1      -5.435   4.218 125.939  0.00  0.00    +0.048 C 
ATOM      5  C   LIG A   1      -6.169   2.965 126.436  0.00  0.00    +0.022 C 
ATOM      6  C   LIG A   1      -5.307   1.688 126.499  0.00  0.00    +0.054 C 
ATOM      7  N   LIG A   1      -3.961   1.931 127.041  0.00  0.00    -0.307 NA
ATOM      8  H   LIG A   1      -4.041   2.130 128.042  0.00  0.00    +0.123 HD
ENDROOT
BRANCH   6   9
ATOM      9  C   LIG A   1      -5.950   0.586 127.396  0.00  0.00    +0.019 C 
BRANCH   9  10
ATOM     10  C   LIG A   1      -7.467   0.727 127.611  0.00  0.00    +0.002 C 
BRANCH  10  11
ATOM     11  C   LIG A   1      -8.310  -0.220 126.735  0.00  0.00    +0.000 C 
BRANCH  11  12
ATOM     12  C   LIG A   1      -9.437   0.501 125.957  0.00  0.00    -0.000 C 
BRANCH  12  13
ATOM     13  C   LIG A   1      -8.966   1.471 124.853  0.00  0.00    -0.000 C 
BRANCH  13  14
ATOM     14  C   LIG A   1      -8.586   0.754 123.545  0.00  0.00    -0.000 C 
BRANCH  14  15
ATOM     15  C   LIG A   1      -7.072   0.513 123.360  0.00  0.00    -0.000 C 
BRANCH  15  16
ATOM     16  C   LIG A   1      -6.603  -0.958 123.290  0.00  0.00    -0.000 C 
BRANCH  16  17
ATOM     17  C   LIG A   1      -5.620  -1.343 124.415  0.00  0.00    +0.000 C 
BRANCH  17  18
ATOM     18  C   LIG A   1      -5.964  -2.656 125.138  0.00  0.00    +0.000 C 
BRANCH  18  19
ATOM     19  C   LIG A   1      -6.813  -3.654 124.318  0.00  0.00    +0.007 C 
BRANCH  19  20
ATOM     20  C   LIG A   1      -8.086  -4.185 124.989  0.00  0.00    +0.074 C 
BRANCH  20  21
ATOM     21  C   LIG A   1      -9.302  -3.306 124.705  0.00  0.00    +0.130 C 
ATOM     22  C   LIG A   1      -9.566  -2.949 123.263  0.00  0.00    +0.086 C 
ATOM     23  O   LIG A   1     -10.066  -2.920 125.590  0.00  0.00    -0.298 OA
ENDBRANCH  20  21
ENDBRANCH  19  20
ENDBRANCH  18  19
ENDBRANCH  17  18
ENDBRANCH  16  17
ENDBRANCH  15  16
ENDBRANCH  14  15
ENDBRANCH  13  14
ENDBRANCH  12  13
ENDBRANCH  11  12
ENDBRANCH  10  11
ENDBRANCH   9  10
ENDBRANCH   6   9
BRANCH   3  24
ATOM     24  O   LIG A   1      -4.200   4.616 128.013  0.00  0.00    -0.429 OA
BRANCH  24  25
ATOM     25  C   LIG A   1      -4.134   5.864 128.483  0.00  0.00    +0.511 C 
ATOM     26  O   LIG A   1      -4.064   6.885 127.807  0.00  0.00    -0.203 OA
BRANCH  25  27
ATOM     27  O   LIG A   1      -4.156   5.790 129.822  0.00  0.00    -0.428 OA
BRANCH  27  28
ATOM     28  C   LIG A   1      -2.978   6.093 130.607  0.00  0.00    +0.109 C 
ATOM     29  C   LIG A   1      -2.645   4.850 131.436  0.00  0.00    +0.055 C 
ATOM     30  C   LIG A   1      -1.841   6.360 129.603  0.00  0.00    +0.055 C 
ATOM     31  C   LIG A   1      -3.142   7.323 131.495  0.00  0.00    +0.055 C 
ENDBRANCH  27  28
ENDBRANCH  25  27
ENDBRANCH  24  25
ENDBRANCH   3  24
TORSDOF 17
ENDMDL
MODEL 7
REMARK VINA RESULT:      -5.9      3.030      6.007
REMARK  Name = NuBBE_169
REMARK  22 active torsions:
REMARK  status: ('A' for Active; 'I' for Inactive)
REMARK    1  A    between atoms: C_1  and  C_2
REMARK    2  A    between atoms: C_4  and  O_6
REMARK    3  A    between atoms: O_6  and  C_7
REMARK    4  A    between atoms: C_7  and  O_8
REMARK    5  A    between atoms: O_8  and  C_9
REMARK    6  A    between atoms: C_9  and  C_10
REMARK    7  A    between atoms: C_9  and  C_11
REMARK    8  A    between atoms: C_9  and  C_12
REMARK    9  A    between atoms: C_16  and  C_18
REMARK   10  A    between atoms: C_18  and  C_19
REMARK   11  A    between atoms: C_19  and  C_20
REMARK   12  A    between atoms: C_20  and  C_21
REMARK   13  A    between atoms: C_21  and  C_22
REMARK   14  A    between atoms: C_22  and  C_23
REMARK   15  A    between atoms: C_23  and  C_24
REMARK   16  A    between atoms: C_24  and  C_25
REMARK   17  A    between atoms: C_25  and  C_26
REMARK   18  A    between atoms: C_26  and  C_27
REMARK   19  A    between atoms: C_27  and  C_28
REMARK   20  A    between atoms: C_28  and  C_29
REMARK   21  A    between atoms: C_29  and  C_30
REMARK   22  A    between atoms: C_30  and  C_31
REMARK                            x       y       z     vdW  Elec       q    Type
REMARK                         _______ _______ _______ _____ _____    ______ ____
ROOT
ATOM      1  C   LIG A   1      -7.830   0.606 129.044  0.00  0.00    +0.028 C 
ATOM      2  C   LIG A   1      -7.559   1.212 127.664  0.00  0.00    +0.092 C 
ATOM      3  C   LIG A   1      -7.370   2.746 127.707  0.00  0.00    +0.197 C 
ATOM      4  C   LIG A   1      -7.072   3.231 126.287  0.00  0.00    +0.048 C 
ATOM      5  C   LIG A   1      -8.131   2.760 125.281  0.00  0.00    +0.022 C 
ATOM      6  C   LIG A   1      -8.526   1.273 125.401  0.00  0.00    +0.054 C 
ATOM      7  N   LIG A   1      -8.690   0.834 126.796  0.00  0.00    -0.307 NA
ATOM      8  H   LIG A   1      -9.536   1.265 127.179  0.00  0.00    +0.123 HD
ENDROOT
BRANCH   6   9
ATOM      9  C   LIG A   1      -9.874   0.962 124.681  0.00  0.00    +0.019 C 
BRANCH   9  10
ATOM     10  C   LIG A   1      -9.813   0.996 123.144  0.00  0.00    +0.002 C 
BRANCH  10  11
ATOM     11  C   LIG A   1     -10.024  -0.381 122.483  0.00  0.00    +0.000 C 
BRANCH  11  12
ATOM     12  C   LIG A   1      -8.924  -1.410 122.838  0.00  0.00    -0.000 C 
BRANCH  12  13
ATOM     13  C   LIG A   1      -9.432  -2.776 123.345  0.00  0.00    -0.000 C 
BRANCH  13  14
ATOM     14  C   LIG A   1      -8.650  -3.294 124.566  0.00  0.00    -0.000 C 
BRANCH  14  15
ATOM     15  C   LIG A   1      -9.107  -2.707 125.919  0.00  0.00    -0.000 C 
BRANCH  15  16
ATOM     16  C   LIG A   1      -8.115  -2.818 127.098  0.00  0.00    -0.000 C 
BRANCH  16  17
ATOM     17  C   LIG A   1      -8.681  -3.597 128.305  0.00  0.00    +0.000 C 
BRANCH  17  18
ATOM     18  C   LIG A   1      -7.994  -3.280 129.644  0.00  0.00    +0.000 C 
BRANCH  18  19
ATOM     19  C   LIG A   1      -6.455  -3.151 129.578  0.00  0.00    +0.007 C 
BRANCH  19  20
ATOM     20  C   LIG A   1      -5.650  -4.076 130.499  0.00  0.00    +0.074 C 
BRANCH  20  21
ATOM     21  C   LIG A   1      -4.149  -3.808 130.423  0.00  0.00    +0.130 C 
ATOM     22  C   LIG A   1      -3.576  -3.511 129.058  0.00  0.00    +0.086 C 
ATOM     23  O   LIG A   1      -3.422  -3.795 131.416  0.00  0.00    -0.298 OA
ENDBRANCH  20  21
ENDBRANCH  19  20
ENDBRANCH  18  19
ENDBRANCH  17  18
ENDBRANCH  16  17
ENDBRANCH  15  16
ENDBRANCH  14  15
ENDBRANCH  13  14
ENDBRANCH  12  13
ENDBRANCH  11  12
ENDBRANCH  10  11
ENDBRANCH   9  10
ENDBRANCH   6   9
BRANCH   3  24
ATOM     24  O   LIG A   1      -8.585   3.325 128.208  0.00  0.00    -0.429 OA
BRANCH  24  25
ATOM     25  C   LIG A   1      -8.526   4.230 129.188  0.00  0.00    +0.511 C 
ATOM     26  O   LIG A   1      -8.135   4.026 130.333  0.00  0.00    -0.203 OA
BRANCH  25  27
ATOM     27  O   LIG A   1      -8.972   5.392 128.689  0.00  0.00    -0.428 OA
BRANCH  27  28
ATOM     28  C   LIG A   1      -9.938   6.193 129.412  0.00  0.00    +0.109 C 
ATOM     29  C   LIG A   1      -9.163   7.059 130.410  0.00  0.00    +0.055 C 
ATOM     30  C   LIG A   1     -10.622   7.098 128.370  0.00  0.00    +0.055 C 
ATOM     31  C   LIG A   1     -11.008   5.363 130.114  0.00  0.00    +0.055 C 
ENDBRANCH  27  28
ENDBRANCH  25  27
ENDBRANCH  24  25
ENDBRANCH   3  24
TORSDOF 17
ENDMDL
MODEL 8
REMARK VINA RESULT:      -5.9      3.861      5.460
REMARK  Name = NuBBE_169
REMARK  22 active torsions:
REMARK  status: ('A' for Active; 'I' for Inactive)
REMARK    1  A    between atoms: C_1  and  C_2
REMARK    2  A    between atoms: C_4  and  O_6
REMARK    3  A    between atoms: O_6  and  C_7
REMARK    4  A    between atoms: C_7  and  O_8
REMARK    5  A    between atoms: O_8  and  C_9
REMARK    6  A    between atoms: C_9  and  C_10
REMARK    7  A    between atoms: C_9  and  C_11
REMARK    8  A    between atoms: C_9  and  C_12
REMARK    9  A    between atoms: C_16  and  C_18
REMARK   10  A    between atoms: C_18  and  C_19
REMARK   11  A    between atoms: C_19  and  C_20
REMARK   12  A    between atoms: C_20  and  C_21
REMARK   13  A    between atoms: C_21  and  C_22
REMARK   14  A    between atoms: C_22  and  C_23
REMARK   15  A    between atoms: C_23  and  C_24
REMARK   16  A    between atoms: C_24  and  C_25
REMARK   17  A    between atoms: C_25  and  C_26
REMARK   18  A    between atoms: C_26  and  C_27
REMARK   19  A    between atoms: C_27  and  C_28
REMARK   20  A    between atoms: C_28  and  C_29
REMARK   21  A    between atoms: C_29  and  C_30
REMARK   22  A    between atoms: C_30  and  C_31
REMARK                            x       y       z     vdW  Elec       q    Type
REMARK                         _______ _______ _______ _____ _____    ______ ____
ROOT
ATOM      1  C   LIG A   1      -9.777   2.811 130.359  0.00  0.00    +0.028 C 
ATOM      2  C   LIG A   1      -9.132   3.786 131.347  0.00  0.00    +0.092 C 
ATOM      3  C   LIG A   1     -10.061   4.962 131.727  0.00  0.00    +0.197 C 
ATOM      4  C   LIG A   1      -9.327   5.844 132.739  0.00  0.00    +0.048 C 
ATOM      5  C   LIG A   1      -7.945   6.278 132.233  0.00  0.00    +0.022 C 
ATOM      6  C   LIG A   1      -7.099   5.151 131.605  0.00  0.00    +0.054 C 
ATOM      7  N   LIG A   1      -7.883   4.266 130.728  0.00  0.00    -0.307 NA
ATOM      8  H   LIG A   1      -8.132   4.782 129.880  0.00  0.00    +0.123 HD
ENDROOT
BRANCH   6   9
ATOM      9  C   LIG A   1      -5.929   5.707 130.737  0.00  0.00    +0.019 C 
BRANCH   9  10
ATOM     10  C   LIG A   1      -5.710   7.226 130.836  0.00  0.00    +0.002 C 
BRANCH  10  11
ATOM     11  C   LIG A   1      -4.326   7.689 130.342  0.00  0.00    +0.000 C 
BRANCH  11  12
ATOM     12  C   LIG A   1      -3.153   6.874 130.940  0.00  0.00    -0.000 C 
BRANCH  12  13
ATOM     13  C   LIG A   1      -2.451   5.910 129.963  0.00  0.00    -0.000 C 
BRANCH  13  14
ATOM     14  C   LIG A   1      -2.535   6.370 128.496  0.00  0.00    -0.000 C 
BRANCH  14  15
ATOM     15  C   LIG A   1      -3.016   5.286 127.508  0.00  0.00    -0.000 C 
BRANCH  15  16
ATOM     16  C   LIG A   1      -2.291   3.923 127.561  0.00  0.00    -0.000 C 
BRANCH  16  17
ATOM     17  C   LIG A   1      -3.128   2.760 126.987  0.00  0.00    +0.000 C 
BRANCH  17  18
ATOM     18  C   LIG A   1      -4.648   2.985 127.041  0.00  0.00    +0.000 C 
BRANCH  18  19
ATOM     19  C   LIG A   1      -5.412   2.624 125.747  0.00  0.00    +0.007 C 
BRANCH  19  20
ATOM     20  C   LIG A   1      -5.517   3.723 124.682  0.00  0.00    +0.074 C 
BRANCH  20  21
ATOM     21  C   LIG A   1      -6.515   4.811 125.067  0.00  0.00    +0.130 C 
ATOM     22  C   LIG A   1      -7.874   4.357 125.540  0.00  0.00    +0.086 C 
ATOM     23  O   LIG A   1      -6.239   6.010 125.035  0.00  0.00    -0.298 OA
ENDBRANCH  20  21
ENDBRANCH  19  20
ENDBRANCH  18  19
ENDBRANCH  17  18
ENDBRANCH  16  17
ENDBRANCH  15  16
ENDBRANCH  14  15
ENDBRANCH  13  14
ENDBRANCH  12  13
ENDBRANCH  11  12
ENDBRANCH  10  11
ENDBRANCH   9  10
ENDBRANCH   6   9
BRANCH   3  24
ATOM     24  O   LIG A   1     -10.360   5.691 130.526  0.00  0.00    -0.429 OA
BRANCH  24  25
ATOM     25  C   LIG A   1     -11.607   6.117 130.310  0.00  0.00    +0.511 C 
ATOM     26  O   LIG A   1     -12.437   6.382 131.174  0.00  0.00    -0.203 OA
BRANCH  25  27
ATOM     27  O   LIG A   1     -11.780   6.197 128.982  0.00  0.00    -0.428 OA
BRANCH  27  28
ATOM     28  C   LIG A   1     -11.857   7.480 128.316  0.00  0.00    +0.109 C 
ATOM     29  C   LIG A   1     -10.504   8.176 128.497  0.00  0.00    +0.055 C 
ATOM     30  C   LIG A   1     -12.085   7.183 126.822  0.00  0.00    +0.055 C 
ATOM     31  C   LIG A   1     -13.001   8.356 128.818  0.00  0.00    +0.055 C 
ENDBRANCH  27  28
ENDBRANCH  25  27
ENDBRANCH  24  25
ENDBRANCH   3  24
TORSDOF 17
ENDMDL
MODEL 9
REMARK VINA RESULT:      -5.9      2.039      3.172
REMARK  Name = NuBBE_169
REMARK  22 active torsions:
REMARK  status: ('A' for Active; 'I' for Inactive)
REMARK    1  A    between atoms: C_1  and  C_2
REMARK    2  A    between atoms: C_4  and  O_6
REMARK    3  A    between atoms: O_6  and  C_7
REMARK    4  A    between atoms: C_7  and  O_8
REMARK    5  A    between atoms: O_8  and  C_9
REMARK    6  A    between atoms: C_9  and  C_10
REMARK    7  A    between atoms: C_9  and  C_11
REMARK    8  A    between atoms: C_9  and  C_12
REMARK    9  A    between atoms: C_16  and  C_18
REMARK   10  A    between atoms: C_18  and  C_19
REMARK   11  A    between atoms: C_19  and  C_20
REMARK   12  A    between atoms: C_20  and  C_21
REMARK   13  A    between atoms: C_21  and  C_22
REMARK   14  A    between atoms: C_22  and  C_23
REMARK   15  A    between atoms: C_23  and  C_24
REMARK   16  A    between atoms: C_24  and  C_25
REMARK   17  A    between atoms: C_25  and  C_26
REMARK   18  A    between atoms: C_26  and  C_27
REMARK   19  A    between atoms: C_27  and  C_28
REMARK   20  A    between atoms: C_28  and  C_29
REMARK   21  A    between atoms: C_29  and  C_30
REMARK   22  A    between atoms: C_30  and  C_31
REMARK                            x       y       z     vdW  Elec       q    Type
REMARK                         _______ _______ _______ _____ _____    ______ ____
ROOT
ATOM      1  C   LIG A   1      -9.219   6.106 133.396  0.00  0.00    +0.028 C 
ATOM      2  C   LIG A   1      -9.059   5.252 132.135  0.00  0.00    +0.092 C 
ATOM      3  C   LIG A   1      -9.874   5.791 130.936  0.00  0.00    +0.197 C 
ATOM      4  C   LIG A   1      -9.610   4.885 129.733  0.00  0.00    +0.048 C 
ATOM      5  C   LIG A   1      -9.874   3.407 130.053  0.00  0.00    +0.022 C 
ATOM      6  C   LIG A   1      -9.281   2.916 131.390  0.00  0.00    +0.054 C 
ATOM      7  N   LIG A   1      -9.467   3.879 132.487  0.00  0.00    -0.307 NA
ATOM      8  H   LIG A   1     -10.459   3.902 132.740  0.00  0.00    +0.123 HD
ENDROOT
BRANCH   6   9
ATOM      9  C   LIG A   1      -9.929   1.578 131.865  0.00  0.00    +0.019 C 
BRANCH   9  10
ATOM     10  C   LIG A   1      -8.997   0.356 131.827  0.00  0.00    +0.002 C 
BRANCH  10  11
ATOM     11  C   LIG A   1      -7.789   0.523 130.884  0.00  0.00    +0.000 C 
BRANCH  11  12
ATOM     12  C   LIG A   1      -8.126   0.258 129.397  0.00  0.00    -0.000 C 
BRANCH  12  13
ATOM     13  C   LIG A   1      -7.123   0.833 128.376  0.00  0.00    -0.000 C 
BRANCH  13  14
ATOM     14  C   LIG A   1      -6.640  -0.210 127.353  0.00  0.00    -0.000 C 
BRANCH  14  15
ATOM     15  C   LIG A   1      -7.666  -0.556 126.252  0.00  0.00    -0.000 C 
BRANCH  15  16
ATOM     16  C   LIG A   1      -8.580  -1.775 126.510  0.00  0.00    -0.000 C 
BRANCH  16  17
ATOM     17  C   LIG A   1      -7.855  -2.953 127.192  0.00  0.00    +0.000 C 
BRANCH  17  18
ATOM     18  C   LIG A   1      -8.558  -3.488 128.451  0.00  0.00    +0.000 C 
BRANCH  18  19
ATOM     19  C   LIG A   1      -7.778  -3.296 129.771  0.00  0.00    +0.007 C 
BRANCH  19  20
ATOM     20  C   LIG A   1      -6.299  -2.910 129.644  0.00  0.00    +0.074 C 
BRANCH  20  21
ATOM     21  C   LIG A   1      -5.365  -4.030 130.094  0.00  0.00    +0.130 C 
ATOM     22  C   LIG A   1      -3.883  -3.778 129.964  0.00  0.00    +0.086 C 
ATOM     23  O   LIG A   1      -5.774  -5.087 130.574  0.00  0.00    -0.298 OA
ENDBRANCH  20  21
ENDBRANCH  19  20
ENDBRANCH  18  19
ENDBRANCH  17  18
ENDBRANCH  16  17
ENDBRANCH  15  16
ENDBRANCH  14  15
ENDBRANCH  13  14
ENDBRANCH  12  13
ENDBRANCH  11  12
ENDBRANCH  10  11
ENDBRANCH   9  10
ENDBRANCH   6   9
BRANCH   3  24
ATOM     24  O   LIG A   1     -11.262   5.773 131.304  0.00  0.00    -0.429 OA
BRANCH  24  25
ATOM     25  C   LIG A   1     -12.007   6.864 131.111  0.00  0.00    +0.511 C 
ATOM     26  O   LIG A   1     -13.104   7.085 131.615  0.00  0.00    -0.203 OA
BRANCH  25  27
ATOM     27  O   LIG A   1     -11.337   7.664 130.268  0.00  0.00    -0.428 OA
BRANCH  27  28
ATOM     28  C   LIG A   1     -11.932   8.101 129.023  0.00  0.00    +0.109 C 
ATOM     29  C   LIG A   1     -10.789   8.419 128.053  0.00  0.00    +0.055 C 
ATOM     30  C   LIG A   1     -12.746   6.910 128.484  0.00  0.00    +0.055 C 
ATOM     31  C   LIG A   1     -12.867   9.296 129.186  0.00  0.00    +0.055 C 
ENDBRANCH  27  28
ENDBRANCH  25  27
ENDBRANCH  24  25
ENDBRANCH   3  24
TORSDOF 17
ENDMDL
