MODEL 1
REMARK VINA RESULT:      -8.9      0.000      0.000
REMARK  Name = NuBBE_1263
REMARK  5 active torsions:
REMARK  status: ('A' for Active; 'I' for Inactive)
REMARK    1  A    between atoms: C_4  and  C_5
REMARK    2  A    between atoms: C_8  and  O_9
REMARK    3  A    between atoms: C_18  and  C_19
REMARK    4  A    between atoms: C_18  and  C_20
REMARK    5  A    between atoms: C_24  and  O_25
REMARK                            x       y       z     vdW  Elec       q    Type
REMARK                         _______ _______ _______ _____ _____    ______ ____
ROOT
ATOM      1  O   LIG A   1      -6.725   4.151 126.517  0.00  0.00    -0.287 OA
ATOM      2  C   LIG A   1      -6.741   3.451 125.512  0.00  0.00    +0.197 A 
ATOM      3  C   LIG A   1      -6.498   4.087 124.207  0.00  0.00    +0.098 A 
ATOM      4  C   LIG A   1      -6.506   3.341 123.097  0.00  0.00    +0.139 A 
ATOM      5  O   LIG A   1      -6.748   1.982 123.082  0.00  0.00    -0.454 OA
ATOM      6  C   LIG A   1      -6.989   1.990 125.505  0.00  0.00    +0.106 A 
ATOM      7  C   LIG A   1      -6.978   1.326 124.270  0.00  0.00    +0.153 A 
ATOM      8  C   LIG A   1      -7.209  -0.062 124.199  0.00  0.00    +0.060 A 
ATOM      9  C   LIG A   1      -7.194  -0.787 122.932  0.00  0.00    +0.015 C 
ATOM     10  C   LIG A   1      -7.465  -2.095 122.944  0.00  0.00    +0.020 C 
ATOM     11  C   LIG A   1      -7.785  -2.865 124.202  0.00  0.00    +0.123 C 
ATOM     12  C   LIG A   1      -9.221  -3.394 124.125  0.00  0.00    +0.060 C 
ATOM     13  C   LIG A   1      -6.808  -4.039 124.339  0.00  0.00    +0.060 C 
ATOM     14  O   LIG A   1      -7.686  -2.117 125.431  0.00  0.00    -0.481 OA
ATOM     15  C   LIG A   1      -7.454  -0.772 125.377  0.00  0.00    +0.136 A 
ATOM     16  C   LIG A   1      -7.461  -0.116 126.609  0.00  0.00    +0.092 A 
ATOM     17  C   LIG A   1      -7.231   1.257 126.673  0.00  0.00    +0.135 A 
ENDROOT
BRANCH   4  18
ATOM     18  C   LIG A   1      -6.280   3.930 121.763  0.00  0.00    +0.018 A 
ATOM     19  C   LIG A   1      -5.099   4.645 121.502  0.00  0.00    +0.015 A 
ATOM     20  C   LIG A   1      -4.870   5.221 120.249  0.00  0.00    +0.046 A 
ATOM     21  C   LIG A   1      -5.828   5.089 119.252  0.00  0.00    +0.117 A 
ATOM     22  C   LIG A   1      -7.007   4.395 119.487  0.00  0.00    +0.046 A 
ATOM     23  C   LIG A   1      -7.236   3.820 120.740  0.00  0.00    +0.015 A 
BRANCH  21  24
ATOM     24  O   LIG A   1      -5.648   5.634 118.016  0.00  0.00    -0.507 OA
ATOM     25  H   LIG A   1      -5.877   6.576 118.054  0.00  0.00    +0.292 HD
ENDBRANCH  21  24
ENDBRANCH   4  18
BRANCH  17  26
ATOM     26  O   LIG A   1      -7.247   1.866 127.895  0.00  0.00    -0.506 OA
ATOM     27  H   LIG A   1      -7.654   2.745 127.833  0.00  0.00    +0.292 HD
ENDBRANCH  17  26
TORSDOF 3
ENDMDL
MODEL 2
REMARK VINA RESULT:      -8.4      9.669     10.606
REMARK  Name = NuBBE_1263
REMARK  5 active torsions:
REMARK  status: ('A' for Active; 'I' for Inactive)
REMARK    1  A    between atoms: C_4  and  C_5
REMARK    2  A    between atoms: C_8  and  O_9
REMARK    3  A    between atoms: C_18  and  C_19
REMARK    4  A    between atoms: C_18  and  C_20
REMARK    5  A    between atoms: C_24  and  O_25
REMARK                            x       y       z     vdW  Elec       q    Type
REMARK                         _______ _______ _______ _____ _____    ______ ____
ROOT
ATOM      1  O   LIG A   1      -9.416   3.624 133.714  0.00  0.00    -0.287 OA
ATOM      2  C   LIG A   1      -8.994   4.508 132.979  0.00  0.00    +0.197 A 
ATOM      3  C   LIG A   1      -9.961   5.288 132.189  0.00  0.00    +0.098 A 
ATOM      4  C   LIG A   1      -9.522   6.262 131.384  0.00  0.00    +0.139 A 
ATOM      5  O   LIG A   1      -8.192   6.589 131.222  0.00  0.00    -0.454 OA
ATOM      6  C   LIG A   1      -7.564   4.863 132.820  0.00  0.00    +0.106 A 
ATOM      7  C   LIG A   1      -7.237   5.901 131.936  0.00  0.00    +0.153 A 
ATOM      8  C   LIG A   1      -5.894   6.282 131.741  0.00  0.00    +0.060 A 
ATOM      9  C   LIG A   1      -5.519   7.365 130.837  0.00  0.00    +0.015 C 
ATOM     10  C   LIG A   1      -4.221   7.637 130.674  0.00  0.00    +0.020 C 
ATOM     11  C   LIG A   1      -3.120   6.882 131.378  0.00  0.00    +0.123 C 
ATOM     12  C   LIG A   1      -2.263   6.146 130.342  0.00  0.00    +0.060 C 
ATOM     13  C   LIG A   1      -2.249   7.872 132.161  0.00  0.00    +0.060 C 
ATOM     14  O   LIG A   1      -3.556   5.892 132.332  0.00  0.00    -0.481 OA
ATOM     15  C   LIG A   1      -4.888   5.608 132.437  0.00  0.00    +0.136 A 
ATOM     16  C   LIG A   1      -5.209   4.577 133.321  0.00  0.00    +0.092 A 
ATOM     17  C   LIG A   1      -6.539   4.205 133.512  0.00  0.00    +0.135 A 
ENDROOT
BRANCH   4  18
ATOM     18  C   LIG A   1     -10.447   7.067 130.562  0.00  0.00    +0.018 A 
ATOM     19  C   LIG A   1      -9.980   7.703 129.400  0.00  0.00    +0.015 A 
ATOM     20  C   LIG A   1     -10.836   8.479 128.613  0.00  0.00    +0.046 A 
ATOM     21  C   LIG A   1     -12.164   8.628 128.991  0.00  0.00    +0.117 A 
ATOM     22  C   LIG A   1     -12.647   8.017 130.141  0.00  0.00    +0.046 A 
ATOM     23  C   LIG A   1     -11.792   7.241 130.927  0.00  0.00    +0.015 A 
BRANCH  21  24
ATOM     24  O   LIG A   1     -13.035   9.375 128.256  0.00  0.00    -0.507 OA
ATOM     25  H   LIG A   1     -13.490   8.793 127.626  0.00  0.00    +0.292 HD
ENDBRANCH  21  24
ENDBRANCH   4  18
BRANCH  17  26
ATOM     26  O   LIG A   1      -6.816   3.191 134.383  0.00  0.00    -0.506 OA
ATOM     27  H   LIG A   1      -7.500   3.462 135.015  0.00  0.00    +0.292 HD
ENDBRANCH  17  26
TORSDOF 3
ENDMDL
MODEL 3
REMARK VINA RESULT:      -8.4      2.583      4.469
REMARK  Name = NuBBE_1263
REMARK  5 active torsions:
REMARK  status: ('A' for Active; 'I' for Inactive)
REMARK    1  A    between atoms: C_4  and  C_5
REMARK    2  A    between atoms: C_8  and  O_9
REMARK    3  A    between atoms: C_18  and  C_19
REMARK    4  A    between atoms: C_18  and  C_20
REMARK    5  A    between atoms: C_24  and  O_25
REMARK                            x       y       z     vdW  Elec       q    Type
REMARK                         _______ _______ _______ _____ _____    ______ ____
ROOT
ATOM      1  O   LIG A   1     -10.109   1.073 123.451  0.00  0.00    -0.287 OA
ATOM      2  C   LIG A   1      -9.114   1.785 123.486  0.00  0.00    +0.197 A 
ATOM      3  C   LIG A   1      -8.668   2.433 122.241  0.00  0.00    +0.098 A 
ATOM      4  C   LIG A   1      -7.586   3.219 122.257  0.00  0.00    +0.139 A 
ATOM      5  O   LIG A   1      -6.825   3.462 123.382  0.00  0.00    -0.454 OA
ATOM      6  C   LIG A   1      -8.308   2.053 124.701  0.00  0.00    +0.106 A 
ATOM      7  C   LIG A   1      -7.191   2.891 124.580  0.00  0.00    +0.153 A 
ATOM      8  C   LIG A   1      -6.385   3.180 125.699  0.00  0.00    +0.060 A 
ATOM      9  C   LIG A   1      -5.222   4.057 125.611  0.00  0.00    +0.015 C 
ATOM     10  C   LIG A   1      -4.484   4.247 126.708  0.00  0.00    +0.020 C 
ATOM     11  C   LIG A   1      -4.793   3.603 128.038  0.00  0.00    +0.123 C 
ATOM     12  C   LIG A   1      -3.653   2.653 128.422  0.00  0.00    +0.060 C 
ATOM     13  C   LIG A   1      -4.939   4.694 129.106  0.00  0.00    +0.060 C 
ATOM     14  O   LIG A   1      -6.009   2.831 128.087  0.00  0.00    -0.481 OA
ATOM     15  C   LIG A   1      -6.712   2.618 126.935  0.00  0.00    +0.136 A 
ATOM     16  C   LIG A   1      -7.826   1.787 127.062  0.00  0.00    +0.092 A 
ATOM     17  C   LIG A   1      -8.620   1.505 125.951  0.00  0.00    +0.135 A 
ENDROOT
BRANCH   4  18
ATOM     18  C   LIG A   1      -7.089   3.883 121.036  0.00  0.00    +0.018 A 
ATOM     19  C   LIG A   1      -5.784   4.400 121.000  0.00  0.00    +0.015 A 
ATOM     20  C   LIG A   1      -5.297   5.043 119.858  0.00  0.00    +0.046 A 
ATOM     21  C   LIG A   1      -6.120   5.177 118.747  0.00  0.00    +0.117 A 
ATOM     22  C   LIG A   1      -7.417   4.683 118.761  0.00  0.00    +0.046 A 
ATOM     23  C   LIG A   1      -7.903   4.040 119.903  0.00  0.00    +0.015 A 
BRANCH  21  24
ATOM     24  O   LIG A   1      -5.688   5.796 117.612  0.00  0.00    -0.507 OA
ATOM     25  H   LIG A   1      -4.917   6.344 117.831  0.00  0.00    +0.292 HD
ENDBRANCH  21  24
ENDBRANCH   4  18
BRANCH  17  26
ATOM     26  O   LIG A   1      -9.701   0.687 126.112  0.00  0.00    -0.506 OA
ATOM     27  H   LIG A   1      -9.595   0.131 126.900  0.00  0.00    +0.292 HD
ENDBRANCH  17  26
TORSDOF 3
ENDMDL
MODEL 4
REMARK VINA RESULT:      -8.1      2.449      4.272
REMARK  Name = NuBBE_1263
REMARK  5 active torsions:
REMARK  status: ('A' for Active; 'I' for Inactive)
REMARK    1  A    between atoms: C_4  and  C_5
REMARK    2  A    between atoms: C_8  and  O_9
REMARK    3  A    between atoms: C_18  and  C_19
REMARK    4  A    between atoms: C_18  and  C_20
REMARK    5  A    between atoms: C_24  and  O_25
REMARK                            x       y       z     vdW  Elec       q    Type
REMARK                         _______ _______ _______ _____ _____    ______ ____
ROOT
ATOM      1  O   LIG A   1      -9.954  -1.215 123.010  0.00  0.00    -0.287 OA
ATOM      2  C   LIG A   1      -9.018  -0.722 123.628  0.00  0.00    +0.197 A 
ATOM      3  C   LIG A   1      -8.344   0.458 123.060  0.00  0.00    +0.098 A 
ATOM      4  C   LIG A   1      -7.323   1.016 123.720  0.00  0.00    +0.139 A 
ATOM      5  O   LIG A   1      -6.830   0.545 124.920  0.00  0.00    -0.454 OA
ATOM      6  C   LIG A   1      -8.502  -1.225 124.923  0.00  0.00    +0.106 A 
ATOM      7  C   LIG A   1      -7.420  -0.552 125.507  0.00  0.00    +0.153 A 
ATOM      8  C   LIG A   1      -6.884  -0.985 126.736  0.00  0.00    +0.060 A 
ATOM      9  C   LIG A   1      -5.765  -0.302 127.378  0.00  0.00    +0.015 C 
ATOM     10  C   LIG A   1      -5.287  -0.800 128.521  0.00  0.00    +0.020 C 
ATOM     11  C   LIG A   1      -5.845  -2.034 129.187  0.00  0.00    +0.123 C 
ATOM     12  C   LIG A   1      -4.776  -3.132 129.207  0.00  0.00    +0.060 C 
ATOM     13  C   LIG A   1      -6.260  -1.690 130.623  0.00  0.00    +0.060 C 
ATOM     14  O   LIG A   1      -7.012  -2.605 128.560  0.00  0.00    -0.481 OA
ATOM     15  C   LIG A   1      -7.443  -2.098 127.367  0.00  0.00    +0.136 A 
ATOM     16  C   LIG A   1      -8.524  -2.768 126.792  0.00  0.00    +0.092 A 
ATOM     17  C   LIG A   1      -9.051  -2.335 125.576  0.00  0.00    +0.135 A 
ENDROOT
BRANCH   4  18
ATOM     18  C   LIG A   1      -6.605   2.192 123.191  0.00  0.00    +0.018 A 
ATOM     19  C   LIG A   1      -6.110   3.167 124.073  0.00  0.00    +0.015 A 
ATOM     20  C   LIG A   1      -5.438   4.295 123.594  0.00  0.00    +0.046 A 
ATOM     21  C   LIG A   1      -5.264   4.454 122.224  0.00  0.00    +0.117 A 
ATOM     22  C   LIG A   1      -5.752   3.510 121.332  0.00  0.00    +0.046 A 
ATOM     23  C   LIG A   1      -6.424   2.383 121.812  0.00  0.00    +0.015 A 
BRANCH  21  24
ATOM     24  O   LIG A   1      -4.615   5.537 121.711  0.00  0.00    -0.507 OA
ATOM     25  H   LIG A   1      -4.548   6.216 122.402  0.00  0.00    +0.292 HD
ENDBRANCH  21  24
ENDBRANCH   4  18
BRANCH  17  26
ATOM     26  O   LIG A   1     -10.107  -3.016 125.041  0.00  0.00    -0.506 OA
ATOM     27  H   LIG A   1     -10.722  -2.404 124.606  0.00  0.00    +0.292 HD
ENDBRANCH  17  26
TORSDOF 3
ENDMDL
MODEL 5
REMARK VINA RESULT:      -7.9      3.015      8.244
REMARK  Name = NuBBE_1263
REMARK  5 active torsions:
REMARK  status: ('A' for Active; 'I' for Inactive)
REMARK    1  A    between atoms: C_4  and  C_5
REMARK    2  A    between atoms: C_8  and  O_9
REMARK    3  A    between atoms: C_18  and  C_19
REMARK    4  A    between atoms: C_18  and  C_20
REMARK    5  A    between atoms: C_24  and  O_25
REMARK                            x       y       z     vdW  Elec       q    Type
REMARK                         _______ _______ _______ _____ _____    ______ ____
ROOT
ATOM      1  O   LIG A   1      -9.753  -2.860 124.551  0.00  0.00    -0.287 OA
ATOM      2  C   LIG A   1      -8.902  -2.198 125.131  0.00  0.00    +0.197 A 
ATOM      3  C   LIG A   1      -8.204  -2.800 126.279  0.00  0.00    +0.098 A 
ATOM      4  C   LIG A   1      -7.267  -2.097 126.925  0.00  0.00    +0.139 A 
ATOM      5  O   LIG A   1      -6.906  -0.806 126.595  0.00  0.00    -0.454 OA
ATOM      6  C   LIG A   1      -8.510  -0.817 124.763  0.00  0.00    +0.106 A 
ATOM      7  C   LIG A   1      -7.517  -0.188 125.527  0.00  0.00    +0.153 A 
ATOM      8  C   LIG A   1      -7.104   1.125 125.227  0.00  0.00    +0.060 A 
ATOM      9  C   LIG A   1      -6.066   1.806 125.994  0.00  0.00    +0.015 C 
ATOM     10  C   LIG A   1      -5.761   3.067 125.674  0.00  0.00    +0.020 C 
ATOM     11  C   LIG A   1      -6.434   3.825 124.556  0.00  0.00    +0.123 C 
ATOM     12  C   LIG A   1      -7.203   5.016 125.138  0.00  0.00    +0.060 C 
ATOM     13  C   LIG A   1      -5.369   4.327 123.573  0.00  0.00    +0.060 C 
ATOM     14  O   LIG A   1      -7.377   3.068 123.771  0.00  0.00    -0.481 OA
ATOM     15  C   LIG A   1      -7.699   1.798 124.157  0.00  0.00    +0.136 A 
ATOM     16  C   LIG A   1      -8.684   1.174 123.391  0.00  0.00    +0.092 A 
ATOM     17  C   LIG A   1      -9.089  -0.126 123.691  0.00  0.00    +0.135 A 
ENDROOT
BRANCH   4  18
ATOM     18  C   LIG A   1      -6.546  -2.647 128.089  0.00  0.00    +0.018 A 
ATOM     19  C   LIG A   1      -5.149  -2.521 128.172  0.00  0.00    +0.015 A 
ATOM     20  C   LIG A   1      -4.445  -3.046 129.260  0.00  0.00    +0.046 A 
ATOM     21  C   LIG A   1      -5.137  -3.706 130.267  0.00  0.00    +0.117 A 
ATOM     22  C   LIG A   1      -6.516  -3.852 130.203  0.00  0.00    +0.046 A 
ATOM     23  C   LIG A   1      -7.220  -3.328 129.115  0.00  0.00    +0.015 A 
BRANCH  21  24
ATOM     24  O   LIG A   1      -4.492  -4.234 131.346  0.00  0.00    -0.507 OA
ATOM     25  H   LIG A   1      -3.536  -4.113 131.227  0.00  0.00    +0.292 HD
ENDBRANCH  21  24
ENDBRANCH   4  18
BRANCH  17  26
ATOM     26  O   LIG A   1     -10.057  -0.704 122.921  0.00  0.00    -0.506 OA
ATOM     27  H   LIG A   1     -10.380  -1.520 123.335  0.00  0.00    +0.292 HD
ENDBRANCH  17  26
TORSDOF 3
ENDMDL
MODEL 6
REMARK VINA RESULT:      -7.7      5.890      8.925
REMARK  Name = NuBBE_1263
REMARK  5 active torsions:
REMARK  status: ('A' for Active; 'I' for Inactive)
REMARK    1  A    between atoms: C_4  and  C_5
REMARK    2  A    between atoms: C_8  and  O_9
REMARK    3  A    between atoms: C_18  and  C_19
REMARK    4  A    between atoms: C_18  and  C_20
REMARK    5  A    between atoms: C_24  and  O_25
REMARK                            x       y       z     vdW  Elec       q    Type
REMARK                         _______ _______ _______ _____ _____    ______ ____
ROOT
ATOM      1  O   LIG A   1      -7.664   3.943 133.064  0.00  0.00    -0.287 OA
ATOM      2  C   LIG A   1      -7.800   4.371 131.924  0.00  0.00    +0.197 A 
ATOM      3  C   LIG A   1      -6.714   4.146 130.955  0.00  0.00    +0.098 A 
ATOM      4  C   LIG A   1      -6.842   4.599 129.703  0.00  0.00    +0.139 A 
ATOM      5  O   LIG A   1      -7.941   5.297 129.244  0.00  0.00    -0.454 OA
ATOM      6  C   LIG A   1      -8.988   5.107 131.434  0.00  0.00    +0.106 A 
ATOM      7  C   LIG A   1      -8.994   5.536 130.099  0.00  0.00    +0.153 A 
ATOM      8  C   LIG A   1     -10.094   6.243 129.576  0.00  0.00    +0.060 A 
ATOM      9  C   LIG A   1     -10.138   6.694 128.189  0.00  0.00    +0.015 C 
ATOM     10  C   LIG A   1     -11.199   7.396 127.781  0.00  0.00    +0.020 C 
ATOM     11  C   LIG A   1     -12.359   7.746 128.681  0.00  0.00    +0.123 C 
ATOM     12  C   LIG A   1     -12.434   9.268 128.847  0.00  0.00    +0.060 C 
ATOM     13  C   LIG A   1     -13.659   7.229 128.055  0.00  0.00    +0.060 C 
ATOM     14  O   LIG A   1     -12.305   7.188 130.010  0.00  0.00    -0.481 OA
ATOM     15  C   LIG A   1     -11.183   6.516 130.406  0.00  0.00    +0.136 A 
ATOM     16  C   LIG A   1     -11.185   6.087 131.735  0.00  0.00    +0.092 A 
ATOM     17  C   LIG A   1     -10.093   5.388 132.247  0.00  0.00    +0.135 A 
ENDROOT
BRANCH   4  18
ATOM     18  C   LIG A   1      -5.781   4.412 128.696  0.00  0.00    +0.018 A 
ATOM     19  C   LIG A   1      -6.121   4.204 127.349  0.00  0.00    +0.015 A 
ATOM     20  C   LIG A   1      -5.132   4.012 126.380  0.00  0.00    +0.046 A 
ATOM     21  C   LIG A   1      -3.795   4.021 126.757  0.00  0.00    +0.117 A 
ATOM     22  C   LIG A   1      -3.434   4.215 128.084  0.00  0.00    +0.046 A 
ATOM     23  C   LIG A   1      -4.423   4.406 129.052  0.00  0.00    +0.015 A 
BRANCH  21  24
ATOM     24  O   LIG A   1      -2.797   3.837 125.848  0.00  0.00    -0.507 OA
ATOM     25  H   LIG A   1      -3.145   4.025 124.961  0.00  0.00    +0.292 HD
ENDBRANCH  21  24
ENDBRANCH   4  18
BRANCH  17  26
ATOM     26  O   LIG A   1     -10.128   4.985 133.551  0.00  0.00    -0.506 OA
ATOM     27  H   LIG A   1     -10.994   5.177 133.944  0.00  0.00    +0.292 HD
ENDBRANCH  17  26
TORSDOF 3
ENDMDL
MODEL 7
REMARK VINA RESULT:      -7.7      2.874      6.750
REMARK  Name = NuBBE_1263
REMARK  5 active torsions:
REMARK  status: ('A' for Active; 'I' for Inactive)
REMARK    1  A    between atoms: C_4  and  C_5
REMARK    2  A    between atoms: C_8  and  O_9
REMARK    3  A    between atoms: C_18  and  C_19
REMARK    4  A    between atoms: C_18  and  C_20
REMARK    5  A    between atoms: C_24  and  O_25
REMARK                            x       y       z     vdW  Elec       q    Type
REMARK                         _______ _______ _______ _____ _____    ______ ____
ROOT
ATOM      1  O   LIG A   1      -6.695   4.479 125.369  0.00  0.00    -0.287 OA
ATOM      2  C   LIG A   1      -7.185   3.500 125.919  0.00  0.00    +0.197 A 
ATOM      3  C   LIG A   1      -7.636   3.629 127.314  0.00  0.00    +0.098 A 
ATOM      4  C   LIG A   1      -8.179   2.574 127.933  0.00  0.00    +0.139 A 
ATOM      5  O   LIG A   1      -8.337   1.334 127.348  0.00  0.00    -0.454 OA
ATOM      6  C   LIG A   1      -7.364   2.174 125.281  0.00  0.00    +0.106 A 
ATOM      7  C   LIG A   1      -7.940   1.149 126.043  0.00  0.00    +0.153 A 
ATOM      8  C   LIG A   1      -8.133  -0.134 125.492  0.00  0.00    +0.060 A 
ATOM      9  C   LIG A   1      -8.740  -1.221 126.254  0.00  0.00    +0.015 C 
ATOM     10  C   LIG A   1      -8.849  -2.420 125.674  0.00  0.00    +0.020 C 
ATOM     11  C   LIG A   1      -8.379  -2.709 124.269  0.00  0.00    +0.123 C 
ATOM     12  C   LIG A   1      -7.242  -3.735 124.313  0.00  0.00    +0.060 C 
ATOM     13  C   LIG A   1      -9.549  -3.267 123.449  0.00  0.00    +0.060 C 
ATOM     14  O   LIG A   1      -7.882  -1.572 123.534  0.00  0.00    -0.481 OA
ATOM     15  C   LIG A   1      -7.740  -0.374 124.174  0.00  0.00    +0.136 A 
ATOM     16  C   LIG A   1      -7.170   0.645 123.410  0.00  0.00    +0.092 A 
ATOM     17  C   LIG A   1      -6.982   1.913 123.959  0.00  0.00    +0.135 A 
ENDROOT
BRANCH   4  18
ATOM     18  C   LIG A   1      -8.637   2.646 129.334  0.00  0.00    +0.018 A 
ATOM     19  C   LIG A   1      -9.125   3.857 129.851  0.00  0.00    +0.015 A 
ATOM     20  C   LIG A   1      -9.553   3.951 131.179  0.00  0.00    +0.046 A 
ATOM     21  C   LIG A   1      -9.488   2.830 131.998  0.00  0.00    +0.117 A 
ATOM     22  C   LIG A   1      -9.001   1.624 131.512  0.00  0.00    +0.046 A 
ATOM     23  C   LIG A   1      -8.573   1.531 130.185  0.00  0.00    +0.015 A 
BRANCH  21  24
ATOM     24  O   LIG A   1      -9.893   2.874 133.298  0.00  0.00    -0.507 OA
ATOM     25  H   LIG A   1      -9.193   3.286 133.829  0.00  0.00    +0.292 HD
ENDBRANCH  21  24
ENDBRANCH   4  18
BRANCH  17  26
ATOM     26  O   LIG A   1      -6.420   2.885 123.183  0.00  0.00    -0.506 OA
ATOM     27  H   LIG A   1      -6.401   2.611 122.253  0.00  0.00    +0.292 HD
ENDBRANCH  17  26
TORSDOF 3
ENDMDL
MODEL 8
REMARK VINA RESULT:      -7.7      4.518      8.783
REMARK  Name = NuBBE_1263
REMARK  5 active torsions:
REMARK  status: ('A' for Active; 'I' for Inactive)
REMARK    1  A    between atoms: C_4  and  C_5
REMARK    2  A    between atoms: C_8  and  O_9
REMARK    3  A    between atoms: C_18  and  C_19
REMARK    4  A    between atoms: C_18  and  C_20
REMARK    5  A    between atoms: C_24  and  O_25
REMARK                            x       y       z     vdW  Elec       q    Type
REMARK                         _______ _______ _______ _____ _____    ______ ____
ROOT
ATOM      1  O   LIG A   1      -8.078   1.690 130.144  0.00  0.00    -0.287 OA
ATOM      2  C   LIG A   1      -7.859   0.568 129.705  0.00  0.00    +0.197 A 
ATOM      3  C   LIG A   1      -7.371  -0.467 130.631  0.00  0.00    +0.098 A 
ATOM      4  C   LIG A   1      -7.130  -1.701 130.174  0.00  0.00    +0.139 A 
ATOM      5  O   LIG A   1      -7.293  -2.083 128.858  0.00  0.00    -0.454 OA
ATOM      6  C   LIG A   1      -8.050   0.161 128.292  0.00  0.00    +0.106 A 
ATOM      7  C   LIG A   1      -7.752  -1.162 127.942  0.00  0.00    +0.153 A 
ATOM      8  C   LIG A   1      -7.911  -1.607 126.614  0.00  0.00    +0.060 A 
ATOM      9  C   LIG A   1      -7.621  -2.981 126.217  0.00  0.00    +0.015 C 
ATOM     10  C   LIG A   1      -7.756  -3.313 124.930  0.00  0.00    +0.020 C 
ATOM     11  C   LIG A   1      -8.195  -2.340 123.863  0.00  0.00    +0.123 C 
ATOM     12  C   LIG A   1      -7.059  -2.143 122.853  0.00  0.00    +0.060 C 
ATOM     13  C   LIG A   1      -9.432  -2.898 123.148  0.00  0.00    +0.060 C 
ATOM     14  O   LIG A   1      -8.563  -1.027 124.333  0.00  0.00    -0.481 OA
ATOM     15  C   LIG A   1      -8.367  -0.709 125.647  0.00  0.00    +0.136 A 
ATOM     16  C   LIG A   1      -8.669   0.609 125.992  0.00  0.00    +0.092 A 
ATOM     17  C   LIG A   1      -8.511   1.043 127.307  0.00  0.00    +0.135 A 
ENDROOT
BRANCH   4  18
ATOM     18  C   LIG A   1      -6.628  -2.773 131.056  0.00  0.00    +0.018 A 
ATOM     19  C   LIG A   1      -6.872  -2.714 132.439  0.00  0.00    +0.015 A 
ATOM     20  C   LIG A   1      -6.396  -3.712 133.295  0.00  0.00    +0.046 A 
ATOM     21  C   LIG A   1      -5.668  -4.772 132.769  0.00  0.00    +0.117 A 
ATOM     22  C   LIG A   1      -5.405  -4.847 131.408  0.00  0.00    +0.046 A 
ATOM     23  C   LIG A   1      -5.881  -3.849 130.553  0.00  0.00    +0.015 A 
BRANCH  21  24
ATOM     24  O   LIG A   1      -5.184  -5.767 133.565  0.00  0.00    -0.507 OA
ATOM     25  H   LIG A   1      -4.214  -5.730 133.554  0.00  0.00    +0.292 HD
ENDBRANCH  21  24
ENDBRANCH   4  18
BRANCH  17  26
ATOM     26  O   LIG A   1      -8.814   2.340 127.608  0.00  0.00    -0.506 OA
ATOM     27  H   LIG A   1      -8.274   2.652 128.352  0.00  0.00    +0.292 HD
ENDBRANCH  17  26
TORSDOF 3
ENDMDL
MODEL 9
REMARK VINA RESULT:      -7.7      3.214      5.250
REMARK  Name = NuBBE_1263
REMARK  5 active torsions:
REMARK  status: ('A' for Active; 'I' for Inactive)
REMARK    1  A    between atoms: C_4  and  C_5
REMARK    2  A    between atoms: C_8  and  O_9
REMARK    3  A    between atoms: C_18  and  C_19
REMARK    4  A    between atoms: C_18  and  C_20
REMARK    5  A    between atoms: C_24  and  O_25
REMARK                            x       y       z     vdW  Elec       q    Type
REMARK                         _______ _______ _______ _____ _____    ______ ____
ROOT
ATOM      1  O   LIG A   1      -9.807  -1.124 123.524  0.00  0.00    -0.287 OA
ATOM      2  C   LIG A   1      -9.112  -0.689 124.434  0.00  0.00    +0.197 A 
ATOM      3  C   LIG A   1      -8.592   0.684 124.327  0.00  0.00    +0.098 A 
ATOM      4  C   LIG A   1      -7.835   1.182 125.311  0.00  0.00    +0.139 A 
ATOM      5  O   LIG A   1      -7.483   0.478 126.445  0.00  0.00    -0.454 OA
ATOM      6  C   LIG A   1      -8.749  -1.446 125.655  0.00  0.00    +0.106 A 
ATOM      7  C   LIG A   1      -7.942  -0.810 126.609  0.00  0.00    +0.153 A 
ATOM      8  C   LIG A   1      -7.561  -1.479 127.789  0.00  0.00    +0.060 A 
ATOM      9  C   LIG A   1      -6.731  -0.843 128.808  0.00  0.00    +0.015 C 
ATOM     10  C   LIG A   1      -6.378  -1.560 129.878  0.00  0.00    +0.020 C 
ATOM     11  C   LIG A   1      -6.795  -2.995 130.092  0.00  0.00    +0.123 C 
ATOM     12  C   LIG A   1      -5.552  -3.892 130.091  0.00  0.00    +0.060 C 
ATOM     13  C   LIG A   1      -7.519  -3.116 131.437  0.00  0.00    +0.060 C 
ATOM     14  O   LIG A   1      -7.694  -3.534 129.103  0.00  0.00    -0.481 OA
ATOM     15  C   LIG A   1      -7.996  -2.790 127.997  0.00  0.00    +0.136 A 
ATOM     16  C   LIG A   1      -8.803  -3.426 127.053  0.00  0.00    +0.092 A 
ATOM     17  C   LIG A   1      -9.177  -2.759 125.887  0.00  0.00    +0.135 A 
ENDROOT
BRANCH   4  18
ATOM     18  C   LIG A   1      -7.278   2.547 125.250  0.00  0.00    +0.018 A 
ATOM     19  C   LIG A   1      -8.102   3.653 125.516  0.00  0.00    +0.015 A 
ATOM     20  C   LIG A   1      -7.599   4.956 125.452  0.00  0.00    +0.046 A 
ATOM     21  C   LIG A   1      -6.267   5.157 125.113  0.00  0.00    +0.117 A 
ATOM     22  C   LIG A   1      -5.435   4.080 124.835  0.00  0.00    +0.046 A 
ATOM     23  C   LIG A   1      -5.939   2.778 124.900  0.00  0.00    +0.015 A 
BRANCH  21  24
ATOM     24  O   LIG A   1      -5.732   6.408 125.037  0.00  0.00    -0.507 OA
ATOM     25  H   LIG A   1      -6.377   6.996 124.611  0.00  0.00    +0.292 HD
ENDBRANCH  21  24
ENDBRANCH   4  18
BRANCH  17  26
ATOM     26  O   LIG A   1      -9.966  -3.412 124.985  0.00  0.00    -0.506 OA
ATOM     27  H   LIG A   1     -10.139  -4.321 125.278  0.00  0.00    +0.292 HD
ENDBRANCH  17  26
TORSDOF 3
ENDMDL
