MODEL 1
REMARK VINA RESULT:      -6.6      0.000      0.000
REMARK  Name = NuBBE_324
REMARK  15 active torsions:
REMARK  status: ('A' for Active; 'I' for Inactive)
REMARK    1  A    between atoms: O_1  and  C_2
REMARK    2  A    between atoms: C_3  and  C_9
REMARK    3  A    between atoms: C_9  and  C_10
REMARK    4  A    between atoms: C_10  and  C_11
REMARK    5  A    between atoms: C_11  and  C_12
REMARK    6  A    between atoms: C_12  and  C_13
REMARK    7  A    between atoms: C_13  and  C_14
REMARK    8  A    between atoms: C_14  and  C_15
REMARK    9  A    between atoms: C_15  and  C_16
REMARK   10  A    between atoms: C_16  and  C_17
REMARK   11  A    between atoms: C_17  and  C_18
REMARK   12  A    between atoms: C_18  and  C_19
REMARK   13  A    between atoms: C_19  and  C_20
REMARK   14  A    between atoms: C_20  and  C_21
REMARK   15  A    between atoms: C_21  and  C_22
REMARK                            x       y       z     vdW  Elec       q    Type
REMARK                         _______ _______ _______ _____ _____    ______ ____
ROOT
ATOM      1  C   LIG A   1      -5.309  -2.171 124.235  0.00  0.00    -0.000 C 
ENDROOT
BRANCH   1   2
ATOM      2  C   LIG A   1      -5.615  -1.839 125.705  0.00  0.00    -0.000 C 
BRANCH   2   3
ATOM      3  C   LIG A   1      -5.331  -0.444 126.215  0.00  0.00    -0.000 C 
BRANCH   3   4
ATOM      4  C   LIG A   1      -5.950   0.771 125.496  0.00  0.00    +0.000 C 
BRANCH   4   5
ATOM      5  C   LIG A   1      -7.448   1.002 125.702  0.00  0.00    +0.000 C 
BRANCH   5   6
ATOM      6  C   LIG A   1      -8.191   1.346 124.412  0.00  0.00    +0.005 C 
BRANCH   6   7
ATOM      7  C   LIG A   1      -8.368   2.839 124.141  0.00  0.00    +0.046 C 
BRANCH   7   9
ATOM      8  C   LIG A   1      -7.925   3.470 121.637  0.00  0.00    +0.169 C 
ATOM      9  C   LIG A   1      -7.616   3.299 122.926  0.00  0.00    +0.082 C 
ATOM     10  C   LIG A   1      -6.267   3.830 122.968  0.00  0.00    +0.344 C 
ATOM     11  O   LIG A   1      -5.811   4.324 121.803  0.00  0.00    -0.419 OA
ATOM     12  C   LIG A   1      -6.828   4.004 120.919  0.00  0.00    +0.167 C 
ATOM     13  C   LIG A   1      -6.689   4.106 119.596  0.00  0.00    +0.062 C 
ATOM     14  O   LIG A   1      -5.561   3.837 124.043  0.00  0.00    -0.245 OA
BRANCH   8  15
ATOM     15  O   LIG A   1      -9.096   3.237 120.982  0.00  0.00    -0.503 OA
ATOM     16  H   LIG A   1      -9.784   3.033 121.636  0.00  0.00    +0.292 HD
ENDBRANCH   8  15
ENDBRANCH   7   9
ENDBRANCH   6   7
ENDBRANCH   5   6
ENDBRANCH   4   5
ENDBRANCH   3   4
ENDBRANCH   2   3
ENDBRANCH   1   2
BRANCH   1  17
ATOM     17  C   LIG A   1      -6.430  -2.798 123.352  0.00  0.00    -0.000 C 
BRANCH  17  18
ATOM     18  C   LIG A   1      -7.620  -1.880 123.086  0.00  0.00    -0.000 C 
BRANCH  18  19
ATOM     19  C   LIG A   1      -9.047  -2.418 123.259  0.00  0.00    +0.000 C 
BRANCH  19  20
ATOM     20  C   LIG A   1      -9.271  -3.308 124.518  0.00  0.00    +0.000 C 
BRANCH  20  21
ATOM     21  C   LIG A   1      -9.204  -2.648 125.910  0.00  0.00    +0.005 C 
BRANCH  21  22
ATOM     22  C   LIG A   1      -8.735  -3.493 127.092  0.00  0.00    +0.035 C 
BRANCH  22  23
ATOM     23  C   LIG A   1      -8.107  -2.870 128.322  0.00  0.00    -0.044 A 
ATOM     24  C   LIG A   1      -7.989  -1.477 128.291  0.00  0.00    +0.007 A 
ATOM     25  C   LIG A   1      -7.674  -0.720 129.414  0.00  0.00    +0.050 A 
ATOM     26  C   LIG A   1      -7.369  -1.362 130.563  0.00  0.00    +0.166 A 
ATOM     27  C   LIG A   1      -7.478  -2.721 130.650  0.00  0.00    +0.167 A 
ATOM     28  O   LIG A   1      -7.263  -3.121 131.939  0.00  0.00    -0.453 OA
ATOM     29  C   LIG A   1      -6.882  -1.867 132.567  0.00  0.00    +0.466 C 
ATOM     30  O   LIG A   1      -7.025  -0.731 131.708  0.00  0.00    -0.453 OA
ATOM     31  C   LIG A   1      -7.857  -3.504 129.552  0.00  0.00    +0.053 A 
ENDBRANCH  22  23
ENDBRANCH  21  22
ENDBRANCH  20  21
ENDBRANCH  19  20
ENDBRANCH  18  19
ENDBRANCH  17  18
ENDBRANCH   1  17
TORSDOF 15
ENDMDL
MODEL 2
REMARK VINA RESULT:      -6.5      1.899      3.018
REMARK  Name = NuBBE_324
REMARK  15 active torsions:
REMARK  status: ('A' for Active; 'I' for Inactive)
REMARK    1  A    between atoms: O_1  and  C_2
REMARK    2  A    between atoms: C_3  and  C_9
REMARK    3  A    between atoms: C_9  and  C_10
REMARK    4  A    between atoms: C_10  and  C_11
REMARK    5  A    between atoms: C_11  and  C_12
REMARK    6  A    between atoms: C_12  and  C_13
REMARK    7  A    between atoms: C_13  and  C_14
REMARK    8  A    between atoms: C_14  and  C_15
REMARK    9  A    between atoms: C_15  and  C_16
REMARK   10  A    between atoms: C_16  and  C_17
REMARK   11  A    between atoms: C_17  and  C_18
REMARK   12  A    between atoms: C_18  and  C_19
REMARK   13  A    between atoms: C_19  and  C_20
REMARK   14  A    between atoms: C_20  and  C_21
REMARK   15  A    between atoms: C_21  and  C_22
REMARK                            x       y       z     vdW  Elec       q    Type
REMARK                         _______ _______ _______ _____ _____    ______ ____
ROOT
ATOM      1  C   LIG A   1      -6.848  -1.185 123.626  0.00  0.00    -0.000 C 
ENDROOT
BRANCH   1   2
ATOM      2  C   LIG A   1      -5.654  -1.630 124.489  0.00  0.00    -0.000 C 
BRANCH   2   3
ATOM      3  C   LIG A   1      -5.829  -1.726 125.988  0.00  0.00    -0.000 C 
BRANCH   3   4
ATOM      4  C   LIG A   1      -5.796  -0.442 126.842  0.00  0.00    +0.000 C 
BRANCH   4   5
ATOM      5  C   LIG A   1      -7.116  -0.005 127.477  0.00  0.00    +0.000 C 
BRANCH   5   6
ATOM      6  C   LIG A   1      -8.217   0.271 126.455  0.00  0.00    +0.005 C 
BRANCH   6   7
ATOM      7  C   LIG A   1      -8.539   1.748 126.227  0.00  0.00    +0.046 C 
BRANCH   7   9
ATOM      8  C   LIG A   1      -8.069   2.743 123.849  0.00  0.00    +0.169 C 
ATOM      9  C   LIG A   1      -8.759   2.073 124.778  0.00  0.00    +0.082 C 
ATOM     10  C   LIG A   1      -9.852   1.538 123.990  0.00  0.00    +0.344 C 
ATOM     11  O   LIG A   1      -9.804   1.825 122.676  0.00  0.00    -0.419 OA
ATOM     12  C   LIG A   1      -8.721   2.685 122.594  0.00  0.00    +0.167 C 
ATOM     13  C   LIG A   1      -8.454   3.400 121.500  0.00  0.00    +0.062 C 
ATOM     14  O   LIG A   1     -10.794   0.830 124.507  0.00  0.00    -0.245 OA
BRANCH   8  15
ATOM     15  O   LIG A   1      -6.884   3.405 123.951  0.00  0.00    -0.503 OA
ATOM     16  H   LIG A   1      -6.596   3.669 123.062  0.00  0.00    +0.292 HD
ENDBRANCH   8  15
ENDBRANCH   7   9
ENDBRANCH   6   7
ENDBRANCH   5   6
ENDBRANCH   4   5
ENDBRANCH   3   4
ENDBRANCH   2   3
ENDBRANCH   1   2
BRANCH   1  17
ATOM     17  C   LIG A   1      -7.851  -2.261 123.111  0.00  0.00    -0.000 C 
BRANCH  17  18
ATOM     18  C   LIG A   1      -8.955  -2.627 124.099  0.00  0.00    -0.000 C 
BRANCH  18  19
ATOM     19  C   LIG A   1      -8.670  -3.646 125.212  0.00  0.00    +0.000 C 
BRANCH  19  20
ATOM     20  C   LIG A   1      -9.235  -3.270 126.615  0.00  0.00    +0.000 C 
BRANCH  20  21
ATOM     21  C   LIG A   1      -8.543  -3.844 127.867  0.00  0.00    +0.005 C 
BRANCH  21  22
ATOM     22  C   LIG A   1      -8.375  -2.936 129.083  0.00  0.00    +0.035 C 
BRANCH  22  23
ATOM     23  C   LIG A   1      -7.137  -2.987 129.956  0.00  0.00    -0.044 A 
ATOM     24  C   LIG A   1      -6.386  -4.162 129.856  0.00  0.00    +0.007 A 
ATOM     25  C   LIG A   1      -5.105  -4.286 130.381  0.00  0.00    +0.050 A 
ATOM     26  C   LIG A   1      -4.600  -3.264 131.107  0.00  0.00    +0.166 A 
ATOM     27  C   LIG A   1      -5.289  -2.091 131.228  0.00  0.00    +0.167 A 
ATOM     28  O   LIG A   1      -4.520  -1.166 131.876  0.00  0.00    -0.453 OA
ATOM     29  C   LIG A   1      -3.362  -1.966 132.243  0.00  0.00    +0.466 C 
ATOM     30  O   LIG A   1      -3.378  -3.284 131.685  0.00  0.00    -0.453 OA
ATOM     31  C   LIG A   1      -6.554  -1.915 130.653  0.00  0.00    +0.053 A 
ENDBRANCH  22  23
ENDBRANCH  21  22
ENDBRANCH  20  21
ENDBRANCH  19  20
ENDBRANCH  18  19
ENDBRANCH  17  18
ENDBRANCH   1  17
TORSDOF 15
ENDMDL
MODEL 3
REMARK VINA RESULT:      -6.5      2.649      4.958
REMARK  Name = NuBBE_324
REMARK  15 active torsions:
REMARK  status: ('A' for Active; 'I' for Inactive)
REMARK    1  A    between atoms: O_1  and  C_2
REMARK    2  A    between atoms: C_3  and  C_9
REMARK    3  A    between atoms: C_9  and  C_10
REMARK    4  A    between atoms: C_10  and  C_11
REMARK    5  A    between atoms: C_11  and  C_12
REMARK    6  A    between atoms: C_12  and  C_13
REMARK    7  A    between atoms: C_13  and  C_14
REMARK    8  A    between atoms: C_14  and  C_15
REMARK    9  A    between atoms: C_15  and  C_16
REMARK   10  A    between atoms: C_16  and  C_17
REMARK   11  A    between atoms: C_17  and  C_18
REMARK   12  A    between atoms: C_18  and  C_19
REMARK   13  A    between atoms: C_19  and  C_20
REMARK   14  A    between atoms: C_20  and  C_21
REMARK   15  A    between atoms: C_21  and  C_22
REMARK                            x       y       z     vdW  Elec       q    Type
REMARK                         _______ _______ _______ _____ _____    ______ ____
ROOT
ATOM      1  C   LIG A   1      -5.395  -0.585 127.709  0.00  0.00    -0.000 C 
ENDROOT
BRANCH   1   2
ATOM      2  C   LIG A   1      -5.303   0.329 126.474  0.00  0.00    -0.000 C 
BRANCH   2   3
ATOM      3  C   LIG A   1      -5.657   1.791 126.617  0.00  0.00    -0.000 C 
BRANCH   3   4
ATOM      4  C   LIG A   1      -6.352   2.524 125.451  0.00  0.00    +0.000 C 
BRANCH   4   5
ATOM      5  C   LIG A   1      -6.650   4.011 125.654  0.00  0.00    +0.000 C 
BRANCH   5   6
ATOM      6  C   LIG A   1      -6.021   4.905 124.587  0.00  0.00    +0.005 C 
BRANCH   6   7
ATOM      7  C   LIG A   1      -5.045   4.205 123.642  0.00  0.00    +0.046 C 
BRANCH   7   9
ATOM      8  C   LIG A   1      -5.005   5.124 121.189  0.00  0.00    +0.169 C 
ATOM      9  C   LIG A   1      -5.428   4.357 122.199  0.00  0.00    +0.082 C 
ATOM     10  C   LIG A   1      -6.372   3.490 121.522  0.00  0.00    +0.344 C 
ATOM     11  O   LIG A   1      -6.480   3.688 120.195  0.00  0.00    -0.419 OA
ATOM     12  C   LIG A   1      -5.685   4.803 119.990  0.00  0.00    +0.167 C 
ATOM     13  C   LIG A   1      -5.688   5.487 118.844  0.00  0.00    +0.062 C 
ATOM     14  O   LIG A   1      -7.050   2.589 122.142  0.00  0.00    -0.245 OA
BRANCH   8  15
ATOM     15  O   LIG A   1      -4.045   6.090 121.170  0.00  0.00    -0.503 OA
ATOM     16  H   LIG A   1      -4.388   6.860 120.689  0.00  0.00    +0.292 HD
ENDBRANCH   8  15
ENDBRANCH   7   9
ENDBRANCH   6   7
ENDBRANCH   5   6
ENDBRANCH   4   5
ENDBRANCH   3   4
ENDBRANCH   2   3
ENDBRANCH   1   2
BRANCH   1  17
ATOM     17  C   LIG A   1      -5.996  -0.014 129.028  0.00  0.00    -0.000 C 
BRANCH  17  18
ATOM     18  C   LIG A   1      -7.439  -0.428 129.303  0.00  0.00    -0.000 C 
BRANCH  18  19
ATOM     19  C   LIG A   1      -7.761  -1.284 130.537  0.00  0.00    +0.000 C 
BRANCH  19  20
ATOM     20  C   LIG A   1      -7.774  -2.822 130.291  0.00  0.00    +0.000 C 
BRANCH  20  21
ATOM     21  C   LIG A   1      -7.436  -3.347 128.882  0.00  0.00    +0.005 C 
BRANCH  21  22
ATOM     22  C   LIG A   1      -8.574  -3.519 127.879  0.00  0.00    +0.035 C 
BRANCH  22  23
ATOM     23  C   LIG A   1      -8.546  -2.858 126.515  0.00  0.00    -0.044 A 
ATOM     24  C   LIG A   1      -8.559  -3.736 125.427  0.00  0.00    +0.007 A 
ATOM     25  C   LIG A   1      -8.788  -3.317 124.121  0.00  0.00    +0.050 A 
ATOM     26  C   LIG A   1      -8.902  -1.993 123.876  0.00  0.00    +0.166 A 
ATOM     27  C   LIG A   1      -8.904  -1.094 124.904  0.00  0.00    +0.167 A 
ATOM     28  O   LIG A   1      -9.179   0.156 124.425  0.00  0.00    -0.453 OA
ATOM     29  C   LIG A   1      -9.200  -0.085 122.991  0.00  0.00    +0.466 C 
ATOM     30  O   LIG A   1      -9.100  -1.471 122.645  0.00  0.00    -0.453 OA
ATOM     31  C   LIG A   1      -8.742  -1.494 126.236  0.00  0.00    +0.053 A 
ENDBRANCH  22  23
ENDBRANCH  21  22
ENDBRANCH  20  21
ENDBRANCH  19  20
ENDBRANCH  18  19
ENDBRANCH  17  18
ENDBRANCH   1  17
TORSDOF 15
ENDMDL
MODEL 4
REMARK VINA RESULT:      -6.4      5.401      7.980
REMARK  Name = NuBBE_324
REMARK  15 active torsions:
REMARK  status: ('A' for Active; 'I' for Inactive)
REMARK    1  A    between atoms: O_1  and  C_2
REMARK    2  A    between atoms: C_3  and  C_9
REMARK    3  A    between atoms: C_9  and  C_10
REMARK    4  A    between atoms: C_10  and  C_11
REMARK    5  A    between atoms: C_11  and  C_12
REMARK    6  A    between atoms: C_12  and  C_13
REMARK    7  A    between atoms: C_13  and  C_14
REMARK    8  A    between atoms: C_14  and  C_15
REMARK    9  A    between atoms: C_15  and  C_16
REMARK   10  A    between atoms: C_16  and  C_17
REMARK   11  A    between atoms: C_17  and  C_18
REMARK   12  A    between atoms: C_18  and  C_19
REMARK   13  A    between atoms: C_19  and  C_20
REMARK   14  A    between atoms: C_20  and  C_21
REMARK   15  A    between atoms: C_21  and  C_22
REMARK                            x       y       z     vdW  Elec       q    Type
REMARK                         _______ _______ _______ _____ _____    ______ ____
ROOT
ATOM      1  C   LIG A   1      -8.879   0.531 131.328  0.00  0.00    -0.000 C 
ENDROOT
BRANCH   1   2
ATOM      2  C   LIG A   1      -9.876   1.487 132.007  0.00  0.00    -0.000 C 
BRANCH   2   3
ATOM      3  C   LIG A   1      -9.343   2.658 132.801  0.00  0.00    -0.000 C 
BRANCH   3   4
ATOM      4  C   LIG A   1      -9.188   4.033 132.119  0.00  0.00    +0.000 C 
BRANCH   4   5
ATOM      5  C   LIG A   1      -9.627   4.129 130.657  0.00  0.00    +0.000 C 
BRANCH   5   6
ATOM      6  C   LIG A   1      -9.125   5.389 129.956  0.00  0.00    +0.005 C 
BRANCH   6   7
ATOM      7  C   LIG A   1      -9.444   6.703 130.668  0.00  0.00    +0.046 C 
BRANCH   7   9
ATOM      8  C   LIG A   1     -11.132   8.053 129.187  0.00  0.00    +0.169 C 
ATOM      9  C   LIG A   1     -10.748   7.300 130.222  0.00  0.00    +0.082 C 
ATOM     10  C   LIG A   1     -12.020   7.020 130.859  0.00  0.00    +0.344 C 
ATOM     11  O   LIG A   1     -13.096   7.530 130.233  0.00  0.00    -0.419 OA
ATOM     12  C   LIG A   1     -12.529   8.281 129.218  0.00  0.00    +0.167 C 
ATOM     13  C   LIG A   1     -13.231   9.149 128.488  0.00  0.00    +0.062 C 
ATOM     14  O   LIG A   1     -12.114   6.327 131.939  0.00  0.00    -0.245 OA
BRANCH   8  15
ATOM     15  O   LIG A   1     -10.398   8.568 128.163  0.00  0.00    -0.503 OA
ATOM     16  H   LIG A   1     -10.615   9.510 128.066  0.00  0.00    +0.292 HD
ENDBRANCH   8  15
ENDBRANCH   7   9
ENDBRANCH   6   7
ENDBRANCH   5   6
ENDBRANCH   4   5
ENDBRANCH   3   4
ENDBRANCH   2   3
ENDBRANCH   1   2
BRANCH   1  17
ATOM     17  C   LIG A   1      -8.106  -0.502 132.204  0.00  0.00    -0.000 C 
BRANCH  17  18
ATOM     18  C   LIG A   1      -7.566  -1.707 131.439  0.00  0.00    -0.000 C 
BRANCH  18  19
ATOM     19  C   LIG A   1      -7.974  -1.921 129.973  0.00  0.00    +0.000 C 
BRANCH  19  20
ATOM     20  C   LIG A   1      -7.481  -3.254 129.336  0.00  0.00    +0.000 C 
BRANCH  20  21
ATOM     21  C   LIG A   1      -8.512  -4.170 128.649  0.00  0.00    +0.005 C 
BRANCH  21  22
ATOM     22  C   LIG A   1      -9.240  -3.645 127.414  0.00  0.00    +0.035 C 
BRANCH  22  23
ATOM     23  C   LIG A   1      -8.509  -2.923 126.300  0.00  0.00    -0.044 A 
ATOM     24  C   LIG A   1      -8.221  -3.701 125.174  0.00  0.00    +0.007 A 
ATOM     25  C   LIG A   1      -7.787  -3.157 123.971  0.00  0.00    +0.050 A 
ATOM     26  C   LIG A   1      -7.536  -1.830 123.913  0.00  0.00    +0.166 A 
ATOM     27  C   LIG A   1      -7.809  -1.024 124.981  0.00  0.00    +0.167 A 
ATOM     28  O   LIG A   1      -7.614   0.284 124.636  0.00  0.00    -0.453 OA
ATOM     29  C   LIG A   1      -7.064   0.146 123.296  0.00  0.00    +0.466 C 
ATOM     30  O   LIG A   1      -7.088  -1.198 122.805  0.00  0.00    -0.453 OA
ATOM     31  C   LIG A   1      -8.309  -1.536 126.185  0.00  0.00    +0.053 A 
ENDBRANCH  22  23
ENDBRANCH  21  22
ENDBRANCH  20  21
ENDBRANCH  19  20
ENDBRANCH  18  19
ENDBRANCH  17  18
ENDBRANCH   1  17
TORSDOF 15
ENDMDL
MODEL 5
REMARK VINA RESULT:      -6.4      4.949      7.756
REMARK  Name = NuBBE_324
REMARK  15 active torsions:
REMARK  status: ('A' for Active; 'I' for Inactive)
REMARK    1  A    between atoms: O_1  and  C_2
REMARK    2  A    between atoms: C_3  and  C_9
REMARK    3  A    between atoms: C_9  and  C_10
REMARK    4  A    between atoms: C_10  and  C_11
REMARK    5  A    between atoms: C_11  and  C_12
REMARK    6  A    between atoms: C_12  and  C_13
REMARK    7  A    between atoms: C_13  and  C_14
REMARK    8  A    between atoms: C_14  and  C_15
REMARK    9  A    between atoms: C_15  and  C_16
REMARK   10  A    between atoms: C_16  and  C_17
REMARK   11  A    between atoms: C_17  and  C_18
REMARK   12  A    between atoms: C_18  and  C_19
REMARK   13  A    between atoms: C_19  and  C_20
REMARK   14  A    between atoms: C_20  and  C_21
REMARK   15  A    between atoms: C_21  and  C_22
REMARK                            x       y       z     vdW  Elec       q    Type
REMARK                         _______ _______ _______ _____ _____    ______ ____
ROOT
ATOM      1  C   LIG A   1      -6.971   0.208 130.770  0.00  0.00    -0.000 C 
ENDROOT
BRANCH   1   2
ATOM      2  C   LIG A   1      -8.503   0.321 130.865  0.00  0.00    -0.000 C 
BRANCH   2   3
ATOM      3  C   LIG A   1      -9.111   1.068 132.030  0.00  0.00    -0.000 C 
BRANCH   3   4
ATOM      4  C   LIG A   1      -8.205   1.906 132.955  0.00  0.00    +0.000 C 
BRANCH   4   5
ATOM      5  C   LIG A   1      -8.747   3.265 133.400  0.00  0.00    +0.000 C 
BRANCH   5   6
ATOM      6  C   LIG A   1      -9.255   4.122 132.243  0.00  0.00    +0.005 C 
BRANCH   6   7
ATOM      7  C   LIG A   1      -9.543   5.582 132.590  0.00  0.00    +0.046 C 
BRANCH   7   9
ATOM      8  C   LIG A   1     -11.244   6.781 130.997  0.00  0.00    +0.169 C 
ATOM      9  C   LIG A   1     -10.042   6.368 131.412  0.00  0.00    +0.082 C 
ATOM     10  C   LIG A   1      -9.171   7.014 130.449  0.00  0.00    +0.344 C 
ATOM     11  O   LIG A   1      -9.795   7.793 129.546  0.00  0.00    -0.419 OA
ATOM     12  C   LIG A   1     -11.133   7.567 129.825  0.00  0.00    +0.167 C 
ATOM     13  C   LIG A   1     -12.113   7.966 129.012  0.00  0.00    +0.062 C 
ATOM     14  O   LIG A   1      -7.893   6.862 130.463  0.00  0.00    -0.245 OA
BRANCH   8  15
ATOM     15  O   LIG A   1     -12.473   6.574 131.543  0.00  0.00    -0.503 OA
ATOM     16  H   LIG A   1     -12.389   6.571 132.510  0.00  0.00    +0.292 HD
ENDBRANCH   8  15
ENDBRANCH   7   9
ENDBRANCH   6   7
ENDBRANCH   5   6
ENDBRANCH   4   5
ENDBRANCH   3   4
ENDBRANCH   2   3
ENDBRANCH   1   2
BRANCH   1  17
ATOM     17  C   LIG A   1      -6.312   0.029 129.370  0.00  0.00    -0.000 C 
BRANCH  17  18
ATOM     18  C   LIG A   1      -5.959  -1.413 129.011  0.00  0.00    -0.000 C 
BRANCH  18  19
ATOM     19  C   LIG A   1      -6.117  -2.517 130.066  0.00  0.00    +0.000 C 
BRANCH  19  20
ATOM     20  C   LIG A   1      -7.169  -3.614 129.725  0.00  0.00    +0.000 C 
BRANCH  20  21
ATOM     21  C   LIG A   1      -8.458  -3.197 128.991  0.00  0.00    +0.005 C 
BRANCH  21  22
ATOM     22  C   LIG A   1      -8.752  -3.822 127.629  0.00  0.00    +0.035 C 
BRANCH  22  23
ATOM     23  C   LIG A   1      -8.679  -3.018 126.346  0.00  0.00    -0.044 A 
ATOM     24  C   LIG A   1      -8.730  -3.770 125.168  0.00  0.00    +0.007 A 
ATOM     25  C   LIG A   1      -8.926  -3.199 123.916  0.00  0.00    +0.050 A 
ATOM     26  C   LIG A   1      -8.969  -1.852 123.817  0.00  0.00    +0.166 A 
ATOM     27  C   LIG A   1      -8.933  -1.072 124.938  0.00  0.00    +0.167 A 
ATOM     28  O   LIG A   1      -9.139   0.235 124.598  0.00  0.00    -0.453 OA
ATOM     29  C   LIG A   1      -9.161   0.153 123.147  0.00  0.00    +0.466 C 
ATOM     30  O   LIG A   1      -9.131  -1.189 122.651  0.00  0.00    -0.453 OA
ATOM     31  C   LIG A   1      -8.802  -1.624 126.218  0.00  0.00    +0.053 A 
ENDBRANCH  22  23
ENDBRANCH  21  22
ENDBRANCH  20  21
ENDBRANCH  19  20
ENDBRANCH  18  19
ENDBRANCH  17  18
ENDBRANCH   1  17
TORSDOF 15
ENDMDL
MODEL 6
REMARK VINA RESULT:      -6.3      1.998      3.010
REMARK  Name = NuBBE_324
REMARK  15 active torsions:
REMARK  status: ('A' for Active; 'I' for Inactive)
REMARK    1  A    between atoms: O_1  and  C_2
REMARK    2  A    between atoms: C_3  and  C_9
REMARK    3  A    between atoms: C_9  and  C_10
REMARK    4  A    between atoms: C_10  and  C_11
REMARK    5  A    between atoms: C_11  and  C_12
REMARK    6  A    between atoms: C_12  and  C_13
REMARK    7  A    between atoms: C_13  and  C_14
REMARK    8  A    between atoms: C_14  and  C_15
REMARK    9  A    between atoms: C_15  and  C_16
REMARK   10  A    between atoms: C_16  and  C_17
REMARK   11  A    between atoms: C_17  and  C_18
REMARK   12  A    between atoms: C_18  and  C_19
REMARK   13  A    between atoms: C_19  and  C_20
REMARK   14  A    between atoms: C_20  and  C_21
REMARK   15  A    between atoms: C_21  and  C_22
REMARK                            x       y       z     vdW  Elec       q    Type
REMARK                         _______ _______ _______ _____ _____    ______ ____
ROOT
ATOM      1  C   LIG A   1      -6.749  -1.290 123.503  0.00  0.00    -0.000 C 
ENDROOT
BRANCH   1   2
ATOM      2  C   LIG A   1      -5.618  -1.858 124.379  0.00  0.00    -0.000 C 
BRANCH   2   3
ATOM      3  C   LIG A   1      -5.745  -1.776 125.883  0.00  0.00    -0.000 C 
BRANCH   3   4
ATOM      4  C   LIG A   1      -6.324  -0.502 126.531  0.00  0.00    +0.000 C 
BRANCH   4   5
ATOM      5  C   LIG A   1      -5.360   0.671 126.720  0.00  0.00    +0.000 C 
BRANCH   5   6
ATOM      6  C   LIG A   1      -5.639   1.841 125.778  0.00  0.00    +0.005 C 
BRANCH   6   7
ATOM      7  C   LIG A   1      -7.036   2.450 125.891  0.00  0.00    +0.046 C 
BRANCH   7   9
ATOM      8  C   LIG A   1      -8.978   1.350 124.518  0.00  0.00    +0.169 C 
ATOM      9  C   LIG A   1      -7.905   2.124 124.711  0.00  0.00    +0.082 C 
ATOM     10  C   LIG A   1      -7.792   2.780 123.423  0.00  0.00    +0.344 C 
ATOM     11  O   LIG A   1      -8.748   2.459 122.532  0.00  0.00    -0.419 OA
ATOM     12  C   LIG A   1      -9.453   1.465 123.189  0.00  0.00    +0.167 C 
ATOM     13  C   LIG A   1     -10.355   0.698 122.574  0.00  0.00    +0.062 C 
ATOM     14  O   LIG A   1      -6.850   3.615 123.153  0.00  0.00    -0.245 OA
BRANCH   8  15
ATOM     15  O   LIG A   1      -9.639   0.543 125.392  0.00  0.00    -0.503 OA
ATOM     16  H   LIG A   1      -9.029   0.285 126.102  0.00  0.00    +0.292 HD
ENDBRANCH   8  15
ENDBRANCH   7   9
ENDBRANCH   6   7
ENDBRANCH   5   6
ENDBRANCH   4   5
ENDBRANCH   3   4
ENDBRANCH   2   3
ENDBRANCH   1   2
BRANCH   1  17
ATOM     17  C   LIG A   1      -7.817  -2.264 122.923  0.00  0.00    -0.000 C 
BRANCH  17  18
ATOM     18  C   LIG A   1      -8.944  -2.623 123.888  0.00  0.00    -0.000 C 
BRANCH  18  19
ATOM     19  C   LIG A   1      -8.687  -3.637 125.012  0.00  0.00    +0.000 C 
BRANCH  19  20
ATOM     20  C   LIG A   1      -9.336  -3.285 126.384  0.00  0.00    +0.000 C 
BRANCH  20  21
ATOM     21  C   LIG A   1      -8.606  -3.704 127.675  0.00  0.00    +0.005 C 
BRANCH  21  22
ATOM     22  C   LIG A   1      -8.304  -2.631 128.718  0.00  0.00    +0.035 C 
BRANCH  22  23
ATOM     23  C   LIG A   1      -7.090  -2.713 129.622  0.00  0.00    -0.044 A 
ATOM     24  C   LIG A   1      -6.575  -3.999 129.813  0.00  0.00    +0.007 A 
ATOM     25  C   LIG A   1      -5.336  -4.237 130.397  0.00  0.00    +0.050 A 
ATOM     26  C   LIG A   1      -4.642  -3.189 130.894  0.00  0.00    +0.166 A 
ATOM     27  C   LIG A   1      -5.096  -1.912 130.726  0.00  0.00    +0.167 A 
ATOM     28  O   LIG A   1      -4.161  -1.025 131.178  0.00  0.00    -0.453 OA
ATOM     29  C   LIG A   1      -3.171  -1.921 131.755  0.00  0.00    +0.466 C 
ATOM     30  O   LIG A   1      -3.441  -3.304 131.504  0.00  0.00    -0.453 OA
ATOM     31  C   LIG A   1      -6.310  -1.638 130.083  0.00  0.00    +0.053 A 
ENDBRANCH  22  23
ENDBRANCH  21  22
ENDBRANCH  20  21
ENDBRANCH  19  20
ENDBRANCH  18  19
ENDBRANCH  17  18
ENDBRANCH   1  17
TORSDOF 15
ENDMDL
MODEL 7
REMARK VINA RESULT:      -6.3      2.002      9.202
REMARK  Name = NuBBE_324
REMARK  15 active torsions:
REMARK  status: ('A' for Active; 'I' for Inactive)
REMARK    1  A    between atoms: O_1  and  C_2
REMARK    2  A    between atoms: C_3  and  C_9
REMARK    3  A    between atoms: C_9  and  C_10
REMARK    4  A    between atoms: C_10  and  C_11
REMARK    5  A    between atoms: C_11  and  C_12
REMARK    6  A    between atoms: C_12  and  C_13
REMARK    7  A    between atoms: C_13  and  C_14
REMARK    8  A    between atoms: C_14  and  C_15
REMARK    9  A    between atoms: C_15  and  C_16
REMARK   10  A    between atoms: C_16  and  C_17
REMARK   11  A    between atoms: C_17  and  C_18
REMARK   12  A    between atoms: C_18  and  C_19
REMARK   13  A    between atoms: C_19  and  C_20
REMARK   14  A    between atoms: C_20  and  C_21
REMARK   15  A    between atoms: C_21  and  C_22
REMARK                            x       y       z     vdW  Elec       q    Type
REMARK                         _______ _______ _______ _____ _____    ______ ____
ROOT
ATOM      1  C   LIG A   1      -6.847  -0.470 123.279  0.00  0.00    -0.000 C 
ENDROOT
BRANCH   1   2
ATOM      2  C   LIG A   1      -7.658  -1.720 122.894  0.00  0.00    -0.000 C 
BRANCH   2   3
ATOM      3  C   LIG A   1      -7.576  -2.945 123.775  0.00  0.00    -0.000 C 
BRANCH   3   4
ATOM      4  C   LIG A   1      -8.840  -3.443 124.507  0.00  0.00    +0.000 C 
BRANCH   4   5
ATOM      5  C   LIG A   1      -9.290  -2.637 125.726  0.00  0.00    +0.000 C 
BRANCH   5   6
ATOM      6  C   LIG A   1      -8.647  -3.103 127.030  0.00  0.00    +0.005 C 
BRANCH   6   7
ATOM      7  C   LIG A   1      -7.909  -2.020 127.816  0.00  0.00    +0.046 C 
BRANCH   7   9
ATOM      8  C   LIG A   1      -5.390  -2.511 128.345  0.00  0.00    +0.169 C 
ATOM      9  C   LIG A   1      -6.711  -2.552 128.548  0.00  0.00    +0.082 C 
ATOM     10  C   LIG A   1      -6.780  -3.186 129.850  0.00  0.00    +0.344 C 
ATOM     11  O   LIG A   1      -5.591  -3.469 130.412  0.00  0.00    -0.419 OA
ATOM     12  C   LIG A   1      -4.695  -3.135 129.410  0.00  0.00    +0.167 C 
ATOM     13  C   LIG A   1      -3.406  -3.474 129.456  0.00  0.00    +0.062 C 
ATOM     14  O   LIG A   1      -7.897  -3.451 130.431  0.00  0.00    -0.245 OA
BRANCH   8  15
ATOM     15  O   LIG A   1      -4.681  -1.957 127.324  0.00  0.00    -0.503 OA
ATOM     16  H   LIG A   1      -4.149  -2.650 126.901  0.00  0.00    +0.292 HD
ENDBRANCH   8  15
ENDBRANCH   7   9
ENDBRANCH   6   7
ENDBRANCH   5   6
ENDBRANCH   4   5
ENDBRANCH   3   4
ENDBRANCH   2   3
ENDBRANCH   1   2
BRANCH   1  17
ATOM     17  C   LIG A   1      -6.079  -0.455 124.634  0.00  0.00    -0.000 C 
BRANCH  17  18
ATOM     18  C   LIG A   1      -6.594   0.564 125.648  0.00  0.00    -0.000 C 
BRANCH  18  19
ATOM     19  C   LIG A   1      -5.596   1.316 126.541  0.00  0.00    +0.000 C 
BRANCH  19  20
ATOM     20  C   LIG A   1      -5.889   2.835 126.729  0.00  0.00    +0.000 C 
BRANCH  20  21
ATOM     21  C   LIG A   1      -6.309   3.663 125.499  0.00  0.00    +0.005 C 
BRANCH  21  22
ATOM     22  C   LIG A   1      -5.282   3.891 124.392  0.00  0.00    +0.035 C 
BRANCH  22  23
ATOM     23  C   LIG A   1      -5.670   3.897 122.927  0.00  0.00    -0.044 A 
ATOM     24  C   LIG A   1      -6.918   3.336 122.639  0.00  0.00    +0.007 A 
ATOM     25  C   LIG A   1      -7.543   3.478 121.405  0.00  0.00    +0.050 A 
ATOM     26  C   LIG A   1      -6.875   4.097 120.408  0.00  0.00    +0.166 A 
ATOM     27  C   LIG A   1      -5.657   4.671 120.639  0.00  0.00    +0.167 A 
ATOM     28  O   LIG A   1      -5.250   5.358 119.530  0.00  0.00    -0.453 OA
ATOM     29  C   LIG A   1      -6.296   5.011 118.580  0.00  0.00    +0.466 C 
ATOM     30  O   LIG A   1      -7.373   4.270 119.163  0.00  0.00    -0.453 OA
ATOM     31  C   LIG A   1      -5.032   4.600 121.891  0.00  0.00    +0.053 A 
ENDBRANCH  22  23
ENDBRANCH  21  22
ENDBRANCH  20  21
ENDBRANCH  19  20
ENDBRANCH  18  19
ENDBRANCH  17  18
ENDBRANCH   1  17
TORSDOF 15
ENDMDL
MODEL 8
REMARK VINA RESULT:      -6.3      4.456      7.152
REMARK  Name = NuBBE_324
REMARK  15 active torsions:
REMARK  status: ('A' for Active; 'I' for Inactive)
REMARK    1  A    between atoms: O_1  and  C_2
REMARK    2  A    between atoms: C_3  and  C_9
REMARK    3  A    between atoms: C_9  and  C_10
REMARK    4  A    between atoms: C_10  and  C_11
REMARK    5  A    between atoms: C_11  and  C_12
REMARK    6  A    between atoms: C_12  and  C_13
REMARK    7  A    between atoms: C_13  and  C_14
REMARK    8  A    between atoms: C_14  and  C_15
REMARK    9  A    between atoms: C_15  and  C_16
REMARK   10  A    between atoms: C_16  and  C_17
REMARK   11  A    between atoms: C_17  and  C_18
REMARK   12  A    between atoms: C_18  and  C_19
REMARK   13  A    between atoms: C_19  and  C_20
REMARK   14  A    between atoms: C_20  and  C_21
REMARK   15  A    between atoms: C_21  and  C_22
REMARK                            x       y       z     vdW  Elec       q    Type
REMARK                         _______ _______ _______ _____ _____    ______ ____
ROOT
ATOM      1  C   LIG A   1      -7.796  -1.552 128.833  0.00  0.00    -0.000 C 
ENDROOT
BRANCH   1   2
ATOM      2  C   LIG A   1      -7.505  -0.315 129.701  0.00  0.00    -0.000 C 
BRANCH   2   3
ATOM      3  C   LIG A   1      -8.491   0.072 130.779  0.00  0.00    -0.000 C 
BRANCH   3   4
ATOM      4  C   LIG A   1      -8.587   1.544 131.232  0.00  0.00    +0.000 C 
BRANCH   4   5
ATOM      5  C   LIG A   1      -9.983   2.071 131.563  0.00  0.00    +0.000 C 
BRANCH   5   6
ATOM      6  C   LIG A   1     -10.389   3.279 130.720  0.00  0.00    +0.005 C 
BRANCH   6   7
ATOM      7  C   LIG A   1      -9.973   4.637 131.283  0.00  0.00    +0.046 C 
BRANCH   7   9
ATOM      8  C   LIG A   1     -10.123   6.247 129.222  0.00  0.00    +0.169 C 
ATOM      9  C   LIG A   1     -10.442   5.783 130.434  0.00  0.00    +0.082 C 
ATOM     10  C   LIG A   1     -11.567   6.630 130.776  0.00  0.00    +0.344 C 
ATOM     11  O   LIG A   1     -11.929   7.512 129.826  0.00  0.00    -0.419 OA
ATOM     12  C   LIG A   1     -10.944   7.345 128.867  0.00  0.00    +0.167 C 
ATOM     13  C   LIG A   1     -10.783   8.190 127.848  0.00  0.00    +0.062 C 
ATOM     14  O   LIG A   1     -12.182   6.540 131.903  0.00  0.00    -0.245 OA
BRANCH   8  15
ATOM     15  O   LIG A   1      -9.188   5.804 128.337  0.00  0.00    -0.503 OA
ATOM     16  H   LIG A   1      -8.396   6.361 128.414  0.00  0.00    +0.292 HD
ENDBRANCH   8  15
ENDBRANCH   7   9
ENDBRANCH   6   7
ENDBRANCH   5   6
ENDBRANCH   4   5
ENDBRANCH   3   4
ENDBRANCH   2   3
ENDBRANCH   1   2
BRANCH   1  17
ATOM     17  C   LIG A   1      -7.923  -1.379 127.289  0.00  0.00    -0.000 C 
BRANCH  17  18
ATOM     18  C   LIG A   1      -7.354  -2.535 126.470  0.00  0.00    -0.000 C 
BRANCH  18  19
ATOM     19  C   LIG A   1      -8.309  -3.547 125.821  0.00  0.00    +0.000 C 
BRANCH  19  20
ATOM     20  C   LIG A   1      -9.450  -2.923 124.962  0.00  0.00    +0.000 C 
BRANCH  20  21
ATOM     21  C   LIG A   1      -9.270  -2.854 123.433  0.00  0.00    +0.005 C 
BRANCH  21  22
ATOM     22  C   LIG A   1      -8.302  -1.820 122.863  0.00  0.00    +0.035 C 
BRANCH  22  23
ATOM     23  C   LIG A   1      -8.338  -0.367 123.292  0.00  0.00    -0.044 A 
ATOM     24  C   LIG A   1      -9.565   0.279 123.109  0.00  0.00    +0.007 A 
ATOM     25  C   LIG A   1      -9.857   1.518 123.667  0.00  0.00    +0.050 A 
ATOM     26  C   LIG A   1      -8.882   2.176 124.331  0.00  0.00    +0.166 A 
ATOM     27  C   LIG A   1      -7.669   1.586 124.547  0.00  0.00    +0.167 A 
ATOM     28  O   LIG A   1      -6.907   2.377 125.360  0.00  0.00    -0.453 OA
ATOM     29  C   LIG A   1      -7.751   3.555 125.485  0.00  0.00    +0.466 C 
ATOM     30  O   LIG A   1      -9.044   3.395 124.892  0.00  0.00    -0.453 OA
ATOM     31  C   LIG A   1      -7.369   0.310 124.052  0.00  0.00    +0.053 A 
ENDBRANCH  22  23
ENDBRANCH  21  22
ENDBRANCH  20  21
ENDBRANCH  19  20
ENDBRANCH  18  19
ENDBRANCH  17  18
ENDBRANCH   1  17
TORSDOF 15
ENDMDL
MODEL 9
REMARK VINA RESULT:      -6.3      5.059      7.696
REMARK  Name = NuBBE_324
REMARK  15 active torsions:
REMARK  status: ('A' for Active; 'I' for Inactive)
REMARK    1  A    between atoms: O_1  and  C_2
REMARK    2  A    between atoms: C_3  and  C_9
REMARK    3  A    between atoms: C_9  and  C_10
REMARK    4  A    between atoms: C_10  and  C_11
REMARK    5  A    between atoms: C_11  and  C_12
REMARK    6  A    between atoms: C_12  and  C_13
REMARK    7  A    between atoms: C_13  and  C_14
REMARK    8  A    between atoms: C_14  and  C_15
REMARK    9  A    between atoms: C_15  and  C_16
REMARK   10  A    between atoms: C_16  and  C_17
REMARK   11  A    between atoms: C_17  and  C_18
REMARK   12  A    between atoms: C_18  and  C_19
REMARK   13  A    between atoms: C_19  and  C_20
REMARK   14  A    between atoms: C_20  and  C_21
REMARK   15  A    between atoms: C_21  and  C_22
REMARK                            x       y       z     vdW  Elec       q    Type
REMARK                         _______ _______ _______ _____ _____    ______ ____
ROOT
ATOM      1  C   LIG A   1      -8.155   0.019 130.947  0.00  0.00    -0.000 C 
ENDROOT
BRANCH   1   2
ATOM      2  C   LIG A   1      -9.317   0.416 131.874  0.00  0.00    -0.000 C 
BRANCH   2   3
ATOM      3  C   LIG A   1      -9.758   1.862 131.918  0.00  0.00    -0.000 C 
BRANCH   3   4
ATOM      4  C   LIG A   1      -9.227   2.787 133.032  0.00  0.00    +0.000 C 
BRANCH   4   5
ATOM      5  C   LIG A   1      -7.709   2.936 133.136  0.00  0.00    +0.000 C 
BRANCH   5   6
ATOM      6  C   LIG A   1      -7.196   4.279 132.619  0.00  0.00    +0.005 C 
BRANCH   6   7
ATOM      7  C   LIG A   1      -8.016   5.497 133.043  0.00  0.00    +0.046 C 
BRANCH   7   9
ATOM      8  C   LIG A   1     -10.030   6.241 131.541  0.00  0.00    +0.169 C 
ATOM      9  C   LIG A   1      -8.745   6.130 131.894  0.00  0.00    +0.082 C 
ATOM     10  C   LIG A   1      -8.102   6.955 130.889  0.00  0.00    +0.344 C 
ATOM     11  O   LIG A   1      -8.938   7.554 130.021  0.00  0.00    -0.419 OA
ATOM     12  C   LIG A   1     -10.168   7.020 130.367  0.00  0.00    +0.167 C 
ATOM     13  C   LIG A   1     -11.254   7.166 129.606  0.00  0.00    +0.062 C 
ATOM     14  O   LIG A   1      -6.826   7.111 130.837  0.00  0.00    -0.245 OA
BRANCH   8  15
ATOM     15  O   LIG A   1     -11.146   5.753 132.149  0.00  0.00    -0.503 OA
ATOM     16  H   LIG A   1     -11.923   6.207 131.785  0.00  0.00    +0.292 HD
ENDBRANCH   8  15
ENDBRANCH   7   9
ENDBRANCH   6   7
ENDBRANCH   5   6
ENDBRANCH   4   5
ENDBRANCH   3   4
ENDBRANCH   2   3
ENDBRANCH   1   2
BRANCH   1  17
ATOM     17  C   LIG A   1      -8.056   0.674 129.536  0.00  0.00    -0.000 C 
BRANCH  17  18
ATOM     18  C   LIG A   1      -6.687   1.261 129.201  0.00  0.00    -0.000 C 
BRANCH  18  19
ATOM     19  C   LIG A   1      -5.644   1.437 130.314  0.00  0.00    +0.000 C 
BRANCH  19  20
ATOM     20  C   LIG A   1      -4.456   0.430 130.273  0.00  0.00    +0.000 C 
BRANCH  20  21
ATOM     21  C   LIG A   1      -4.734  -1.054 130.582  0.00  0.00    +0.005 C 
BRANCH  21  22
ATOM     22  C   LIG A   1      -4.594  -2.069 129.451  0.00  0.00    +0.035 C 
BRANCH  22  23
ATOM     23  C   LIG A   1      -5.764  -2.447 128.564  0.00  0.00    -0.044 A 
ATOM     24  C   LIG A   1      -6.854  -3.021 129.226  0.00  0.00    +0.007 A 
ATOM     25  C   LIG A   1      -8.095  -3.197 128.626  0.00  0.00    +0.050 A 
ATOM     26  C   LIG A   1      -8.230  -2.896 127.316  0.00  0.00    +0.166 A 
ATOM     27  C   LIG A   1      -7.199  -2.325 126.625  0.00  0.00    +0.167 A 
ATOM     28  O   LIG A   1      -7.618  -1.979 125.371  0.00  0.00    -0.453 OA
ATOM     29  C   LIG A   1      -8.962  -2.534 125.356  0.00  0.00    +0.466 C 
ATOM     30  O   LIG A   1      -9.380  -3.050 126.623  0.00  0.00    -0.453 OA
ATOM     31  C   LIG A   1      -5.957  -2.075 127.222  0.00  0.00    +0.053 A 
ENDBRANCH  22  23
ENDBRANCH  21  22
ENDBRANCH  20  21
ENDBRANCH  19  20
ENDBRANCH  18  19
ENDBRANCH  17  18
ENDBRANCH   1  17
TORSDOF 15
ENDMDL
