MODEL 1
REMARK VINA RESULT:      -6.0      0.000      0.000
REMARK  Name = NuBBE_2031
REMARK  6 active torsions:
REMARK  status: ('A' for Active; 'I' for Inactive)
REMARK    1  A    between atoms: C_1  and  C_2
REMARK    2  A    between atoms: C_4  and  O_5
REMARK    3  A    between atoms: O_5  and  C_6
REMARK    4  A    between atoms: C_7  and  C_8
REMARK    5  A    between atoms: C_8  and  C_9
REMARK    6  A    between atoms: C_8  and  C_10
REMARK                            x       y       z     vdW  Elec       q    Type
REMARK                         _______ _______ _______ _____ _____    ______ ____
ROOT
ATOM      1  C   LIG A   1      -9.773   5.730 132.502  0.00  0.00    +0.044 C 
ATOM      2  C   LIG A   1     -10.564   6.475 131.468  0.00  0.00    -0.047 A 
ATOM      3  C   LIG A   1      -9.967   6.861 130.260  0.00  0.00    +0.049 A 
ATOM      4  C   LIG A   1     -10.682   7.596 129.303  0.00  0.00    +0.124 A 
ATOM      5  C   LIG A   1     -12.020   7.967 129.557  0.00  0.00    -0.003 A 
ATOM      6  C   LIG A   1     -12.608   7.569 130.770  0.00  0.00    +0.008 A 
ATOM      7  C   LIG A   1     -11.885   6.844 131.719  0.00  0.00    +0.004 A 
ENDROOT
BRANCH   5   8
ATOM      8  C   LIG A   1     -12.821   8.750 128.520  0.00  0.00    +0.016 C 
ATOM      9  C   LIG A   1     -13.840   7.834 127.839  0.00  0.00    +0.012 C 
ATOM     10  C   LIG A   1     -13.519   9.998 129.078  0.00  0.00    +0.012 C 
ENDBRANCH   5   8
BRANCH   4  11
ATOM     11  O   LIG A   1     -10.165   7.997 128.097  0.00  0.00    -0.495 OA
ATOM     12  C   LIG A   1     -10.290   7.107 126.996  0.00  0.00    +0.277 C 
ENDBRANCH   4  11
TORSDOF 2
ENDMDL
MODEL 2
REMARK VINA RESULT:      -5.4      1.183      3.811
REMARK  Name = NuBBE_2031
REMARK  6 active torsions:
REMARK  status: ('A' for Active; 'I' for Inactive)
REMARK    1  A    between atoms: C_1  and  C_2
REMARK    2  A    between atoms: C_4  and  O_5
REMARK    3  A    between atoms: O_5  and  C_6
REMARK    4  A    between atoms: C_7  and  C_8
REMARK    5  A    between atoms: C_8  and  C_9
REMARK    6  A    between atoms: C_8  and  C_10
REMARK                            x       y       z     vdW  Elec       q    Type
REMARK                         _______ _______ _______ _____ _____    ______ ____
ROOT
ATOM      1  C   LIG A   1     -13.557  10.332 129.489  0.00  0.00    +0.044 C 
ATOM      2  C   LIG A   1     -12.704   9.115 129.688  0.00  0.00    -0.047 A 
ATOM      3  C   LIG A   1     -11.800   8.712 128.695  0.00  0.00    +0.049 A 
ATOM      4  C   LIG A   1     -11.028   7.551 128.850  0.00  0.00    +0.124 A 
ATOM      5  C   LIG A   1     -11.164   6.765 130.014  0.00  0.00    -0.003 A 
ATOM      6  C   LIG A   1     -12.069   7.184 131.005  0.00  0.00    +0.008 A 
ATOM      7  C   LIG A   1     -12.840   8.337 130.837  0.00  0.00    +0.004 A 
ENDROOT
BRANCH   5   8
ATOM      8  C   LIG A   1     -10.318   5.510 130.209  0.00  0.00    +0.016 C 
ATOM      9  C   LIG A   1      -9.384   5.685 131.409  0.00  0.00    +0.012 C 
ATOM     10  C   LIG A   1     -11.135   4.219 130.356  0.00  0.00    +0.012 C 
ENDBRANCH   5   8
BRANCH   4  11
ATOM     11  O   LIG A   1     -10.118   7.105 127.925  0.00  0.00    -0.495 OA
ATOM     12  C   LIG A   1     -10.487   7.160 126.554  0.00  0.00    +0.277 C 
ENDBRANCH   4  11
TORSDOF 2
ENDMDL
MODEL 3
REMARK VINA RESULT:      -5.3      8.781     10.541
REMARK  Name = NuBBE_2031
REMARK  6 active torsions:
REMARK  status: ('A' for Active; 'I' for Inactive)
REMARK    1  A    between atoms: C_1  and  C_2
REMARK    2  A    between atoms: C_4  and  O_5
REMARK    3  A    between atoms: O_5  and  C_6
REMARK    4  A    between atoms: C_7  and  C_8
REMARK    5  A    between atoms: C_8  and  C_9
REMARK    6  A    between atoms: C_8  and  C_10
REMARK                            x       y       z     vdW  Elec       q    Type
REMARK                         _______ _______ _______ _____ _____    ______ ____
ROOT
ATOM      1  C   LIG A   1      -7.243   4.472 118.703  0.00  0.00    +0.044 C 
ATOM      2  C   LIG A   1      -7.082   4.061 120.136  0.00  0.00    -0.047 A 
ATOM      3  C   LIG A   1      -8.190   3.637 120.882  0.00  0.00    +0.049 A 
ATOM      4  C   LIG A   1      -8.061   3.291 122.235  0.00  0.00    +0.124 A 
ATOM      5  C   LIG A   1      -6.802   3.379 122.867  0.00  0.00    -0.003 A 
ATOM      6  C   LIG A   1      -5.697   3.799 122.106  0.00  0.00    +0.008 A 
ATOM      7  C   LIG A   1      -5.839   4.149 120.761  0.00  0.00    +0.004 A 
ENDROOT
BRANCH   5   8
ATOM      8  C   LIG A   1      -6.638   2.988 124.333  0.00  0.00    +0.016 C 
ATOM      9  C   LIG A   1      -6.472   1.472 124.460  0.00  0.00    +0.012 C 
ATOM     10  C   LIG A   1      -5.489   3.710 125.050  0.00  0.00    +0.012 C 
ENDBRANCH   5   8
BRANCH   4  11
ATOM     11  O   LIG A   1      -9.100   2.859 123.020  0.00  0.00    -0.495 OA
ATOM     12  C   LIG A   1      -9.681   1.599 122.713  0.00  0.00    +0.277 C 
ENDBRANCH   4  11
TORSDOF 2
ENDMDL
MODEL 4
REMARK VINA RESULT:      -5.3     10.635     12.263
REMARK  Name = NuBBE_2031
REMARK  6 active torsions:
REMARK  status: ('A' for Active; 'I' for Inactive)
REMARK    1  A    between atoms: C_1  and  C_2
REMARK    2  A    between atoms: C_4  and  O_5
REMARK    3  A    between atoms: O_5  and  C_6
REMARK    4  A    between atoms: C_7  and  C_8
REMARK    5  A    between atoms: C_8  and  C_9
REMARK    6  A    between atoms: C_8  and  C_10
REMARK                            x       y       z     vdW  Elec       q    Type
REMARK                         _______ _______ _______ _____ _____    ______ ____
ROOT
ATOM      1  C   LIG A   1      -9.139  -3.711 128.190  0.00  0.00    +0.044 C 
ATOM      2  C   LIG A   1      -8.228  -3.351 127.054  0.00  0.00    -0.047 A 
ATOM      3  C   LIG A   1      -7.161  -2.464 127.253  0.00  0.00    +0.049 A 
ATOM      4  C   LIG A   1      -6.328  -2.086 126.190  0.00  0.00    +0.124 A 
ATOM      5  C   LIG A   1      -6.567  -2.592 124.895  0.00  0.00    -0.003 A 
ATOM      6  C   LIG A   1      -7.636  -3.486 124.710  0.00  0.00    +0.008 A 
ATOM      7  C   LIG A   1      -8.464  -3.850 125.774  0.00  0.00    +0.004 A 
ENDROOT
BRANCH   5   8
ATOM      8  C   LIG A   1      -5.659  -2.208 123.730  0.00  0.00    +0.016 C 
ATOM      9  C   LIG A   1      -4.666  -3.336 123.440  0.00  0.00    +0.012 C 
ATOM     10  C   LIG A   1      -6.412  -1.820 122.449  0.00  0.00    +0.012 C 
ENDBRANCH   5   8
BRANCH   4  11
ATOM     11  O   LIG A   1      -5.262  -1.232 126.316  0.00  0.00    -0.495 OA
ATOM     12  C   LIG A   1      -5.533   0.118 126.670  0.00  0.00    +0.277 C 
ENDBRANCH   4  11
TORSDOF 2
ENDMDL
MODEL 5
REMARK VINA RESULT:      -5.3     10.689     12.521
REMARK  Name = NuBBE_2031
REMARK  6 active torsions:
REMARK  status: ('A' for Active; 'I' for Inactive)
REMARK    1  A    between atoms: C_1  and  C_2
REMARK    2  A    between atoms: C_4  and  O_5
REMARK    3  A    between atoms: O_5  and  C_6
REMARK    4  A    between atoms: C_7  and  C_8
REMARK    5  A    between atoms: C_8  and  C_9
REMARK    6  A    between atoms: C_8  and  C_10
REMARK                            x       y       z     vdW  Elec       q    Type
REMARK                         _______ _______ _______ _____ _____    ______ ____
ROOT
ATOM      1  C   LIG A   1      -4.490  -4.696 123.684  0.00  0.00    +0.044 C 
ATOM      2  C   LIG A   1      -5.552  -3.638 123.712  0.00  0.00    -0.047 A 
ATOM      3  C   LIG A   1      -6.728  -3.832 124.450  0.00  0.00    +0.049 A 
ATOM      4  C   LIG A   1      -7.748  -2.869 124.450  0.00  0.00    +0.124 A 
ATOM      5  C   LIG A   1      -7.602  -1.689 123.689  0.00  0.00    -0.003 A 
ATOM      6  C   LIG A   1      -6.415  -1.505 122.958  0.00  0.00    +0.008 A 
ATOM      7  C   LIG A   1      -5.409  -2.473 122.959  0.00  0.00    +0.004 A 
ENDROOT
BRANCH   5   8
ATOM      8  C   LIG A   1      -8.692  -0.621 123.691  0.00  0.00    +0.016 C 
ATOM      9  C   LIG A   1      -8.064   0.774 123.719  0.00  0.00    +0.012 C 
ATOM     10  C   LIG A   1      -9.684  -0.734 122.526  0.00  0.00    +0.012 C 
ENDBRANCH   5   8
BRANCH   4  11
ATOM     11  O   LIG A   1      -8.918  -2.989 125.156  0.00  0.00    -0.495 OA
ATOM     12  C   LIG A   1      -8.830  -3.394 126.516  0.00  0.00    +0.277 C 
ENDBRANCH   4  11
TORSDOF 2
ENDMDL
MODEL 6
REMARK VINA RESULT:      -5.1     10.675     12.366
REMARK  Name = NuBBE_2031
REMARK  6 active torsions:
REMARK  status: ('A' for Active; 'I' for Inactive)
REMARK    1  A    between atoms: C_1  and  C_2
REMARK    2  A    between atoms: C_4  and  O_5
REMARK    3  A    between atoms: O_5  and  C_6
REMARK    4  A    between atoms: C_7  and  C_8
REMARK    5  A    between atoms: C_8  and  C_9
REMARK    6  A    between atoms: C_8  and  C_10
REMARK                            x       y       z     vdW  Elec       q    Type
REMARK                         _______ _______ _______ _____ _____    ______ ____
ROOT
ATOM      1  C   LIG A   1      -7.771  -1.222 128.710  0.00  0.00    +0.044 C 
ATOM      2  C   LIG A   1      -7.292  -1.683 127.366  0.00  0.00    -0.047 A 
ATOM      3  C   LIG A   1      -8.073  -2.555 126.594  0.00  0.00    +0.049 A 
ATOM      4  C   LIG A   1      -7.617  -3.029 125.355  0.00  0.00    +0.124 A 
ATOM      5  C   LIG A   1      -6.349  -2.636 124.875  0.00  0.00    -0.003 A 
ATOM      6  C   LIG A   1      -5.579  -1.757 125.656  0.00  0.00    +0.008 A 
ATOM      7  C   LIG A   1      -6.039  -1.297 126.892  0.00  0.00    +0.004 A 
ENDROOT
BRANCH   5   8
ATOM      8  C   LIG A   1      -5.845  -3.125 123.520  0.00  0.00    +0.016 C 
ATOM      9  C   LIG A   1      -6.028  -2.034 122.463  0.00  0.00    +0.012 C 
ATOM     10  C   LIG A   1      -4.390  -3.614 123.532  0.00  0.00    +0.012 C 
ENDBRANCH   5   8
BRANCH   4  11
ATOM     11  O   LIG A   1      -8.333  -3.873 124.545  0.00  0.00    -0.495 OA
ATOM     12  C   LIG A   1      -9.429  -3.326 123.824  0.00  0.00    +0.277 C 
ENDBRANCH   4  11
TORSDOF 2
ENDMDL
MODEL 7
REMARK VINA RESULT:      -5.1     10.531     11.375
REMARK  Name = NuBBE_2031
REMARK  6 active torsions:
REMARK  status: ('A' for Active; 'I' for Inactive)
REMARK    1  A    between atoms: C_1  and  C_2
REMARK    2  A    between atoms: C_4  and  O_5
REMARK    3  A    between atoms: O_5  and  C_6
REMARK    4  A    between atoms: C_7  and  C_8
REMARK    5  A    between atoms: C_8  and  C_9
REMARK    6  A    between atoms: C_8  and  C_10
REMARK                            x       y       z     vdW  Elec       q    Type
REMARK                         _______ _______ _______ _____ _____    ______ ____
ROOT
ATOM      1  C   LIG A   1      -7.941  -2.849 130.279  0.00  0.00    +0.044 C 
ATOM      2  C   LIG A   1      -7.977  -2.798 128.781  0.00  0.00    -0.047 A 
ATOM      3  C   LIG A   1      -7.344  -1.755 128.090  0.00  0.00    +0.049 A 
ATOM      4  C   LIG A   1      -7.406  -1.672 126.691  0.00  0.00    +0.124 A 
ATOM      5  C   LIG A   1      -8.125  -2.642 125.960  0.00  0.00    -0.003 A 
ATOM      6  C   LIG A   1      -8.750  -3.686 126.665  0.00  0.00    +0.008 A 
ATOM      7  C   LIG A   1      -8.688  -3.755 128.058  0.00  0.00    +0.004 A 
ENDROOT
BRANCH   5   8
ATOM      8  C   LIG A   1      -8.188  -2.580 124.437  0.00  0.00    +0.016 C 
ATOM      9  C   LIG A   1      -6.914  -3.174 123.831  0.00  0.00    +0.012 C 
ATOM     10  C   LIG A   1      -9.428  -3.252 123.832  0.00  0.00    +0.012 C 
ENDBRANCH   5   8
BRANCH   4  11
ATOM     11  O   LIG A   1      -6.802  -0.687 125.952  0.00  0.00    -0.495 OA
ATOM     12  C   LIG A   1      -5.390  -0.556 126.054  0.00  0.00    +0.277 C 
ENDBRANCH   4  11
TORSDOF 2
ENDMDL
MODEL 8
REMARK VINA RESULT:      -5.0     10.023     11.815
REMARK  Name = NuBBE_2031
REMARK  6 active torsions:
REMARK  status: ('A' for Active; 'I' for Inactive)
REMARK    1  A    between atoms: C_1  and  C_2
REMARK    2  A    between atoms: C_4  and  O_5
REMARK    3  A    between atoms: O_5  and  C_6
REMARK    4  A    between atoms: C_7  and  C_8
REMARK    5  A    between atoms: C_8  and  C_9
REMARK    6  A    between atoms: C_8  and  C_10
REMARK                            x       y       z     vdW  Elec       q    Type
REMARK                         _______ _______ _______ _____ _____    ______ ____
ROOT
ATOM      1  C   LIG A   1      -9.254  -3.136 123.395  0.00  0.00    +0.044 C 
ATOM      2  C   LIG A   1      -8.686  -2.930 124.767  0.00  0.00    -0.047 A 
ATOM      3  C   LIG A   1      -7.402  -2.392 124.931  0.00  0.00    +0.049 A 
ATOM      4  C   LIG A   1      -6.842  -2.234 126.207  0.00  0.00    +0.124 A 
ATOM      5  C   LIG A   1      -7.570  -2.631 127.349  0.00  0.00    -0.003 A 
ATOM      6  C   LIG A   1      -8.859  -3.164 127.171  0.00  0.00    +0.008 A 
ATOM      7  C   LIG A   1      -9.404  -3.324 125.896  0.00  0.00    +0.004 A 
ENDROOT
BRANCH   5   8
ATOM      8  C   LIG A   1      -6.986  -2.449 128.747  0.00  0.00    +0.016 C 
ATOM      9  C   LIG A   1      -7.603  -1.222 129.422  0.00  0.00    +0.012 C 
ATOM     10  C   LIG A   1      -7.127  -3.680 129.652  0.00  0.00    +0.012 C 
ENDBRANCH   5   8
BRANCH   4  11
ATOM     11  O   LIG A   1      -5.598  -1.705 126.440  0.00  0.00    -0.495 OA
ATOM     12  C   LIG A   1      -5.292  -0.449 125.849  0.00  0.00    +0.277 C 
ENDBRANCH   4  11
TORSDOF 2
ENDMDL
MODEL 9
REMARK VINA RESULT:      -4.9      7.596     10.169
REMARK  Name = NuBBE_2031
REMARK  6 active torsions:
REMARK  status: ('A' for Active; 'I' for Inactive)
REMARK    1  A    between atoms: C_1  and  C_2
REMARK    2  A    between atoms: C_4  and  O_5
REMARK    3  A    between atoms: O_5  and  C_6
REMARK    4  A    between atoms: C_7  and  C_8
REMARK    5  A    between atoms: C_8  and  C_9
REMARK    6  A    between atoms: C_8  and  C_10
REMARK                            x       y       z     vdW  Elec       q    Type
REMARK                         _______ _______ _______ _____ _____    ______ ____
ROOT
ATOM      1  C   LIG A   1      -5.584   5.078 119.451  0.00  0.00    +0.044 C 
ATOM      2  C   LIG A   1      -6.327   4.378 120.550  0.00  0.00    -0.047 A 
ATOM      3  C   LIG A   1      -5.688   4.082 121.763  0.00  0.00    +0.049 A 
ATOM      4  C   LIG A   1      -6.358   3.390 122.782  0.00  0.00    +0.124 A 
ATOM      5  C   LIG A   1      -7.692   2.971 122.589  0.00  0.00    -0.003 A 
ATOM      6  C   LIG A   1      -8.323   3.280 121.371  0.00  0.00    +0.008 A 
ATOM      7  C   LIG A   1      -7.644   3.962 120.360  0.00  0.00    +0.004 A 
ENDROOT
BRANCH   5   8
ATOM      8  C   LIG A   1      -8.444   2.234 123.694  0.00  0.00    +0.016 C 
ATOM      9  C   LIG A   1      -8.772   3.194 124.840  0.00  0.00    +0.012 C 
ATOM     10  C   LIG A   1      -9.716   1.519 123.219  0.00  0.00    +0.012 C 
ENDBRANCH   5   8
BRANCH   4  11
ATOM     11  O   LIG A   1      -5.798   3.077 123.995  0.00  0.00    -0.495 OA
ATOM     12  C   LIG A   1      -5.238   4.138 124.758  0.00  0.00    +0.277 C 
ENDBRANCH   4  11
TORSDOF 2
ENDMDL
