MODEL 1
REMARK VINA RESULT:      -6.2      0.000      0.000
REMARK  Name = NuBBE_851
REMARK  0 active torsions:
REMARK  status: ('A' for Active; 'I' for Inactive)
REMARK                            x       y       z     vdW  Elec       q    Type
REMARK                         _______ _______ _______ _____ _____    ______ ____
ROOT
ATOM      1  O   PRO A   1     -13.166   7.345 131.672  0.00  0.00    -0.274 OA
ATOM      2  C   PRO A   1     -12.274   7.271 130.829  0.00  0.00    +0.237 C 
ATOM      3  CA  PRO A   1     -12.420   7.795 129.392  0.00  0.00    +0.162 C 
ATOM      4  N   PRO A   1     -11.567   7.048 128.471  0.00  0.00    -0.288 N 
ATOM      5  CD  PRO A   1     -12.209   6.767 127.209  0.00  0.00    +0.109 C 
ATOM      6  CG  PRO A   1     -13.594   7.389 127.327  0.00  0.00    +0.021 C 
ATOM      7  CB  PRO A   1     -13.819   7.574 128.827  0.00  0.00    +0.033 C 
ATOM      8  N   PRO A   2     -11.011   6.790 131.104  0.00  0.00    -0.288 N 
ATOM      9  CA  PRO A   2      -9.869   7.001 130.216  0.00  0.00    +0.162 C 
ATOM     10  CB  PRO A   2      -8.830   6.016 130.742  0.00  0.00    +0.033 C 
ATOM     11  CG  PRO A   2      -9.152   5.886 132.230  0.00  0.00    +0.021 C 
ATOM     12  CD  PRO A   2     -10.654   6.114 132.329  0.00  0.00    +0.109 C 
ATOM     13  C   PRO A   2     -10.253   6.735 128.753  0.00  0.00    +0.237 C 
ATOM     14  O   PRO A   2      -9.451   6.359 127.900  0.00  0.00    -0.274 OA
ENDROOT
TORSDOF 0
ENDMDL
MODEL 2
REMARK VINA RESULT:      -6.2      8.253      9.900
REMARK  Name = NuBBE_851
REMARK  0 active torsions:
REMARK  status: ('A' for Active; 'I' for Inactive)
REMARK                            x       y       z     vdW  Elec       q    Type
REMARK                         _______ _______ _______ _____ _____    ______ ____
ROOT
ATOM      1  O   PRO A   1      -4.213   5.094 121.838  0.00  0.00    -0.274 OA
ATOM      2  C   PRO A   1      -5.228   4.407 121.921  0.00  0.00    +0.237 C 
ATOM      3  CA  PRO A   1      -5.987   3.864 120.700  0.00  0.00    +0.162 C 
ATOM      4  N   PRO A   1      -7.404   3.678 121.001  0.00  0.00    -0.288 N 
ATOM      5  CD  PRO A   1      -8.269   4.082 119.918  0.00  0.00    +0.109 C 
ATOM      6  CG  PRO A   1      -7.327   4.567 118.824  0.00  0.00    +0.021 C 
ATOM      7  CB  PRO A   1      -6.005   4.850 119.536  0.00  0.00    +0.033 C 
ATOM      8  N   PRO A   2      -5.751   3.970 123.120  0.00  0.00    -0.288 N 
ATOM      9  CA  PRO A   2      -6.745   2.902 123.213  0.00  0.00    +0.162 C 
ATOM     10  CB  PRO A   2      -7.260   3.025 124.643  0.00  0.00    +0.033 C 
ATOM     11  CG  PRO A   2      -6.077   3.600 125.422  0.00  0.00    +0.021 C 
ATOM     12  CD  PRO A   2      -5.314   4.445 124.411  0.00  0.00    +0.109 C 
ATOM     13  C   PRO A   2      -7.852   3.088 122.165  0.00  0.00    +0.237 C 
ATOM     14  O   PRO A   2      -9.002   2.678 122.314  0.00  0.00    -0.274 OA
ENDROOT
TORSDOF 0
ENDMDL
MODEL 3
REMARK VINA RESULT:      -6.1      0.080      4.764
REMARK  Name = NuBBE_851
REMARK  0 active torsions:
REMARK  status: ('A' for Active; 'I' for Inactive)
REMARK                            x       y       z     vdW  Elec       q    Type
REMARK                         _______ _______ _______ _____ _____    ______ ____
ROOT
ATOM      1  O   PRO A   1      -9.485   6.414 127.809  0.00  0.00    -0.274 OA
ATOM      2  C   PRO A   1     -10.271   6.782 128.679  0.00  0.00    +0.237 C 
ATOM      3  CA  PRO A   1      -9.861   7.032 130.139  0.00  0.00    +0.162 C 
ATOM      4  N   PRO A   1     -10.986   6.814 131.046  0.00  0.00    -0.288 N 
ATOM      5  CD  PRO A   1     -10.607   6.135 132.261  0.00  0.00    +0.109 C 
ATOM      6  CG  PRO A   1      -9.109   5.899 132.128  0.00  0.00    +0.021 C 
ATOM      7  CB  PRO A   1      -8.817   6.038 130.635  0.00  0.00    +0.033 C 
ATOM      8  N   PRO A   2     -11.589   7.097 128.425  0.00  0.00    -0.288 N 
ATOM      9  CA  PRO A   2     -12.426   7.836 129.368  0.00  0.00    +0.162 C 
ATOM     10  CB  PRO A   2     -13.836   7.627 128.825  0.00  0.00    +0.033 C 
ATOM     11  CG  PRO A   2     -13.637   7.450 127.320  0.00  0.00    +0.021 C 
ATOM     12  CD  PRO A   2     -12.257   6.820 127.177  0.00  0.00    +0.109 C 
ATOM     13  C   PRO A   2     -12.255   7.297 130.796  0.00  0.00    +0.237 C 
ATOM     14  O   PRO A   2     -13.132   7.363 131.655  0.00  0.00    -0.274 OA
ENDROOT
TORSDOF 0
ENDMDL
MODEL 4
REMARK VINA RESULT:      -6.1      8.120     10.077
REMARK  Name = NuBBE_851
REMARK  0 active torsions:
REMARK  status: ('A' for Active; 'I' for Inactive)
REMARK                            x       y       z     vdW  Elec       q    Type
REMARK                         _______ _______ _______ _____ _____    ______ ____
ROOT
ATOM      1  O   PRO A   1      -9.234   2.507 122.808  0.00  0.00    -0.274 OA
ATOM      2  C   PRO A   1      -8.110   2.918 122.532  0.00  0.00    +0.237 C 
ATOM      3  CA  PRO A   1      -6.899   2.765 123.466  0.00  0.00    +0.162 C 
ATOM      4  N   PRO A   1      -5.928   3.835 123.247  0.00  0.00    -0.288 N 
ATOM      5  CD  PRO A   1      -5.357   4.337 124.474  0.00  0.00    +0.109 C 
ATOM      6  CG  PRO A   1      -6.014   3.519 125.577  0.00  0.00    +0.021 C 
ATOM      7  CB  PRO A   1      -7.268   2.926 124.937  0.00  0.00    +0.033 C 
ATOM      8  N   PRO A   2      -7.788   3.483 121.316  0.00  0.00    -0.288 N 
ATOM      9  CA  PRO A   2      -6.410   3.669 120.866  0.00  0.00    +0.162 C 
ATOM     10  CB  PRO A   2      -6.553   4.622 119.683  0.00  0.00    +0.033 C 
ATOM     11  CG  PRO A   2      -7.941   4.319 119.122  0.00  0.00    +0.021 C 
ATOM     12  CD  PRO A   2      -8.761   3.865 120.322  0.00  0.00    +0.109 C 
ATOM     13  C   PRO A   2      -5.536   4.246 121.990  0.00  0.00    +0.237 C 
ATOM     14  O   PRO A   2      -4.539   4.936 121.786  0.00  0.00    -0.274 OA
ENDROOT
TORSDOF 0
ENDMDL
MODEL 5
REMARK VINA RESULT:      -6.0      1.439      3.045
REMARK  Name = NuBBE_851
REMARK  0 active torsions:
REMARK  status: ('A' for Active; 'I' for Inactive)
REMARK                            x       y       z     vdW  Elec       q    Type
REMARK                         _______ _______ _______ _____ _____    ______ ____
ROOT
ATOM      1  O   PRO A   1      -9.650   6.545 127.415  0.00  0.00    -0.274 OA
ATOM      2  C   PRO A   1     -10.327   6.446 128.435  0.00  0.00    +0.237 C 
ATOM      3  CA  PRO A   1     -11.738   7.039 128.577  0.00  0.00    +0.162 C 
ATOM      4  N   PRO A   1     -12.035   7.360 129.971  0.00  0.00    -0.288 N 
ATOM      5  CD  PRO A   1     -12.742   8.609 130.123  0.00  0.00    +0.109 C 
ATOM      6  CG  PRO A   1     -12.918   9.136 128.706  0.00  0.00    +0.021 C 
ATOM      7  CB  PRO A   1     -11.882   8.384 127.872  0.00  0.00    +0.033 C 
ATOM      8  N   PRO A   2      -9.934   5.715 129.537  0.00  0.00    -0.288 N 
ATOM      9  CA  PRO A   2     -10.855   5.326 130.603  0.00  0.00    +0.162 C 
ATOM     10  CB  PRO A   2      -9.924   4.873 131.723  0.00  0.00    +0.033 C 
ATOM     11  CG  PRO A   2      -8.684   4.356 130.996  0.00  0.00    +0.021 C 
ATOM     12  CD  PRO A   2      -8.607   5.177 129.715  0.00  0.00    +0.109 C 
ATOM     13  C   PRO A   2     -11.750   6.504 131.015  0.00  0.00    +0.237 C 
ATOM     14  O   PRO A   2     -12.231   6.629 132.140  0.00  0.00    -0.274 OA
ENDROOT
TORSDOF 0
ENDMDL
MODEL 6
REMARK VINA RESULT:      -6.0      1.380      3.818
REMARK  Name = NuBBE_851
REMARK  0 active torsions:
REMARK  status: ('A' for Active; 'I' for Inactive)
REMARK                            x       y       z     vdW  Elec       q    Type
REMARK                         _______ _______ _______ _____ _____    ______ ____
ROOT
ATOM      1  O   PRO A   1     -12.311   6.802 132.167  0.00  0.00    -0.274 OA
ATOM      2  C   PRO A   1     -11.809   6.628 131.059  0.00  0.00    +0.237 C 
ATOM      3  CA  PRO A   1     -10.895   5.439 130.721  0.00  0.00    +0.162 C 
ATOM      4  N   PRO A   1      -9.959   5.783 129.653  0.00  0.00    -0.288 N 
ATOM      5  CD  PRO A   1      -8.633   5.259 129.875  0.00  0.00    +0.109 C 
ATOM      6  CG  PRO A   1      -8.723   4.511 131.198  0.00  0.00    +0.021 C 
ATOM      7  CB  PRO A   1      -9.978   5.057 131.878  0.00  0.00    +0.033 C 
ATOM      8  N   PRO A   2     -12.082   7.428 129.969  0.00  0.00    -0.288 N 
ATOM      9  CA  PRO A   2     -11.758   7.041 128.597  0.00  0.00    +0.162 C 
ATOM     10  CB  PRO A   2     -11.906   8.345 127.821  0.00  0.00    +0.033 C 
ATOM     11  CG  PRO A   2     -12.959   9.131 128.602  0.00  0.00    +0.021 C 
ATOM     12  CD  PRO A   2     -12.794   8.680 130.048  0.00  0.00    +0.109 C 
ATOM     13  C   PRO A   2     -10.340   6.457 128.510  0.00  0.00    +0.237 C 
ATOM     14  O   PRO A   2      -9.645   6.513 127.497  0.00  0.00    -0.274 OA
ENDROOT
TORSDOF 0
ENDMDL
MODEL 7
REMARK VINA RESULT:      -5.9      9.135     10.572
REMARK  Name = NuBBE_851
REMARK  0 active torsions:
REMARK  status: ('A' for Active; 'I' for Inactive)
REMARK                            x       y       z     vdW  Elec       q    Type
REMARK                         _______ _______ _______ _____ _____    ______ ____
ROOT
ATOM      1  O   PRO A   1     -10.456  -0.504 122.486  0.00  0.00    -0.274 OA
ATOM      2  C   PRO A   1      -9.324  -0.489 122.964  0.00  0.00    +0.237 C 
ATOM      3  CA  PRO A   1      -8.474  -1.753 123.166  0.00  0.00    +0.162 C 
ATOM      4  N   PRO A   1      -7.536  -1.585 124.274  0.00  0.00    -0.288 N 
ATOM      5  CD  PRO A   1      -7.417  -2.765 125.095  0.00  0.00    +0.109 C 
ATOM      6  CG  PRO A   1      -8.355  -3.783 124.460  0.00  0.00    +0.021 C 
ATOM      7  CB  PRO A   1      -9.305  -2.958 123.593  0.00  0.00    +0.033 C 
ATOM      8  N   PRO A   2      -8.654   0.672 123.289  0.00  0.00    -0.288 N 
ATOM      9  CA  PRO A   2      -7.215   0.715 123.541  0.00  0.00    +0.162 C 
ATOM     10  CB  PRO A   2      -7.014   2.080 124.191  0.00  0.00    +0.033 C 
ATOM     11  CG  PRO A   2      -8.131   2.944 123.607  0.00  0.00    +0.021 C 
ATOM     12  CD  PRO A   2      -9.272   1.975 123.325  0.00  0.00    +0.109 C 
ATOM     13  C   PRO A   2      -6.780  -0.444 124.449  0.00  0.00    +0.237 C 
ATOM     14  O   PRO A   2      -5.805  -0.390 125.196  0.00  0.00    -0.274 OA
ENDROOT
TORSDOF 0
ENDMDL
MODEL 8
REMARK VINA RESULT:      -5.9      9.145     10.472
REMARK  Name = NuBBE_851
REMARK  0 active torsions:
REMARK  status: ('A' for Active; 'I' for Inactive)
REMARK                            x       y       z     vdW  Elec       q    Type
REMARK                         _______ _______ _______ _____ _____    ______ ____
ROOT
ATOM      1  O   PRO A   1      -5.782  -0.376 125.149  0.00  0.00    -0.274 OA
ATOM      2  C   PRO A   1      -6.761  -0.431 124.407  0.00  0.00    +0.237 C 
ATOM      3  CA  PRO A   1      -7.203   0.729 123.502  0.00  0.00    +0.162 C 
ATOM      4  N   PRO A   1      -8.643   0.686 123.258  0.00  0.00    -0.288 N 
ATOM      5  CD  PRO A   1      -9.260   1.990 123.288  0.00  0.00    +0.109 C 
ATOM      6  CG  PRO A   1      -8.119   2.958 123.572  0.00  0.00    +0.021 C 
ATOM      7  CB  PRO A   1      -7.002   2.093 124.155  0.00  0.00    +0.033 C 
ATOM      8  N   PRO A   2      -7.519  -1.570 124.237  0.00  0.00    -0.288 N 
ATOM      9  CA  PRO A   2      -8.462  -1.740 123.133  0.00  0.00    +0.162 C 
ATOM     10  CB  PRO A   2      -9.289  -2.948 123.561  0.00  0.00    +0.033 C 
ATOM     11  CG  PRO A   2      -8.336  -3.769 124.428  0.00  0.00    +0.021 C 
ATOM     12  CD  PRO A   2      -7.402  -2.747 125.063  0.00  0.00    +0.109 C 
ATOM     13  C   PRO A   2      -9.314  -0.477 122.938  0.00  0.00    +0.237 C 
ATOM     14  O   PRO A   2     -10.450  -0.492 122.467  0.00  0.00    -0.274 OA
ENDROOT
TORSDOF 0
ENDMDL
MODEL 9
REMARK VINA RESULT:      -5.7      1.408      1.563
REMARK  Name = NuBBE_851
REMARK  0 active torsions:
REMARK  status: ('A' for Active; 'I' for Inactive)
REMARK                            x       y       z     vdW  Elec       q    Type
REMARK                         _______ _______ _______ _____ _____    ______ ____
ROOT
ATOM      1  O   PRO A   1     -11.814   6.525 132.039  0.00  0.00    -0.274 OA
ATOM      2  C   PRO A   1     -11.210   6.587 130.970  0.00  0.00    +0.237 C 
ATOM      3  CA  PRO A   1     -11.380   7.738 129.967  0.00  0.00    +0.162 C 
ATOM      4  N   PRO A   1     -11.111   7.290 128.602  0.00  0.00    -0.288 N 
ATOM      5  CD  PRO A   1     -12.032   7.841 127.636  0.00  0.00    +0.109 C 
ATOM      6  CG  PRO A   1     -12.973   8.721 128.448  0.00  0.00    +0.021 C 
ATOM      7  CB  PRO A   1     -12.818   8.242 129.890  0.00  0.00    +0.033 C 
ATOM      8  N   PRO A   2     -10.244   5.678 130.592  0.00  0.00    -0.288 N 
ATOM      9  CA  PRO A   2      -9.306   5.923 129.498  0.00  0.00    +0.162 C 
ATOM     10  CB  PRO A   2      -8.708   4.545 129.234  0.00  0.00    +0.033 C 
ATOM     11  CG  PRO A   2      -8.776   3.839 130.588  0.00  0.00    +0.021 C 
ATOM     12  CD  PRO A   2      -9.992   4.437 131.283  0.00  0.00    +0.109 C 
ATOM     13  C   PRO A   2     -10.029   6.501 128.272  0.00  0.00    +0.237 C 
ATOM     14  O   PRO A   2      -9.635   6.345 127.118  0.00  0.00    -0.274 OA
ENDROOT
TORSDOF 0
ENDMDL
