MODEL 1
REMARK VINA RESULT:      -5.3      0.000      0.000
REMARK  Name = NuBBE_1738
REMARK  4 active torsions:
REMARK  status: ('A' for Active; 'I' for Inactive)
REMARK    1  A    between atoms: C_1  and  C_2
REMARK    2  A    between atoms: C_1  and  C_3
REMARK    3  A    between atoms: C_1  and  C_4
REMARK    4  A    between atoms: C_7  and  C_10
REMARK                            x       y       z     vdW  Elec       q    Type
REMARK                         _______ _______ _______ _____ _____    ______ ____
ROOT
ATOM      1  C   LIG A   1     -11.767   7.394 129.130  0.00  0.00    -0.016 C 
ATOM      2  C   LIG A   1     -10.694   6.612 129.882  0.00  0.00    +0.022 C 
ATOM      3  C   LIG A   1     -10.343   7.916 129.219  0.00  0.00    +0.016 C 
ATOM      4  C   LIG A   1     -11.133   6.611 131.291  0.00  0.00    -0.073 C 
ATOM      5  C   LIG A   1     -12.282   7.281 131.492  0.00  0.00    -0.027 C 
ATOM      6  C   LIG A   1     -12.785   7.847 130.187  0.00  0.00    +0.035 C 
ATOM      7  C   LIG A   1     -10.326   5.923 132.336  0.00  0.00    +0.039 C 
ENDROOT
BRANCH   1   8
ATOM      8  C   LIG A   1     -12.348   6.950 127.794  0.00  0.00    -0.010 C 
ATOM      9  C   LIG A   1     -13.812   7.391 127.692  0.00  0.00    +0.008 C 
ATOM     10  C   LIG A   1     -11.581   7.423 126.559  0.00  0.00    +0.008 C 
ENDBRANCH   1   8
TORSDOF 1
ENDMDL
MODEL 2
REMARK VINA RESULT:      -5.2      1.301      2.281
REMARK  Name = NuBBE_1738
REMARK  4 active torsions:
REMARK  status: ('A' for Active; 'I' for Inactive)
REMARK    1  A    between atoms: C_1  and  C_2
REMARK    2  A    between atoms: C_1  and  C_3
REMARK    3  A    between atoms: C_1  and  C_4
REMARK    4  A    between atoms: C_7  and  C_10
REMARK                            x       y       z     vdW  Elec       q    Type
REMARK                         _______ _______ _______ _____ _____    ______ ____
ROOT
ATOM      1  C   LIG A   1     -11.631   6.721 129.841  0.00  0.00    -0.016 C 
ATOM      2  C   LIG A   1     -11.277   6.148 131.210  0.00  0.00    +0.022 C 
ATOM      3  C   LIG A   1     -11.673   5.223 130.091  0.00  0.00    +0.016 C 
ATOM      4  C   LIG A   1      -9.851   6.476 131.407  0.00  0.00    -0.073 C 
ATOM      5  C   LIG A   1      -9.306   7.133 130.368  0.00  0.00    -0.027 C 
ATOM      6  C   LIG A   1     -10.338   7.339 129.288  0.00  0.00    +0.035 C 
ATOM      7  C   LIG A   1      -9.149   6.076 132.658  0.00  0.00    +0.039 C 
ENDROOT
BRANCH   1   8
ATOM      8  C   LIG A   1     -12.911   7.496 129.560  0.00  0.00    -0.010 C 
ATOM      9  C   LIG A   1     -12.604   8.995 129.477  0.00  0.00    +0.008 C 
ATOM     10  C   LIG A   1     -13.680   7.059 128.314  0.00  0.00    +0.008 C 
ENDBRANCH   1   8
TORSDOF 1
ENDMDL
MODEL 3
REMARK VINA RESULT:      -5.2      1.058      4.089
REMARK  Name = NuBBE_1738
REMARK  4 active torsions:
REMARK  status: ('A' for Active; 'I' for Inactive)
REMARK    1  A    between atoms: C_1  and  C_2
REMARK    2  A    between atoms: C_1  and  C_3
REMARK    3  A    between atoms: C_1  and  C_4
REMARK    4  A    between atoms: C_7  and  C_10
REMARK                            x       y       z     vdW  Elec       q    Type
REMARK                         _______ _______ _______ _____ _____    ______ ____
ROOT
ATOM      1  C   LIG A   1     -11.176   7.285 130.170  0.00  0.00    -0.016 C 
ATOM      2  C   LIG A   1     -12.529   6.795 129.662  0.00  0.00    +0.022 C 
ATOM      3  C   LIG A   1     -12.464   7.696 130.865  0.00  0.00    +0.016 C 
ATOM      4  C   LIG A   1     -12.674   7.389 128.318  0.00  0.00    -0.073 C 
ATOM      5  C   LIG A   1     -11.634   8.164 127.963  0.00  0.00    -0.027 C 
ATOM      6  C   LIG A   1     -10.610   8.195 129.070  0.00  0.00    +0.035 C 
ATOM      7  C   LIG A   1     -13.887   7.120 127.498  0.00  0.00    +0.039 C 
ENDROOT
BRANCH   1   8
ATOM      8  C   LIG A   1     -10.168   6.388 130.875  0.00  0.00    -0.010 C 
ATOM      9  C   LIG A   1      -8.757   6.962 130.712  0.00  0.00    +0.008 C 
ATOM     10  C   LIG A   1     -10.449   6.126 132.355  0.00  0.00    +0.008 C 
ENDBRANCH   1   8
TORSDOF 1
ENDMDL
MODEL 4
REMARK VINA RESULT:      -5.2     11.439     12.418
REMARK  Name = NuBBE_1738
REMARK  4 active torsions:
REMARK  status: ('A' for Active; 'I' for Inactive)
REMARK    1  A    between atoms: C_1  and  C_2
REMARK    2  A    between atoms: C_1  and  C_3
REMARK    3  A    between atoms: C_1  and  C_4
REMARK    4  A    between atoms: C_7  and  C_10
REMARK                            x       y       z     vdW  Elec       q    Type
REMARK                         _______ _______ _______ _____ _____    ______ ____
ROOT
ATOM      1  C   LIG A   1      -7.500  -2.063 123.452  0.00  0.00    -0.016 C 
ATOM      2  C   LIG A   1      -6.160  -2.275 122.753  0.00  0.00    +0.022 C 
ATOM      3  C   LIG A   1      -6.569  -0.892 123.183  0.00  0.00    +0.016 C 
ATOM      4  C   LIG A   1      -5.373  -3.116 123.677  0.00  0.00    -0.073 C 
ATOM      5  C   LIG A   1      -6.027  -3.418 124.812  0.00  0.00    -0.027 C 
ATOM      6  C   LIG A   1      -7.398  -2.789 124.802  0.00  0.00    +0.035 C 
ATOM      7  C   LIG A   1      -3.992  -3.542 123.321  0.00  0.00    +0.039 C 
ENDROOT
BRANCH   1   8
ATOM      8  C   LIG A   1      -8.843  -2.165 122.741  0.00  0.00    -0.010 C 
ATOM      9  C   LIG A   1      -9.690  -3.267 123.387  0.00  0.00    +0.008 C 
ATOM     10  C   LIG A   1      -9.649  -0.867 122.678  0.00  0.00    +0.008 C 
ENDBRANCH   1   8
TORSDOF 1
ENDMDL
MODEL 5
REMARK VINA RESULT:      -5.1      1.411      3.861
REMARK  Name = NuBBE_1738
REMARK  4 active torsions:
REMARK  status: ('A' for Active; 'I' for Inactive)
REMARK    1  A    between atoms: C_1  and  C_2
REMARK    2  A    between atoms: C_1  and  C_3
REMARK    3  A    between atoms: C_1  and  C_4
REMARK    4  A    between atoms: C_7  and  C_10
REMARK                            x       y       z     vdW  Elec       q    Type
REMARK                         _______ _______ _______ _____ _____    ______ ____
ROOT
ATOM      1  C   LIG A   1     -11.481   7.381 129.029  0.00  0.00    -0.016 C 
ATOM      2  C   LIG A   1     -11.835   8.859 129.163  0.00  0.00    +0.022 C 
ATOM      3  C   LIG A   1     -10.703   8.440 128.265  0.00  0.00    +0.016 C 
ATOM      4  C   LIG A   1     -13.196   8.981 128.604  0.00  0.00    -0.073 C 
ATOM      5  C   LIG A   1     -13.691   7.817 128.148  0.00  0.00    -0.027 C 
ATOM      6  C   LIG A   1     -12.683   6.713 128.346  0.00  0.00    +0.035 C 
ATOM      7  C   LIG A   1     -13.887  10.299 128.573  0.00  0.00    +0.039 C 
ENDROOT
BRANCH   1   8
ATOM      8  C   LIG A   1     -10.811   6.576 130.134  0.00  0.00    -0.010 C 
ATOM      9  C   LIG A   1      -9.394   7.106 130.379  0.00  0.00    +0.008 C 
ATOM     10  C   LIG A   1     -11.575   6.520 131.457  0.00  0.00    +0.008 C 
ENDBRANCH   1   8
TORSDOF 1
ENDMDL
MODEL 6
REMARK VINA RESULT:      -5.1     11.321     12.378
REMARK  Name = NuBBE_1738
REMARK  4 active torsions:
REMARK  status: ('A' for Active; 'I' for Inactive)
REMARK    1  A    between atoms: C_1  and  C_2
REMARK    2  A    between atoms: C_1  and  C_3
REMARK    3  A    between atoms: C_1  and  C_4
REMARK    4  A    between atoms: C_7  and  C_10
REMARK                            x       y       z     vdW  Elec       q    Type
REMARK                         _______ _______ _______ _____ _____    ______ ____
ROOT
ATOM      1  C   LIG A   1      -7.125  -2.116 124.300  0.00  0.00    -0.016 C 
ATOM      2  C   LIG A   1      -6.164  -3.231 124.703  0.00  0.00    +0.022 C 
ATOM      3  C   LIG A   1      -7.625  -3.535 124.513  0.00  0.00    +0.016 C 
ATOM      4  C   LIG A   1      -5.240  -3.374 123.561  0.00  0.00    -0.073 C 
ATOM      5  C   LIG A   1      -5.513  -2.536 122.545  0.00  0.00    -0.027 C 
ATOM      6  C   LIG A   1      -6.711  -1.685 122.885  0.00  0.00    +0.035 C 
ATOM      7  C   LIG A   1      -4.141  -4.378 123.598  0.00  0.00    +0.039 C 
ENDROOT
BRANCH   1   8
ATOM      8  C   LIG A   1      -7.551  -0.995 125.239  0.00  0.00    -0.010 C 
ATOM      9  C   LIG A   1      -7.252   0.363 124.596  0.00  0.00    +0.008 C 
ATOM     10  C   LIG A   1      -9.011  -1.040 125.689  0.00  0.00    +0.008 C 
ENDBRANCH   1   8
TORSDOF 1
ENDMDL
MODEL 7
REMARK VINA RESULT:      -5.1      1.466      3.575
REMARK  Name = NuBBE_1738
REMARK  4 active torsions:
REMARK  status: ('A' for Active; 'I' for Inactive)
REMARK    1  A    between atoms: C_1  and  C_2
REMARK    2  A    between atoms: C_1  and  C_3
REMARK    3  A    between atoms: C_1  and  C_4
REMARK    4  A    between atoms: C_7  and  C_10
REMARK                            x       y       z     vdW  Elec       q    Type
REMARK                         _______ _______ _______ _____ _____    ______ ____
ROOT
ATOM      1  C   LIG A   1     -11.826   6.589 130.085  0.00  0.00    -0.016 C 
ATOM      2  C   LIG A   1     -12.109   7.743 129.127  0.00  0.00    +0.022 C 
ATOM      3  C   LIG A   1     -12.771   6.410 128.909  0.00  0.00    +0.016 C 
ATOM      4  C   LIG A   1     -12.790   8.765 129.947  0.00  0.00    -0.073 C 
ATOM      5  C   LIG A   1     -12.969   8.391 131.226  0.00  0.00    -0.027 C 
ATOM      6  C   LIG A   1     -12.409   7.007 131.443  0.00  0.00    +0.035 C 
ATOM      7  C   LIG A   1     -13.217  10.057 129.343  0.00  0.00    +0.039 C 
ENDROOT
BRANCH   1   8
ATOM      8  C   LIG A   1     -10.499   5.844 130.132  0.00  0.00    -0.010 C 
ATOM      9  C   LIG A   1      -9.559   6.519 131.137  0.00  0.00    +0.008 C 
ATOM     10  C   LIG A   1     -10.599   4.351 130.445  0.00  0.00    +0.008 C 
ENDBRANCH   1   8
TORSDOF 1
ENDMDL
MODEL 8
REMARK VINA RESULT:      -4.7     10.342     10.982
REMARK  Name = NuBBE_1738
REMARK  4 active torsions:
REMARK  status: ('A' for Active; 'I' for Inactive)
REMARK    1  A    between atoms: C_1  and  C_2
REMARK    2  A    between atoms: C_1  and  C_3
REMARK    3  A    between atoms: C_1  and  C_4
REMARK    4  A    between atoms: C_7  and  C_10
REMARK                            x       y       z     vdW  Elec       q    Type
REMARK                         _______ _______ _______ _____ _____    ______ ____
ROOT
ATOM      1  C   LIG A   1      -8.521  -2.448 125.681  0.00  0.00    -0.016 C 
ATOM      2  C   LIG A   1      -7.485  -2.283 126.789  0.00  0.00    +0.022 C 
ATOM      3  C   LIG A   1      -8.301  -1.099 126.344  0.00  0.00    +0.016 C 
ATOM      4  C   LIG A   1      -7.973  -3.122 127.901  0.00  0.00    -0.073 C 
ATOM      5  C   LIG A   1      -9.137  -3.739 127.633  0.00  0.00    -0.027 C 
ATOM      6  C   LIG A   1      -9.606  -3.378 126.245  0.00  0.00    +0.035 C 
ATOM      7  C   LIG A   1      -7.203  -3.218 129.171  0.00  0.00    +0.039 C 
ENDROOT
BRANCH   1   8
ATOM      8  C   LIG A   1      -8.159  -2.661 124.217  0.00  0.00    -0.010 C 
ATOM      9  C   LIG A   1      -9.360  -3.241 123.463  0.00  0.00    +0.008 C 
ATOM     10  C   LIG A   1      -7.642  -1.422 123.486  0.00  0.00    +0.008 C 
ENDBRANCH   1   8
TORSDOF 1
ENDMDL
MODEL 9
REMARK VINA RESULT:      -4.7     11.112     12.431
REMARK  Name = NuBBE_1738
REMARK  4 active torsions:
REMARK  status: ('A' for Active; 'I' for Inactive)
REMARK    1  A    between atoms: C_1  and  C_2
REMARK    2  A    between atoms: C_1  and  C_3
REMARK    3  A    between atoms: C_1  and  C_4
REMARK    4  A    between atoms: C_7  and  C_10
REMARK                            x       y       z     vdW  Elec       q    Type
REMARK                         _______ _______ _______ _____ _____    ______ ____
ROOT
ATOM      1  C   LIG A   1      -6.583  -2.470 123.545  0.00  0.00    -0.016 C 
ATOM      2  C   LIG A   1      -7.102  -1.094 123.139  0.00  0.00    +0.022 C 
ATOM      3  C   LIG A   1      -6.484  -1.994 122.105  0.00  0.00    +0.016 C 
ATOM      4  C   LIG A   1      -8.559  -1.149 123.370  0.00  0.00    -0.073 C 
ATOM      5  C   LIG A   1      -8.982  -2.340 123.829  0.00  0.00    -0.027 C 
ATOM      6  C   LIG A   1      -7.813  -3.284 123.969  0.00  0.00    +0.035 C 
ATOM      7  C   LIG A   1      -9.416   0.036 123.090  0.00  0.00    +0.039 C 
ENDROOT
BRANCH   1   8
ATOM      8  C   LIG A   1      -5.326  -2.680 124.379  0.00  0.00    -0.010 C 
ATOM      9  C   LIG A   1      -5.673  -2.606 125.870  0.00  0.00    +0.008 C 
ATOM     10  C   LIG A   1      -4.560  -3.972 124.092  0.00  0.00    +0.008 C 
ENDBRANCH   1   8
TORSDOF 1
ENDMDL
