MODEL 1
REMARK VINA RESULT:      -6.1      0.000      0.000
REMARK  Name = NuBBE_939
REMARK  9 active torsions:
REMARK  status: ('A' for Active; 'I' for Inactive)
REMARK    1  A    between atoms: C_1  and  C_7
REMARK    2  A    between atoms: C_2  and  C_3
REMARK    3  A    between atoms: C_3  and  O_5
REMARK    4  A    between atoms: O_5  and  C_6
REMARK    5  A    between atoms: C_8  and  O_9
REMARK    6  A    between atoms: O_9  and  C_10
REMARK    7  A    between atoms: C_14  and  C_15
REMARK    8  A    between atoms: C_15  and  O_17
REMARK    9  A    between atoms: O_17  and  C_18
REMARK                            x       y       z     vdW  Elec       q    Type
REMARK                         _______ _______ _______ _____ _____    ______ ____
ROOT
ATOM      1  C   LIG A   1      -6.926   3.016 122.856  0.00  0.00    +0.050 A 
ATOM      2  C   LIG A   1      -6.336   3.549 121.672  0.00  0.00    +0.142 A 
ATOM      3  C   LIG A   1      -7.182   3.915 120.592  0.00  0.00    +0.082 A 
ATOM      4  C   LIG A   1      -8.544   3.680 120.764  0.00  0.00    +0.231 A 
ATOM      5  N   LIG A   1      -9.156   3.191 121.841  0.00  0.00    -0.205 NA
ATOM      6  C   LIG A   1      -8.322   2.872 122.868  0.00  0.00    +0.162 A 
ATOM      7  O   LIG A   1      -9.236   4.013 119.640  0.00  0.00    -0.445 OA
ATOM      8  C   LIG A   1      -8.343   4.498 118.748  0.00  0.00    +0.198 A 
ATOM      9  C   LIG A   1      -7.081   4.493 119.289  0.00  0.00    +0.055 A 
ENDROOT
BRANCH   1  10
ATOM     10  C   LIG A   1      -6.049   2.695 124.010  0.00  0.00    +0.021 C 
ATOM     11  C   LIG A   1      -5.701   3.438 125.073  0.00  0.00    +0.092 C 
BRANCH  11  12
ATOM     12  C   LIG A   1      -6.054   4.822 125.444  0.00  0.00    +0.332 C 
ATOM     13  O   LIG A   1      -6.247   5.694 124.607  0.00  0.00    -0.246 OA
BRANCH  12  14
ATOM     14  O   LIG A   1      -6.095   4.974 126.788  0.00  0.00    -0.465 OA
ATOM     15  C   LIG A   1      -6.992   4.078 127.442  0.00  0.00    +0.280 C 
ENDBRANCH  12  14
ENDBRANCH  11  12
ENDBRANCH   1  10
BRANCH   2  16
ATOM     16  O   LIG A   1      -4.947   3.652 121.690  0.00  0.00    -0.494 OA
ATOM     17  C   LIG A   1      -4.390   4.957 121.633  0.00  0.00    +0.277 C 
ENDBRANCH   2  16
BRANCH   6  18
ATOM     18  C   LIG A   1      -9.054   2.275 124.035  0.00  0.00    +0.358 C 
ATOM     19  O   LIG A   1      -9.182   2.773 125.152  0.00  0.00    -0.243 OA
BRANCH  18  20
ATOM     20  O   LIG A   1      -9.476   1.041 123.662  0.00  0.00    -0.463 OA
ATOM     21  C   LIG A   1      -8.580  -0.037 123.908  0.00  0.00    +0.280 C 
ENDBRANCH  18  20
ENDBRANCH   6  18
TORSDOF 6
ENDMDL
MODEL 2
REMARK VINA RESULT:      -5.8      8.457     10.184
REMARK  Name = NuBBE_939
REMARK  9 active torsions:
REMARK  status: ('A' for Active; 'I' for Inactive)
REMARK    1  A    between atoms: C_1  and  C_7
REMARK    2  A    between atoms: C_2  and  C_3
REMARK    3  A    between atoms: C_3  and  O_5
REMARK    4  A    between atoms: O_5  and  C_6
REMARK    5  A    between atoms: C_8  and  O_9
REMARK    6  A    between atoms: O_9  and  C_10
REMARK    7  A    between atoms: C_14  and  C_15
REMARK    8  A    between atoms: C_15  and  O_17
REMARK    9  A    between atoms: O_17  and  C_18
REMARK                            x       y       z     vdW  Elec       q    Type
REMARK                         _______ _______ _______ _____ _____    ______ ____
ROOT
ATOM      1  C   LIG A   1      -7.727   5.653 132.914  0.00  0.00    +0.050 A 
ATOM      2  C   LIG A   1      -6.303   5.704 132.980  0.00  0.00    +0.142 A 
ATOM      3  C   LIG A   1      -5.600   6.447 131.995  0.00  0.00    +0.082 A 
ATOM      4  C   LIG A   1      -6.370   7.044 131.000  0.00  0.00    +0.231 A 
ATOM      5  N   LIG A   1      -7.697   7.036 130.884  0.00  0.00    -0.205 NA
ATOM      6  C   LIG A   1      -8.344   6.336 131.855  0.00  0.00    +0.162 A 
ATOM      7  O   LIG A   1      -5.578   7.669 130.088  0.00  0.00    -0.445 OA
ATOM      8  C   LIG A   1      -4.298   7.519 130.497  0.00  0.00    +0.198 A 
ATOM      9  C   LIG A   1      -4.256   6.812 131.674  0.00  0.00    +0.055 A 
ENDROOT
BRANCH   1  10
ATOM     10  C   LIG A   1      -8.466   4.932 133.980  0.00  0.00    +0.021 C 
ATOM     11  C   LIG A   1      -8.901   3.662 134.033  0.00  0.00    +0.092 C 
BRANCH  11  12
ATOM     12  C   LIG A   1      -8.808   2.566 133.050  0.00  0.00    +0.332 C 
ATOM     13  O   LIG A   1      -8.041   1.623 133.194  0.00  0.00    -0.246 OA
BRANCH  12  14
ATOM     14  O   LIG A   1      -9.639   2.775 132.002  0.00  0.00    -0.465 OA
ATOM     15  C   LIG A   1      -9.036   2.530 130.732  0.00  0.00    +0.280 C 
ENDBRANCH  12  14
ENDBRANCH  11  12
ENDBRANCH   1  10
BRANCH   2  16
ATOM     16  O   LIG A   1      -5.727   4.992 134.030  0.00  0.00    -0.494 OA
ATOM     17  C   LIG A   1      -5.024   3.803 133.701  0.00  0.00    +0.277 C 
ENDBRANCH   2  16
BRANCH   6  18
ATOM     18  C   LIG A   1      -9.832   6.313 131.649  0.00  0.00    +0.358 C 
ATOM     19  O   LIG A   1     -10.691   6.601 132.479  0.00  0.00    -0.243 OA
BRANCH  18  20
ATOM     20  O   LIG A   1     -10.061   5.832 130.401  0.00  0.00    -0.463 OA
ATOM     21  C   LIG A   1     -11.396   5.433 130.112  0.00  0.00    +0.280 C 
ENDBRANCH  18  20
ENDBRANCH   6  18
TORSDOF 6
ENDMDL
MODEL 3
REMARK VINA RESULT:      -5.7      3.392      6.854
REMARK  Name = NuBBE_939
REMARK  9 active torsions:
REMARK  status: ('A' for Active; 'I' for Inactive)
REMARK    1  A    between atoms: C_1  and  C_7
REMARK    2  A    between atoms: C_2  and  C_3
REMARK    3  A    between atoms: C_3  and  O_5
REMARK    4  A    between atoms: O_5  and  C_6
REMARK    5  A    between atoms: C_8  and  O_9
REMARK    6  A    between atoms: O_9  and  C_10
REMARK    7  A    between atoms: C_14  and  C_15
REMARK    8  A    between atoms: C_15  and  O_17
REMARK    9  A    between atoms: O_17  and  C_18
REMARK                            x       y       z     vdW  Elec       q    Type
REMARK                         _______ _______ _______ _____ _____    ______ ____
ROOT
ATOM      1  C   LIG A   1      -7.842  -0.112 124.878  0.00  0.00    +0.050 A 
ATOM      2  C   LIG A   1      -7.135  -0.227 126.111  0.00  0.00    +0.142 A 
ATOM      3  C   LIG A   1      -7.597   0.507 127.235  0.00  0.00    +0.082 A 
ATOM      4  C   LIG A   1      -8.701   1.330 127.027  0.00  0.00    +0.231 A 
ATOM      5  N   LIG A   1      -9.404   1.481 125.907  0.00  0.00    -0.205 NA
ATOM      6  C   LIG A   1      -8.952   0.746 124.854  0.00  0.00    +0.162 A 
ATOM      7  O   LIG A   1      -9.003   2.024 128.158  0.00  0.00    -0.445 OA
ATOM      8  C   LIG A   1      -8.131   1.635 129.115  0.00  0.00    +0.198 A 
ATOM      9  C   LIG A   1      -7.273   0.685 128.616  0.00  0.00    +0.055 A 
ENDROOT
BRANCH   1  10
ATOM     10  C   LIG A   1      -7.400  -0.930 123.721  0.00  0.00    +0.021 C 
ATOM     11  C   LIG A   1      -7.843  -2.115 123.273  0.00  0.00    +0.092 C 
BRANCH  11  12
ATOM     12  C   LIG A   1      -8.898  -3.011 123.784  0.00  0.00    +0.332 C 
ATOM     13  O   LIG A   1      -9.960  -3.170 123.198  0.00  0.00    -0.246 OA
BRANCH  12  14
ATOM     14  O   LIG A   1      -8.536  -3.574 124.961  0.00  0.00    -0.465 OA
ATOM     15  C   LIG A   1      -9.377  -3.212 126.055  0.00  0.00    +0.280 C 
ENDBRANCH  12  14
ENDBRANCH  11  12
ENDBRANCH   1  10
BRANCH   2  16
ATOM     16  O   LIG A   1      -6.024  -1.067 126.087  0.00  0.00    -0.494 OA
ATOM     17  C   LIG A   1      -6.010  -2.154 127.001  0.00  0.00    +0.277 C 
ENDBRANCH   2  16
BRANCH   6  18
ATOM     18  C   LIG A   1      -9.746   0.991 123.603  0.00  0.00    +0.358 C 
ATOM     19  O   LIG A   1     -10.374   0.154 122.958  0.00  0.00    -0.243 OA
BRANCH  18  20
ATOM     20  O   LIG A   1      -9.572   2.293 123.261  0.00  0.00    -0.463 OA
ATOM     21  C   LIG A   1      -8.405   2.599 122.506  0.00  0.00    +0.280 C 
ENDBRANCH  18  20
ENDBRANCH   6  18
TORSDOF 6
ENDMDL
MODEL 4
REMARK VINA RESULT:      -5.7      3.571      6.863
REMARK  Name = NuBBE_939
REMARK  9 active torsions:
REMARK  status: ('A' for Active; 'I' for Inactive)
REMARK    1  A    between atoms: C_1  and  C_7
REMARK    2  A    between atoms: C_2  and  C_3
REMARK    3  A    between atoms: C_3  and  O_5
REMARK    4  A    between atoms: O_5  and  C_6
REMARK    5  A    between atoms: C_8  and  O_9
REMARK    6  A    between atoms: O_9  and  C_10
REMARK    7  A    between atoms: C_14  and  C_15
REMARK    8  A    between atoms: C_15  and  O_17
REMARK    9  A    between atoms: O_17  and  C_18
REMARK                            x       y       z     vdW  Elec       q    Type
REMARK                         _______ _______ _______ _____ _____    ______ ____
ROOT
ATOM      1  C   LIG A   1      -7.455  -0.778 125.287  0.00  0.00    +0.050 A 
ATOM      2  C   LIG A   1      -7.198  -0.920 126.683  0.00  0.00    +0.142 A 
ATOM      3  C   LIG A   1      -7.780  -2.016 127.376  0.00  0.00    +0.082 A 
ATOM      4  C   LIG A   1      -8.603  -2.855 126.630  0.00  0.00    +0.231 A 
ATOM      5  N   LIG A   1      -8.880  -2.778 125.330  0.00  0.00    -0.205 NA
ATOM      6  C   LIG A   1      -8.290  -1.733 124.688  0.00  0.00    +0.162 A 
ATOM      7  O   LIG A   1      -9.146  -3.822 127.419  0.00  0.00    -0.445 OA
ATOM      8  C   LIG A   1      -8.655  -3.646 128.665  0.00  0.00    +0.198 A 
ATOM      9  C   LIG A   1      -7.789  -2.580 128.689  0.00  0.00    +0.055 A 
ENDROOT
BRANCH   1  10
ATOM     10  C   LIG A   1      -6.795   0.328 124.549  0.00  0.00    +0.021 C 
ATOM     11  C   LIG A   1      -7.217   1.576 124.289  0.00  0.00    +0.092 C 
BRANCH  11  12
ATOM     12  C   LIG A   1      -8.479   2.261 124.629  0.00  0.00    +0.332 C 
ATOM     13  O   LIG A   1      -9.118   1.991 125.637  0.00  0.00    -0.246 OA
BRANCH  12  14
ATOM     14  O   LIG A   1      -8.816   3.166 123.680  0.00  0.00    -0.465 OA
ATOM     15  C   LIG A   1      -8.045   3.063 122.485  0.00  0.00    +0.280 C 
ENDBRANCH  12  14
ENDBRANCH  11  12
ENDBRANCH   1  10
BRANCH   2  16
ATOM     16  O   LIG A   1      -6.387   0.062 127.246  0.00  0.00    -0.494 OA
ATOM     17  C   LIG A   1      -6.979   0.924 128.205  0.00  0.00    +0.277 C 
ENDBRANCH   2  16
BRANCH   6  18
ATOM     18  C   LIG A   1      -8.676  -1.660 123.238  0.00  0.00    +0.358 C 
ATOM     19  O   LIG A   1      -7.964  -1.938 122.276  0.00  0.00    -0.243 OA
BRANCH  18  20
ATOM     20  O   LIG A   1      -9.930  -1.146 123.178  0.00  0.00    -0.463 OA
ATOM     21  C   LIG A   1     -10.103   0.007 122.360  0.00  0.00    +0.280 C 
ENDBRANCH  18  20
ENDBRANCH   6  18
TORSDOF 6
ENDMDL
MODEL 5
REMARK VINA RESULT:      -5.6      2.148      6.006
REMARK  Name = NuBBE_939
REMARK  9 active torsions:
REMARK  status: ('A' for Active; 'I' for Inactive)
REMARK    1  A    between atoms: C_1  and  C_7
REMARK    2  A    between atoms: C_2  and  C_3
REMARK    3  A    between atoms: C_3  and  O_5
REMARK    4  A    between atoms: O_5  and  C_6
REMARK    5  A    between atoms: C_8  and  O_9
REMARK    6  A    between atoms: O_9  and  C_10
REMARK    7  A    between atoms: C_14  and  C_15
REMARK    8  A    between atoms: C_15  and  O_17
REMARK    9  A    between atoms: O_17  and  C_18
REMARK                            x       y       z     vdW  Elec       q    Type
REMARK                         _______ _______ _______ _____ _____    ______ ____
ROOT
ATOM      1  C   LIG A   1      -7.342   1.631 124.446  0.00  0.00    +0.050 A 
ATOM      2  C   LIG A   1      -7.178   1.518 125.858  0.00  0.00    +0.142 A 
ATOM      3  C   LIG A   1      -7.552   2.616 126.679  0.00  0.00    +0.082 A 
ATOM      4  C   LIG A   1      -8.019   3.751 126.021  0.00  0.00    +0.231 A 
ATOM      5  N   LIG A   1      -8.197   3.918 124.712  0.00  0.00    -0.205 NA
ATOM      6  C   LIG A   1      -7.853   2.842 123.954  0.00  0.00    +0.162 A 
ATOM      7  O   LIG A   1      -8.281   4.748 126.910  0.00  0.00    -0.445 OA
ATOM      8  C   LIG A   1      -8.027   4.262 128.145  0.00  0.00    +0.198 A 
ATOM      9  C   LIG A   1      -7.612   2.955 128.066  0.00  0.00    +0.055 A 
ENDROOT
BRANCH   1  10
ATOM     10  C   LIG A   1      -7.014   0.461 123.594  0.00  0.00    +0.021 C 
ATOM     11  C   LIG A   1      -7.795  -0.532 123.138  0.00  0.00    +0.092 C 
BRANCH  11  12
ATOM     12  C   LIG A   1      -9.230  -0.806 123.344  0.00  0.00    +0.332 C 
ATOM     13  O   LIG A   1     -10.106  -0.129 122.822  0.00  0.00    -0.246 OA
BRANCH  12  14
ATOM     14  O   LIG A   1      -9.414  -1.850 124.185  0.00  0.00    -0.465 OA
ATOM     15  C   LIG A   1      -9.365  -3.123 123.542  0.00  0.00    +0.280 C 
ENDBRANCH  12  14
ENDBRANCH  11  12
ENDBRANCH   1  10
BRANCH   2  16
ATOM     16  O   LIG A   1      -6.644   0.312 126.305  0.00  0.00    -0.494 OA
ATOM     17  C   LIG A   1      -7.510  -0.559 127.018  0.00  0.00    +0.277 C 
ENDBRANCH   2  16
BRANCH   6  18
ATOM     18  C   LIG A   1      -8.021   3.099 122.484  0.00  0.00    +0.358 C 
ATOM     19  O   LIG A   1      -9.030   2.887 121.815  0.00  0.00    -0.243 OA
BRANCH  18  20
ATOM     20  O   LIG A   1      -6.826   3.528 122.008  0.00  0.00    -0.463 OA
ATOM     21  C   LIG A   1      -6.779   3.862 120.625  0.00  0.00    +0.280 C 
ENDBRANCH  18  20
ENDBRANCH   6  18
TORSDOF 6
ENDMDL
MODEL 6
REMARK VINA RESULT:      -5.6      2.595      4.974
REMARK  Name = NuBBE_939
REMARK  9 active torsions:
REMARK  status: ('A' for Active; 'I' for Inactive)
REMARK    1  A    between atoms: C_1  and  C_7
REMARK    2  A    between atoms: C_2  and  C_3
REMARK    3  A    between atoms: C_3  and  O_5
REMARK    4  A    between atoms: O_5  and  C_6
REMARK    5  A    between atoms: C_8  and  O_9
REMARK    6  A    between atoms: O_9  and  C_10
REMARK    7  A    between atoms: C_14  and  C_15
REMARK    8  A    between atoms: C_15  and  O_17
REMARK    9  A    between atoms: O_17  and  C_18
REMARK                            x       y       z     vdW  Elec       q    Type
REMARK                         _______ _______ _______ _____ _____    ______ ____
ROOT
ATOM      1  C   LIG A   1      -7.078   0.774 124.456  0.00  0.00    +0.050 A 
ATOM      2  C   LIG A   1      -6.830  -0.628 124.539  0.00  0.00    +0.142 A 
ATOM      3  C   LIG A   1      -7.818  -1.527 124.055  0.00  0.00    +0.082 A 
ATOM      4  C   LIG A   1      -8.990  -0.955 123.568  0.00  0.00    +0.231 A 
ATOM      5  N   LIG A   1      -9.282   0.339 123.461  0.00  0.00    -0.205 NA
ATOM      6  C   LIG A   1      -8.307   1.176 123.910  0.00  0.00    +0.162 A 
ATOM      7  O   LIG A   1      -9.877  -1.919 123.196  0.00  0.00    -0.445 OA
ATOM      8  C   LIG A   1      -9.280  -3.114 123.400  0.00  0.00    +0.198 A 
ATOM      9  C   LIG A   1      -8.010  -2.933 123.891  0.00  0.00    +0.055 A 
ENDROOT
BRANCH   1  10
ATOM     10  C   LIG A   1      -6.020   1.715 124.900  0.00  0.00    +0.021 C 
ATOM     11  C   LIG A   1      -5.712   2.164 126.128  0.00  0.00    +0.092 C 
BRANCH  11  12
ATOM     12  C   LIG A   1      -6.329   1.892 127.440  0.00  0.00    +0.332 C 
ATOM     13  O   LIG A   1      -5.770   1.224 128.299  0.00  0.00    -0.246 OA
BRANCH  12  14
ATOM     14  O   LIG A   1      -7.562   2.444 127.526  0.00  0.00    -0.465 OA
ATOM     15  C   LIG A   1      -8.602   1.495 127.758  0.00  0.00    +0.280 C 
ENDBRANCH  12  14
ENDBRANCH  11  12
ENDBRANCH   1  10
BRANCH   2  16
ATOM     16  O   LIG A   1      -5.611  -0.987 125.111  0.00  0.00    -0.494 OA
ATOM     17  C   LIG A   1      -5.652  -1.663 126.359  0.00  0.00    +0.277 C 
ENDBRANCH   2  16
BRANCH   6  18
ATOM     18  C   LIG A   1      -8.706   2.621 123.818  0.00  0.00    +0.358 C 
ATOM     19  O   LIG A   1      -8.990   3.363 124.755  0.00  0.00    -0.243 OA
BRANCH  18  20
ATOM     20  O   LIG A   1      -8.782   2.938 122.501  0.00  0.00    -0.463 OA
ATOM     21  C   LIG A   1      -7.573   3.365 121.882  0.00  0.00    +0.280 C 
ENDBRANCH  18  20
ENDBRANCH   6  18
TORSDOF 6
ENDMDL
MODEL 7
REMARK VINA RESULT:      -5.4      3.210      5.760
REMARK  Name = NuBBE_939
REMARK  9 active torsions:
REMARK  status: ('A' for Active; 'I' for Inactive)
REMARK    1  A    between atoms: C_1  and  C_7
REMARK    2  A    between atoms: C_2  and  C_3
REMARK    3  A    between atoms: C_3  and  O_5
REMARK    4  A    between atoms: O_5  and  C_6
REMARK    5  A    between atoms: C_8  and  O_9
REMARK    6  A    between atoms: O_9  and  C_10
REMARK    7  A    between atoms: C_14  and  C_15
REMARK    8  A    between atoms: C_15  and  O_17
REMARK    9  A    between atoms: O_17  and  C_18
REMARK                            x       y       z     vdW  Elec       q    Type
REMARK                         _______ _______ _______ _____ _____    ______ ____
ROOT
ATOM      1  C   LIG A   1      -8.065  -0.683 125.248  0.00  0.00    +0.050 A 
ATOM      2  C   LIG A   1      -7.103  -1.651 125.663  0.00  0.00    +0.142 A 
ATOM      3  C   LIG A   1      -6.241  -2.219 124.687  0.00  0.00    +0.082 A 
ATOM      4  C   LIG A   1      -6.437  -1.807 123.371  0.00  0.00    +0.231 A 
ATOM      5  N   LIG A   1      -7.311  -0.910 122.921  0.00  0.00    -0.205 NA
ATOM      6  C   LIG A   1      -8.107  -0.365 123.882  0.00  0.00    +0.162 A 
ATOM      7  O   LIG A   1      -5.596  -2.468 122.530  0.00  0.00    -0.445 OA
ATOM      8  C   LIG A   1      -4.826  -3.280 123.288  0.00  0.00    +0.198 A 
ATOM      9  C   LIG A   1      -5.153  -3.143 124.615  0.00  0.00    +0.055 A 
ENDROOT
BRANCH   1  10
ATOM     10  C   LIG A   1      -8.921  -0.040 126.276  0.00  0.00    +0.021 C 
ATOM     11  C   LIG A   1      -8.809   1.154 126.880  0.00  0.00    +0.092 C 
BRANCH  11  12
ATOM     12  C   LIG A   1      -7.796   2.217 126.743  0.00  0.00    +0.332 C 
ATOM     13  O   LIG A   1      -6.596   1.990 126.821  0.00  0.00    -0.246 OA
BRANCH  12  14
ATOM     14  O   LIG A   1      -8.376   3.427 126.559  0.00  0.00    -0.465 OA
ATOM     15  C   LIG A   1      -7.659   4.280 125.668  0.00  0.00    +0.280 C 
ENDBRANCH  12  14
ENDBRANCH  11  12
ENDBRANCH   1  10
BRANCH   2  16
ATOM     16  O   LIG A   1      -7.110  -1.958 127.022  0.00  0.00    -0.494 OA
ATOM     17  C   LIG A   1      -5.996  -1.530 127.791  0.00  0.00    +0.277 C 
ENDBRANCH   2  16
BRANCH   6  18
ATOM     18  C   LIG A   1      -9.109   0.599 123.316  0.00  0.00    +0.358 C 
ATOM     19  O   LIG A   1     -10.218   0.321 122.863  0.00  0.00    -0.243 OA
BRANCH  18  20
ATOM     20  O   LIG A   1      -8.535   1.828 123.315  0.00  0.00    -0.463 OA
ATOM     21  C   LIG A   1      -8.903   2.698 122.250  0.00  0.00    +0.280 C 
ENDBRANCH  18  20
ENDBRANCH   6  18
TORSDOF 6
ENDMDL
MODEL 8
REMARK VINA RESULT:      -5.2      2.503      4.643
REMARK  Name = NuBBE_939
REMARK  9 active torsions:
REMARK  status: ('A' for Active; 'I' for Inactive)
REMARK    1  A    between atoms: C_1  and  C_7
REMARK    2  A    between atoms: C_2  and  C_3
REMARK    3  A    between atoms: C_3  and  O_5
REMARK    4  A    between atoms: O_5  and  C_6
REMARK    5  A    between atoms: C_8  and  O_9
REMARK    6  A    between atoms: O_9  and  C_10
REMARK    7  A    between atoms: C_14  and  C_15
REMARK    8  A    between atoms: C_15  and  O_17
REMARK    9  A    between atoms: O_17  and  C_18
REMARK                            x       y       z     vdW  Elec       q    Type
REMARK                         _______ _______ _______ _____ _____    ______ ____
ROOT
ATOM      1  C   LIG A   1      -6.817   2.687 124.720  0.00  0.00    +0.050 A 
ATOM      2  C   LIG A   1      -7.084   2.522 123.329  0.00  0.00    +0.142 A 
ATOM      3  C   LIG A   1      -6.361   3.314 122.396  0.00  0.00    +0.082 A 
ATOM      4  C   LIG A   1      -5.462   4.234 122.929  0.00  0.00    +0.231 A 
ATOM      5  N   LIG A   1      -5.166   4.434 124.212  0.00  0.00    -0.205 NA
ATOM      6  C   LIG A   1      -5.856   3.645 125.080  0.00  0.00    +0.162 A 
ATOM      7  O   LIG A   1      -4.884   4.969 121.941  0.00  0.00    -0.445 OA
ATOM      8  C   LIG A   1      -5.368   4.513 120.765  0.00  0.00    +0.198 A 
ATOM      9  C   LIG A   1      -6.247   3.480 120.981  0.00  0.00    +0.055 A 
ENDROOT
BRANCH   1  10
ATOM     10  C   LIG A   1      -7.523   1.814 125.691  0.00  0.00    +0.021 C 
ATOM     11  C   LIG A   1      -7.223   0.582 126.134  0.00  0.00    +0.092 C 
BRANCH  11  12
ATOM     12  C   LIG A   1      -6.109  -0.324 125.795  0.00  0.00    +0.332 C 
ATOM     13  O   LIG A   1      -4.938  -0.004 125.948  0.00  0.00    -0.246 OA
BRANCH  12  14
ATOM     14  O   LIG A   1      -6.564  -1.491 125.284  0.00  0.00    -0.465 OA
ATOM     15  C   LIG A   1      -7.706  -2.011 125.964  0.00  0.00    +0.280 C 
ENDBRANCH  12  14
ENDBRANCH  11  12
ENDBRANCH   1  10
BRANCH   2  16
ATOM     16  O   LIG A   1      -8.061   1.581 123.014  0.00  0.00    -0.494 OA
ATOM     17  C   LIG A   1      -9.334   2.072 122.620  0.00  0.00    +0.277 C 
ENDBRANCH   2  16
BRANCH   6  18
ATOM     18  C   LIG A   1      -5.526   3.946 126.514  0.00  0.00    +0.358 C 
ATOM     19  O   LIG A   1      -6.097   4.755 127.242  0.00  0.00    -0.243 OA
BRANCH  18  20
ATOM     20  O   LIG A   1      -4.424   3.224 126.837  0.00  0.00    -0.463 OA
ATOM     21  C   LIG A   1      -3.373   3.930 127.487  0.00  0.00    +0.280 C 
ENDBRANCH  18  20
ENDBRANCH   6  18
TORSDOF 6
ENDMDL
MODEL 9
REMARK VINA RESULT:      -5.2      3.535      6.342
REMARK  Name = NuBBE_939
REMARK  9 active torsions:
REMARK  status: ('A' for Active; 'I' for Inactive)
REMARK    1  A    between atoms: C_1  and  C_7
REMARK    2  A    between atoms: C_2  and  C_3
REMARK    3  A    between atoms: C_3  and  O_5
REMARK    4  A    between atoms: O_5  and  C_6
REMARK    5  A    between atoms: C_8  and  O_9
REMARK    6  A    between atoms: O_9  and  C_10
REMARK    7  A    between atoms: C_14  and  C_15
REMARK    8  A    between atoms: C_15  and  O_17
REMARK    9  A    between atoms: O_17  and  C_18
REMARK                            x       y       z     vdW  Elec       q    Type
REMARK                         _______ _______ _______ _____ _____    ______ ____
ROOT
ATOM      1  C   LIG A   1      -7.670   0.083 126.013  0.00  0.00    +0.050 A 
ATOM      2  C   LIG A   1      -8.203   1.325 125.558  0.00  0.00    +0.142 A 
ATOM      3  C   LIG A   1      -7.304   2.383 125.254  0.00  0.00    +0.082 A 
ATOM      4  C   LIG A   1      -5.952   2.129 125.469  0.00  0.00    +0.231 A 
ATOM      5  N   LIG A   1      -5.393   0.995 125.887  0.00  0.00    -0.205 NA
ATOM      6  C   LIG A   1      -6.276  -0.007 126.148  0.00  0.00    +0.162 A 
ATOM      7  O   LIG A   1      -5.207   3.236 125.202  0.00  0.00    -0.445 OA
ATOM      8  C   LIG A   1      -6.055   4.199 124.778  0.00  0.00    +0.198 A 
ATOM      9  C   LIG A   1      -7.343   3.722 124.757  0.00  0.00    +0.055 A 
ENDROOT
BRANCH   1  10
ATOM     10  C   LIG A   1      -8.603  -1.043 126.268  0.00  0.00    +0.021 C 
ATOM     11  C   LIG A   1      -9.098  -1.971 125.432  0.00  0.00    +0.092 C 
BRANCH  11  12
ATOM     12  C   LIG A   1      -8.901  -2.173 123.984  0.00  0.00    +0.332 C 
ATOM     13  O   LIG A   1      -9.785  -1.954 123.167  0.00  0.00    -0.246 OA
BRANCH  12  14
ATOM     14  O   LIG A   1      -7.660  -2.646 123.719  0.00  0.00    -0.465 OA
ATOM     15  C   LIG A   1      -6.902  -1.815 122.842  0.00  0.00    +0.280 C 
ENDBRANCH  12  14
ENDBRANCH  11  12
ENDBRANCH   1  10
BRANCH   2  16
ATOM     16  O   LIG A   1      -9.591   1.382 125.463  0.00  0.00    -0.494 OA
ATOM     17  C   LIG A   1     -10.151   1.459 124.160  0.00  0.00    +0.277 C 
ENDBRANCH   2  16
BRANCH   6  18
ATOM     18  C   LIG A   1      -5.602  -1.244 126.667  0.00  0.00    +0.358 C 
ATOM     19  O   LIG A   1      -5.418  -2.291 126.050  0.00  0.00    -0.243 OA
BRANCH  18  20
ATOM     20  O   LIG A   1      -5.307  -1.028 127.974  0.00  0.00    -0.463 OA
ATOM     21  C   LIG A   1      -5.450  -2.143 128.847  0.00  0.00    +0.280 C 
ENDBRANCH  18  20
ENDBRANCH   6  18
TORSDOF 6
ENDMDL
