MODEL 1
REMARK VINA RESULT:      -7.5      0.000      0.000
REMARK  Name = NuBBE_570
REMARK  7 active torsions:
REMARK  status: ('A' for Active; 'I' for Inactive)
REMARK    1  A    between atoms: C_3  and  O_9
REMARK    2  A    between atoms: C_5  and  C_6
REMARK    3  A    between atoms: C_13  and  O_14
REMARK    4  A    between atoms: C_13  and  C_15
REMARK    5  A    between atoms: C_22  and  C_23
REMARK    6  A    between atoms: C_22  and  C_24
REMARK    7  A    between atoms: C_26  and  C_28
REMARK                            x       y       z     vdW  Elec       q    Type
REMARK                         _______ _______ _______ _____ _____    ______ ____
ROOT
ATOM      1  O   LIG A   1      -6.953   0.444 123.190  0.00  0.00    -0.294 OA
ATOM      2  C   LIG A   1      -7.548   0.963 124.146  0.00  0.00    +0.172 C 
ATOM      3  C   LIG A   1      -6.973   2.244 124.835  0.00  0.00    +0.152 C 
ATOM      4  C   LIG A   1      -6.213   3.110 123.833  0.00  0.00    +0.022 C 
ATOM      5  C   LIG A   1      -5.588   4.126 124.470  0.00  0.00    -0.009 C 
ATOM      6  C   LIG A   1      -6.343   5.277 125.109  0.00  0.00    +0.047 C 
ATOM      7  C   LIG A   1      -5.030   3.303 125.568  0.00  0.00    +0.165 C 
ATOM      8  O   LIG A   1      -3.861   3.496 125.956  0.00  0.00    -0.292 OA
ATOM      9  C   LIG A   1      -6.024   2.271 126.102  0.00  0.00    +0.105 C 
ATOM     10  C   LIG A   1      -5.156   1.120 126.701  0.00  0.00    +0.049 C 
ATOM     11  C   LIG A   1      -5.680   0.293 127.929  0.00  0.00    +0.064 C 
ATOM     12  C   LIG A   1      -4.857   0.632 129.201  0.00  0.00    +0.041 C 
ATOM     13  C   LIG A   1      -5.490  -1.246 127.717  0.00  0.00    +0.035 C 
ATOM     14  C   LIG A   1      -6.694  -2.184 127.815  0.00  0.00    +0.007 C 
ATOM     15  C   LIG A   1      -7.377  -2.556 126.523  0.00  0.00    -0.001 C 
ATOM     16  C   LIG A   1      -7.651  -1.490 125.536  0.00  0.00    -0.001 C 
ATOM     17  C   LIG A   1      -6.734  -2.629 125.105  0.00  0.00    -0.029 C 
ATOM     18  C   LIG A   1      -7.181  -3.851 124.332  0.00  0.00    +0.011 C 
ATOM     19  C   LIG A   1      -5.451  -2.058 124.543  0.00  0.00    +0.011 C 
ATOM     20  C   LIG A   1      -8.845  -1.167 124.713  0.00  0.00    +0.015 C 
ATOM     21  C   LIG A   1      -8.941   0.376 124.583  0.00  0.00    +0.056 C 
ATOM     22  C   LIG A   1      -9.553   0.942 125.867  0.00  0.00    +0.015 C 
ENDROOT
BRANCH   3  23
ATOM     23  O   LIG A   1      -8.136   3.062 125.085  0.00  0.00    -0.376 OA
ATOM     24  H   LIG A   1      -8.752   2.916 124.341  0.00  0.00    +0.211 HD
ENDBRANCH   3  23
BRANCH  11  25
ATOM     25  O   LIG A   1      -7.002   0.705 128.249  0.00  0.00    -0.389 OA
ATOM     26  H   LIG A   1      -7.343   1.302 127.569  0.00  0.00    +0.210 HD
ENDBRANCH  11  25
TORSDOF 2
ENDMDL
MODEL 2
REMARK VINA RESULT:      -7.3      5.721      7.868
REMARK  Name = NuBBE_570
REMARK  7 active torsions:
REMARK  status: ('A' for Active; 'I' for Inactive)
REMARK    1  A    between atoms: C_3  and  O_9
REMARK    2  A    between atoms: C_5  and  C_6
REMARK    3  A    between atoms: C_13  and  O_14
REMARK    4  A    between atoms: C_13  and  C_15
REMARK    5  A    between atoms: C_22  and  C_23
REMARK    6  A    between atoms: C_22  and  C_24
REMARK    7  A    between atoms: C_26  and  C_28
REMARK                            x       y       z     vdW  Elec       q    Type
REMARK                         _______ _______ _______ _____ _____    ______ ____
ROOT
ATOM      1  O   LIG A   1      -9.596   2.415 131.063  0.00  0.00    -0.294 OA
ATOM      2  C   LIG A   1      -9.479   3.312 131.910  0.00  0.00    +0.172 C 
ATOM      3  C   LIG A   1      -9.904   4.780 131.575  0.00  0.00    +0.152 C 
ATOM      4  C   LIG A   1     -11.064   4.799 130.581  0.00  0.00    +0.022 C 
ATOM      5  C   LIG A   1     -11.315   6.065 130.178  0.00  0.00    -0.009 C 
ATOM      6  C   LIG A   1     -11.901   7.116 131.103  0.00  0.00    +0.047 C 
ATOM      7  C   LIG A   1      -9.901   6.435 129.934  0.00  0.00    +0.165 C 
ATOM      8  O   LIG A   1      -9.599   7.100 128.923  0.00  0.00    -0.292 OA
ATOM      9  C   LIG A   1      -8.956   5.918 131.017  0.00  0.00    +0.105 C 
ATOM     10  C   LIG A   1      -7.561   5.781 130.330  0.00  0.00    +0.049 C 
ATOM     11  C   LIG A   1      -6.246   6.002 131.160  0.00  0.00    +0.064 C 
ATOM     12  C   LIG A   1      -5.550   7.322 130.731  0.00  0.00    +0.041 C 
ATOM     13  C   LIG A   1      -5.192   4.877 130.890  0.00  0.00    +0.035 C 
ATOM     14  C   LIG A   1      -4.629   4.062 132.056  0.00  0.00    +0.007 C 
ATOM     15  C   LIG A   1      -5.291   2.738 132.344  0.00  0.00    -0.001 C 
ATOM     16  C   LIG A   1      -6.767   2.671 132.351  0.00  0.00    -0.001 C 
ATOM     17  C   LIG A   1      -6.030   1.813 131.330  0.00  0.00    -0.029 C 
ATOM     18  C   LIG A   1      -5.680   0.353 131.521  0.00  0.00    +0.011 C 
ATOM     19  C   LIG A   1      -6.598   2.070 129.952  0.00  0.00    +0.011 C 
ATOM     20  C   LIG A   1      -7.738   2.029 133.274  0.00  0.00    +0.015 C 
ATOM     21  C   LIG A   1      -8.996   2.931 133.359  0.00  0.00    +0.056 C 
ATOM     22  C   LIG A   1      -8.709   4.091 134.315  0.00  0.00    +0.015 C 
ENDROOT
BRANCH   3  23
ATOM     23  O   LIG A   1     -10.558   5.241 132.777  0.00  0.00    -0.376 OA
ATOM     24  H   LIG A   1     -10.245   4.674 133.508  0.00  0.00    +0.211 HD
ENDBRANCH   3  23
BRANCH  11  25
ATOM     25  O   LIG A   1      -6.577   6.211 132.526  0.00  0.00    -0.389 OA
ATOM     26  H   LIG A   1      -7.524   6.077 132.668  0.00  0.00    +0.210 HD
ENDBRANCH  11  25
TORSDOF 2
ENDMDL
MODEL 3
REMARK VINA RESULT:      -7.2      2.271      4.028
REMARK  Name = NuBBE_570
REMARK  7 active torsions:
REMARK  status: ('A' for Active; 'I' for Inactive)
REMARK    1  A    between atoms: C_3  and  O_9
REMARK    2  A    between atoms: C_5  and  C_6
REMARK    3  A    between atoms: C_13  and  O_14
REMARK    4  A    between atoms: C_13  and  C_15
REMARK    5  A    between atoms: C_22  and  C_23
REMARK    6  A    between atoms: C_22  and  C_24
REMARK    7  A    between atoms: C_26  and  C_28
REMARK                            x       y       z     vdW  Elec       q    Type
REMARK                         _______ _______ _______ _____ _____    ______ ____
ROOT
ATOM      1  O   LIG A   1      -6.006   0.910 125.410  0.00  0.00    -0.294 OA
ATOM      2  C   LIG A   1      -7.224   0.896 125.637  0.00  0.00    +0.172 C 
ATOM      3  C   LIG A   1      -7.756   0.785 127.104  0.00  0.00    +0.152 C 
ATOM      4  C   LIG A   1      -6.793   1.448 128.086  0.00  0.00    +0.022 C 
ATOM      5  C   LIG A   1      -7.181   1.207 129.359  0.00  0.00    -0.009 C 
ATOM      6  C   LIG A   1      -8.436   1.813 129.959  0.00  0.00    +0.047 C 
ATOM      7  C   LIG A   1      -7.438  -0.240 129.173  0.00  0.00    +0.165 C 
ATOM      8  O   LIG A   1      -7.081  -1.052 130.050  0.00  0.00    -0.292 OA
ATOM      9  C   LIG A   1      -8.143  -0.554 127.854  0.00  0.00    +0.105 C 
ATOM     10  C   LIG A   1      -7.748  -2.022 127.503  0.00  0.00    +0.049 C 
ATOM     11  C   LIG A   1      -8.749  -2.945 126.720  0.00  0.00    +0.064 C 
ATOM     12  C   LIG A   1      -9.303  -4.056 127.651  0.00  0.00    +0.041 C 
ATOM     13  C   LIG A   1      -8.044  -3.707 125.549  0.00  0.00    +0.035 C 
ATOM     14  C   LIG A   1      -8.575  -3.574 124.121  0.00  0.00    +0.007 C 
ATOM     15  C   LIG A   1      -7.912  -2.545 123.240  0.00  0.00    -0.001 C 
ATOM     16  C   LIG A   1      -7.638  -1.205 123.800  0.00  0.00    -0.001 C 
ATOM     17  C   LIG A   1      -6.445  -2.030 123.332  0.00  0.00    -0.029 C 
ATOM     18  C   LIG A   1      -5.790  -1.908 121.973  0.00  0.00    +0.011 C 
ATOM     19  C   LIG A   1      -5.415  -2.098 124.438  0.00  0.00    +0.011 C 
ATOM     20  C   LIG A   1      -7.829   0.166 123.262  0.00  0.00    +0.015 C 
ATOM     21  C   LIG A   1      -8.223   1.098 124.437  0.00  0.00    +0.056 C 
ATOM     22  C   LIG A   1      -9.710   0.907 124.742  0.00  0.00    +0.015 C 
ENDROOT
BRANCH   3  23
ATOM     23  O   LIG A   1      -8.871   1.702 127.144  0.00  0.00    -0.376 OA
ATOM     24  H   LIG A   1      -9.062   1.960 126.222  0.00  0.00    +0.211 HD
ENDBRANCH   3  23
BRANCH  11  25
ATOM     25  O   LIG A   1      -9.898  -2.193 126.352  0.00  0.00    -0.389 OA
ATOM     26  H   LIG A   1     -10.694  -2.737 126.427  0.00  0.00    +0.210 HD
ENDBRANCH  11  25
TORSDOF 2
ENDMDL
MODEL 4
REMARK VINA RESULT:      -7.2      2.005      5.317
REMARK  Name = NuBBE_570
REMARK  7 active torsions:
REMARK  status: ('A' for Active; 'I' for Inactive)
REMARK    1  A    between atoms: C_3  and  O_9
REMARK    2  A    between atoms: C_5  and  C_6
REMARK    3  A    between atoms: C_13  and  O_14
REMARK    4  A    between atoms: C_13  and  C_15
REMARK    5  A    between atoms: C_22  and  C_23
REMARK    6  A    between atoms: C_22  and  C_24
REMARK    7  A    between atoms: C_26  and  C_28
REMARK                            x       y       z     vdW  Elec       q    Type
REMARK                         _______ _______ _______ _____ _____    ______ ____
ROOT
ATOM      1  O   LIG A   1      -9.693  -2.197 125.734  0.00  0.00    -0.294 OA
ATOM      2  C   LIG A   1      -8.463  -2.344 125.755  0.00  0.00    +0.172 C 
ATOM      3  C   LIG A   1      -7.691  -2.373 127.114  0.00  0.00    +0.152 C 
ATOM      4  C   LIG A   1      -8.560  -2.963 128.223  0.00  0.00    +0.022 C 
ATOM      5  C   LIG A   1      -7.943  -2.836 129.421  0.00  0.00    -0.009 C 
ATOM      6  C   LIG A   1      -6.696  -3.620 129.784  0.00  0.00    +0.047 C 
ATOM      7  C   LIG A   1      -7.535  -1.422 129.237  0.00  0.00    +0.165 C 
ATOM      8  O   LIG A   1      -7.637  -0.619 130.185  0.00  0.00    -0.292 OA
ATOM      9  C   LIG A   1      -7.018  -1.131 127.829  0.00  0.00    +0.105 C 
ATOM     10  C   LIG A   1      -7.272   0.390 127.593  0.00  0.00    +0.049 C 
ATOM     11  C   LIG A   1      -6.300   1.222 126.681  0.00  0.00    +0.064 C 
ATOM     12  C   LIG A   1      -5.464   2.209 127.540  0.00  0.00    +0.041 C 
ATOM     13  C   LIG A   1      -7.081   2.123 125.668  0.00  0.00    +0.035 C 
ATOM     14  C   LIG A   1      -6.809   1.998 124.168  0.00  0.00    +0.007 C 
ATOM     15  C   LIG A   1      -7.734   1.104 123.379  0.00  0.00    -0.001 C 
ATOM     16  C   LIG A   1      -8.085  -0.219 123.938  0.00  0.00    -0.001 C 
ATOM     17  C   LIG A   1      -9.221   0.768 123.700  0.00  0.00    -0.029 C 
ATOM     18  C   LIG A   1     -10.097   0.796 122.466  0.00  0.00    +0.011 C 
ATOM     19  C   LIG A   1     -10.041   0.906 124.963  0.00  0.00    +0.011 C 
ATOM     20  C   LIG A   1      -8.162  -1.574 123.334  0.00  0.00    +0.015 C 
ATOM     21  C   LIG A   1      -7.706  -2.606 124.399  0.00  0.00    +0.056 C 
ATOM     22  C   LIG A   1      -6.177  -2.613 124.457  0.00  0.00    +0.015 C 
ENDROOT
BRANCH   3  23
ATOM     23  O   LIG A   1      -6.712  -3.420 126.941  0.00  0.00    -0.376 OA
ATOM     24  H   LIG A   1      -7.202  -4.264 126.893  0.00  0.00    +0.211 HD
ENDBRANCH   3  23
BRANCH  11  25
ATOM     25  O   LIG A   1      -5.333   0.355 126.105  0.00  0.00    -0.389 OA
ATOM     26  H   LIG A   1      -5.284   0.493 125.149  0.00  0.00    +0.210 HD
ENDBRANCH  11  25
TORSDOF 2
ENDMDL
MODEL 5
REMARK VINA RESULT:      -7.1      5.644      8.183
REMARK  Name = NuBBE_570
REMARK  7 active torsions:
REMARK  status: ('A' for Active; 'I' for Inactive)
REMARK    1  A    between atoms: C_3  and  O_9
REMARK    2  A    between atoms: C_5  and  C_6
REMARK    3  A    between atoms: C_13  and  O_14
REMARK    4  A    between atoms: C_13  and  C_15
REMARK    5  A    between atoms: C_22  and  C_23
REMARK    6  A    between atoms: C_22  and  C_24
REMARK    7  A    between atoms: C_26  and  C_28
REMARK                            x       y       z     vdW  Elec       q    Type
REMARK                         _______ _______ _______ _____ _____    ______ ____
ROOT
ATOM      1  O   LIG A   1      -8.377   5.803 133.391  0.00  0.00    -0.294 OA
ATOM      2  C   LIG A   1      -7.911   6.066 132.273  0.00  0.00    +0.172 C 
ATOM      3  C   LIG A   1      -8.860   6.267 131.046  0.00  0.00    +0.152 C 
ATOM      4  C   LIG A   1     -10.201   6.852 131.483  0.00  0.00    +0.022 C 
ATOM      5  C   LIG A   1     -11.066   6.872 130.443  0.00  0.00    -0.009 C 
ATOM      6  C   LIG A   1     -10.889   7.794 129.251  0.00  0.00    +0.047 C 
ATOM      7  C   LIG A   1     -10.782   5.494 129.978  0.00  0.00    +0.165 C 
ATOM      8  O   LIG A   1     -11.719   4.757 129.614  0.00  0.00    -0.292 OA
ATOM      9  C   LIG A   1      -9.293   5.150 130.012  0.00  0.00    +0.105 C 
ATOM     10  C   LIG A   1      -9.223   3.598 130.161  0.00  0.00    +0.049 C 
ATOM     11  C   LIG A   1      -8.031   2.797 129.526  0.00  0.00    +0.064 C 
ATOM     12  C   LIG A   1      -8.525   1.958 128.316  0.00  0.00    +0.041 C 
ATOM     13  C   LIG A   1      -7.431   1.754 130.527  0.00  0.00    +0.035 C 
ATOM     14  C   LIG A   1      -5.941   1.793 130.869  0.00  0.00    +0.007 C 
ATOM     15  C   LIG A   1      -5.548   2.536 132.122  0.00  0.00    -0.001 C 
ATOM     16  C   LIG A   1      -6.158   3.858 132.381  0.00  0.00    -0.001 C 
ATOM     17  C   LIG A   1      -6.414   2.753 133.399  0.00  0.00    -0.029 C 
ATOM     18  C   LIG A   1      -5.621   2.553 134.674  0.00  0.00    +0.011 C 
ATOM     19  C   LIG A   1      -7.901   2.633 133.648  0.00  0.00    +0.011 C 
ATOM     20  C   LIG A   1      -5.591   5.152 132.839  0.00  0.00    +0.015 C 
ATOM     21  C   LIG A   1      -6.361   6.297 132.131  0.00  0.00    +0.056 C 
ATOM     22  C   LIG A   1      -5.816   6.452 130.709  0.00  0.00    +0.015 C 
ENDROOT
BRANCH   3  23
ATOM     23  O   LIG A   1      -8.285   7.386 130.336  0.00  0.00    -0.376 OA
ATOM     24  H   LIG A   1      -7.492   7.053 129.874  0.00  0.00    +0.211 HD
ENDBRANCH   3  23
BRANCH  11  25
ATOM     25  O   LIG A   1      -7.096   3.705 128.961  0.00  0.00    -0.389 OA
ATOM     26  H   LIG A   1      -7.368   3.958 128.068  0.00  0.00    +0.210 HD
ENDBRANCH  11  25
TORSDOF 2
ENDMDL
MODEL 6
REMARK VINA RESULT:      -7.0      6.209      8.898
REMARK  Name = NuBBE_570
REMARK  7 active torsions:
REMARK  status: ('A' for Active; 'I' for Inactive)
REMARK    1  A    between atoms: C_3  and  O_9
REMARK    2  A    between atoms: C_5  and  C_6
REMARK    3  A    between atoms: C_13  and  O_14
REMARK    4  A    between atoms: C_13  and  C_15
REMARK    5  A    between atoms: C_22  and  C_23
REMARK    6  A    between atoms: C_22  and  C_24
REMARK    7  A    between atoms: C_26  and  C_28
REMARK                            x       y       z     vdW  Elec       q    Type
REMARK                         _______ _______ _______ _____ _____    ______ ____
ROOT
ATOM      1  O   LIG A   1      -4.718   7.540 130.631  0.00  0.00    -0.294 OA
ATOM      2  C   LIG A   1      -5.127   6.412 130.317  0.00  0.00    +0.172 C 
ATOM      3  C   LIG A   1      -6.573   5.959 130.702  0.00  0.00    +0.152 C 
ATOM      4  C   LIG A   1      -7.529   7.150 130.732  0.00  0.00    +0.022 C 
ATOM      5  C   LIG A   1      -8.734   6.773 131.218  0.00  0.00    -0.009 C 
ATOM      6  C   LIG A   1      -9.672   5.855 130.457  0.00  0.00    +0.047 C 
ATOM      7  C   LIG A   1      -8.203   6.002 132.368  0.00  0.00    +0.165 C 
ATOM      8  O   LIG A   1      -8.755   6.092 133.482  0.00  0.00    -0.292 OA
ATOM      9  C   LIG A   1      -6.982   5.159 132.005  0.00  0.00    +0.105 C 
ATOM     10  C   LIG A   1      -6.183   4.979 133.335  0.00  0.00    +0.049 C 
ATOM     11  C   LIG A   1      -5.352   3.671 133.586  0.00  0.00    +0.064 C 
ATOM     12  C   LIG A   1      -6.021   2.807 134.689  0.00  0.00    +0.041 C 
ATOM     13  C   LIG A   1      -3.919   3.988 134.130  0.00  0.00    +0.035 C 
ATOM     14  C   LIG A   1      -2.688   3.461 133.391  0.00  0.00    +0.007 C 
ATOM     15  C   LIG A   1      -2.025   4.400 132.413  0.00  0.00    -0.001 C 
ATOM     16  C   LIG A   1      -2.878   5.169 131.483  0.00  0.00    -0.001 C 
ATOM     17  C   LIG A   1      -2.015   5.957 132.461  0.00  0.00    -0.029 C 
ATOM     18  C   LIG A   1      -0.653   6.535 132.140  0.00  0.00    +0.011 C 
ATOM     19  C   LIG A   1      -2.878   6.954 133.203  0.00  0.00    +0.011 C 
ATOM     20  C   LIG A   1      -2.773   5.454 130.029  0.00  0.00    +0.015 C 
ATOM     21  C   LIG A   1      -4.207   5.488 129.437  0.00  0.00    +0.056 C 
ATOM     22  C   LIG A   1      -4.685   4.051 129.218  0.00  0.00    +0.015 C 
ENDROOT
BRANCH   3  23
ATOM     23  O   LIG A   1      -7.043   5.253 129.534  0.00  0.00    -0.376 OA
ATOM     24  H   LIG A   1      -6.651   4.358 129.564  0.00  0.00    +0.211 HD
ENDBRANCH   3  23
BRANCH  11  25
ATOM     25  O   LIG A   1      -5.395   2.851 132.427  0.00  0.00    -0.389 OA
ATOM     26  H   LIG A   1      -5.529   3.392 131.636  0.00  0.00    +0.210 HD
ENDBRANCH  11  25
TORSDOF 2
ENDMDL
MODEL 7
REMARK VINA RESULT:      -7.0      2.443      5.735
REMARK  Name = NuBBE_570
REMARK  7 active torsions:
REMARK  status: ('A' for Active; 'I' for Inactive)
REMARK    1  A    between atoms: C_3  and  O_9
REMARK    2  A    between atoms: C_5  and  C_6
REMARK    3  A    between atoms: C_13  and  O_14
REMARK    4  A    between atoms: C_13  and  C_15
REMARK    5  A    between atoms: C_22  and  C_23
REMARK    6  A    between atoms: C_22  and  C_24
REMARK    7  A    between atoms: C_26  and  C_28
REMARK                            x       y       z     vdW  Elec       q    Type
REMARK                         _______ _______ _______ _____ _____    ______ ____
ROOT
ATOM      1  O   LIG A   1      -8.621   0.915 127.188  0.00  0.00    -0.294 OA
ATOM      2  C   LIG A   1      -7.648   0.332 126.687  0.00  0.00    +0.172 C 
ATOM      3  C   LIG A   1      -7.733  -1.187 126.327  0.00  0.00    +0.152 C 
ATOM      4  C   LIG A   1      -9.157  -1.575 125.931  0.00  0.00    +0.022 C 
ATOM      5  C   LIG A   1      -9.252  -2.915 125.777  0.00  0.00    -0.009 C 
ATOM      6  C   LIG A   1      -8.579  -3.657 124.637  0.00  0.00    +0.047 C 
ATOM      7  C   LIG A   1      -8.525  -3.267 127.020  0.00  0.00    +0.165 C 
ATOM      8  O   LIG A   1      -8.941  -4.196 127.740  0.00  0.00    -0.292 OA
ATOM      9  C   LIG A   1      -7.296  -2.390 127.258  0.00  0.00    +0.105 C 
ATOM     10  C   LIG A   1      -7.064  -2.399 128.801  0.00  0.00    +0.049 C 
ATOM     11  C   LIG A   1      -5.610  -2.282 129.383  0.00  0.00    +0.064 C 
ATOM     12  C   LIG A   1      -5.167  -3.630 130.012  0.00  0.00    +0.041 C 
ATOM     13  C   LIG A   1      -5.532  -1.242 130.550  0.00  0.00    +0.035 C 
ATOM     14  C   LIG A   1      -4.545  -0.077 130.470  0.00  0.00    +0.007 C 
ATOM     15  C   LIG A   1      -5.077   1.235 129.950  0.00  0.00    -0.001 C 
ATOM     16  C   LIG A   1      -5.937   1.222 128.747  0.00  0.00    -0.001 C 
ATOM     17  C   LIG A   1      -6.542   1.759 130.038  0.00  0.00    -0.029 C 
ATOM     18  C   LIG A   1      -6.609   3.223 130.418  0.00  0.00    +0.011 C 
ATOM     19  C   LIG A   1      -7.855   1.057 130.308  0.00  0.00    +0.011 C 
ATOM     20  C   LIG A   1      -5.965   2.066 127.525  0.00  0.00    +0.015 C 
ATOM     21  C   LIG A   1      -6.365   1.169 126.325  0.00  0.00    +0.056 C 
ATOM     22  C   LIG A   1      -5.136   0.380 125.867  0.00  0.00    +0.015 C 
ENDROOT
BRANCH   3  23
ATOM     23  O   LIG A   1      -7.053  -1.286 125.057  0.00  0.00    -0.376 OA
ATOM     24  H   LIG A   1      -7.600  -0.811 124.402  0.00  0.00    +0.211 HD
ENDBRANCH   3  23
BRANCH  11  25
ATOM     25  O   LIG A   1      -4.690  -2.074 128.320  0.00  0.00    -0.389 OA
ATOM     26  H   LIG A   1      -3.785  -2.231 128.622  0.00  0.00    +0.210 HD
ENDBRANCH  11  25
TORSDOF 2
ENDMDL
MODEL 8
REMARK VINA RESULT:      -7.0      5.384      8.019
REMARK  Name = NuBBE_570
REMARK  7 active torsions:
REMARK  status: ('A' for Active; 'I' for Inactive)
REMARK    1  A    between atoms: C_3  and  O_9
REMARK    2  A    between atoms: C_5  and  C_6
REMARK    3  A    between atoms: C_13  and  O_14
REMARK    4  A    between atoms: C_13  and  C_15
REMARK    5  A    between atoms: C_22  and  C_23
REMARK    6  A    between atoms: C_22  and  C_24
REMARK    7  A    between atoms: C_26  and  C_28
REMARK                            x       y       z     vdW  Elec       q    Type
REMARK                         _______ _______ _______ _____ _____    ______ ____
ROOT
ATOM      1  O   LIG A   1      -6.327   2.865 131.791  0.00  0.00    -0.294 OA
ATOM      2  C   LIG A   1      -7.425   2.500 131.346  0.00  0.00    +0.172 C 
ATOM      3  C   LIG A   1      -7.682   2.460 129.804  0.00  0.00    +0.152 C 
ATOM      4  C   LIG A   1      -6.395   2.144 129.044  0.00  0.00    +0.022 C 
ATOM      5  C   LIG A   1      -6.594   2.270 127.712  0.00  0.00    -0.009 C 
ATOM      6  C   LIG A   1      -7.465   1.311 126.922  0.00  0.00    +0.047 C 
ATOM      7  C   LIG A   1      -7.316   3.562 127.783  0.00  0.00    +0.165 C 
ATOM      8  O   LIG A   1      -7.071   4.456 126.949  0.00  0.00    -0.292 OA
ATOM      9  C   LIG A   1      -8.317   3.621 128.936  0.00  0.00    +0.105 C 
ATOM     10  C   LIG A   1      -8.468   5.135 129.286  0.00  0.00    +0.049 C 
ATOM     11  C   LIG A   1      -9.833   5.687 129.831  0.00  0.00    +0.064 C 
ATOM     12  C   LIG A   1     -10.520   6.583 128.765  0.00  0.00    +0.041 C 
ATOM     13  C   LIG A   1      -9.630   6.615 131.075  0.00  0.00    +0.035 C 
ATOM     14  C   LIG A   1     -10.351   6.303 132.387  0.00  0.00    +0.007 C 
ATOM     15  C   LIG A   1      -9.578   5.520 133.420  0.00  0.00    -0.001 C 
ATOM     16  C   LIG A   1      -8.803   4.341 132.980  0.00  0.00    -0.001 C 
ATOM     17  C   LIG A   1      -8.033   5.491 133.619  0.00  0.00    -0.029 C 
ATOM     18  C   LIG A   1      -7.638   5.560 135.079  0.00  0.00    +0.011 C 
ATOM     19  C   LIG A   1      -6.888   5.893 132.717  0.00  0.00    +0.011 C 
ATOM     20  C   LIG A   1      -8.658   2.972 133.537  0.00  0.00    +0.015 C 
ATOM     21  C   LIG A   1      -8.518   1.980 132.352  0.00  0.00    +0.056 C 
ATOM     22  C   LIG A   1      -9.907   1.701 131.775  0.00  0.00    +0.015 C 
ENDROOT
BRANCH   3  23
ATOM     23  O   LIG A   1      -8.430   1.241 129.603  0.00  0.00    -0.376 OA
ATOM     24  H   LIG A   1      -7.880   0.509 129.941  0.00  0.00    +0.211 HD
ENDBRANCH   3  23
BRANCH  11  25
ATOM     25  O   LIG A   1     -10.740   4.610 130.018  0.00  0.00    -0.389 OA
ATOM     26  H   LIG A   1     -10.292   3.764 129.880  0.00  0.00    +0.210 HD
ENDBRANCH  11  25
TORSDOF 2
ENDMDL
MODEL 9
REMARK VINA RESULT:      -6.9      6.034      8.785
REMARK  Name = NuBBE_570
REMARK  7 active torsions:
REMARK  status: ('A' for Active; 'I' for Inactive)
REMARK    1  A    between atoms: C_3  and  O_9
REMARK    2  A    between atoms: C_5  and  C_6
REMARK    3  A    between atoms: C_13  and  O_14
REMARK    4  A    between atoms: C_13  and  C_15
REMARK    5  A    between atoms: C_22  and  C_23
REMARK    6  A    between atoms: C_22  and  C_24
REMARK    7  A    between atoms: C_26  and  C_28
REMARK                            x       y       z     vdW  Elec       q    Type
REMARK                         _______ _______ _______ _____ _____    ______ ____
ROOT
ATOM      1  O   LIG A   1      -6.174   4.964 129.143  0.00  0.00    -0.294 OA
ATOM      2  C   LIG A   1      -5.837   4.163 130.028  0.00  0.00    +0.172 C 
ATOM      3  C   LIG A   1      -6.704   3.999 131.319  0.00  0.00    +0.152 C 
ATOM      4  C   LIG A   1      -8.181   4.249 131.021  0.00  0.00    +0.022 C 
ATOM      5  C   LIG A   1      -8.896   4.262 132.170  0.00  0.00    -0.009 C 
ATOM      6  C   LIG A   1      -9.127   3.015 133.002  0.00  0.00    +0.047 C 
ATOM      7  C   LIG A   1      -7.960   5.128 132.926  0.00  0.00    +0.165 C 
ATOM      8  O   LIG A   1      -8.407   6.031 133.660  0.00  0.00    -0.292 OA
ATOM      9  C   LIG A   1      -6.494   4.772 132.685  0.00  0.00    +0.105 C 
ATOM     10  C   LIG A   1      -5.691   6.083 132.954  0.00  0.00    +0.049 C 
ATOM     11  C   LIG A   1      -4.231   6.011 133.528  0.00  0.00    +0.064 C 
ATOM     12  C   LIG A   1      -4.199   6.519 134.995  0.00  0.00    +0.041 C 
ATOM     13  C   LIG A   1      -3.253   6.953 132.749  0.00  0.00    +0.035 C 
ATOM     14  C   LIG A   1      -1.986   6.381 132.113  0.00  0.00    +0.007 C 
ATOM     15  C   LIG A   1      -2.062   6.011 130.652  0.00  0.00    -0.001 C 
ATOM     16  C   LIG A   1      -3.245   5.266 130.172  0.00  0.00    -0.001 C 
ATOM     17  C   LIG A   1      -2.987   6.642 129.568  0.00  0.00    -0.029 C 
ATOM     18  C   LIG A   1      -2.260   6.889 128.264  0.00  0.00    +0.011 C 
ATOM     19  C   LIG A   1      -4.241   7.480 129.670  0.00  0.00    +0.011 C 
ATOM     20  C   LIG A   1      -3.395   4.094 129.272  0.00  0.00    +0.015 C 
ATOM     21  C   LIG A   1      -4.586   3.241 129.782  0.00  0.00    +0.056 C 
ATOM     22  C   LIG A   1      -4.114   2.393 130.966  0.00  0.00    +0.015 C 
ENDROOT
BRANCH   3  23
ATOM     23  O   LIG A   1      -6.706   2.576 131.564  0.00  0.00    -0.376 OA
ATOM     24  H   LIG A   1      -6.392   2.443 132.479  0.00  0.00    +0.211 HD
ENDBRANCH   3  23
BRANCH  11  25
ATOM     25  O   LIG A   1      -3.823   4.653 133.620  0.00  0.00    -0.389 OA
ATOM     26  H   LIG A   1      -4.552   4.065 133.379  0.00  0.00    +0.210 HD
ENDBRANCH  11  25
TORSDOF 2
ENDMDL
