MODEL 1
REMARK VINA RESULT:      -6.6      0.000      0.000
REMARK  Name = NuBBE_2332
REMARK  19 active torsions:
REMARK  status: ('A' for Active; 'I' for Inactive)
REMARK    1  A    between atoms: C_1  and  O_2
REMARK    2  A    between atoms: O_2  and  C_3
REMARK    3  A    between atoms: C_3  and  C_4
REMARK    4  A    between atoms: C_4  and  C_5
REMARK    5  A    between atoms: C_6  and  C_7
REMARK    6  A    between atoms: C_7  and  C_8
REMARK    7  A    between atoms: C_8  and  C_9
REMARK    8  A    between atoms: C_9  and  C_10
REMARK    9  A    between atoms: C_11  and  C_12
REMARK   10  A    between atoms: C_12  and  C_13
REMARK   11  A    between atoms: C_13  and  C_14
REMARK   12  A    between atoms: C_14  and  C_15
REMARK   13  A    between atoms: C_16  and  C_17
REMARK   14  A    between atoms: C_17  and  C_18
REMARK   15  A    between atoms: C_18  and  C_19
REMARK   16  A    between atoms: C_19  and  C_20
REMARK   17  A    between atoms: C_21  and  C_22
REMARK   18  A    between atoms: C_22  and  O_23
REMARK   19  A    between atoms: O_23  and  C_24
REMARK                            x       y       z     vdW  Elec       q    Type
REMARK                         _______ _______ _______ _____ _____    ______ ____
ROOT
ATOM      1  C   LIG A   1      -7.786  -3.538 124.167  0.00  0.00    +0.031 C 
ENDROOT
BRANCH   1   4
ATOM      2  C   LIG A   1      -8.447  -3.173 126.629  0.00  0.00    -0.076 C 
ATOM      3  C   LIG A   1      -8.223  -1.683 126.650  0.00  0.00    +0.038 C 
ATOM      4  C   LIG A   1      -8.297  -3.930 125.526  0.00  0.00    -0.027 C 
BRANCH   2   5
ATOM      5  C   LIG A   1      -8.855  -3.772 127.973  0.00  0.00    +0.034 C 
BRANCH   5   6
ATOM      6  C   LIG A   1      -8.325  -3.107 129.267  0.00  0.00    +0.032 C 
BRANCH   6   9
ATOM      7  C   LIG A   1      -6.295  -3.435 130.788  0.00  0.00    +0.030 C 
ATOM      8  C   LIG A   1      -7.020  -3.193 132.081  0.00  0.00    +0.051 C 
ATOM      9  C   LIG A   1      -6.869  -3.389 129.565  0.00  0.00    -0.016 C 
BRANCH   7  10
ATOM     10  C   LIG A   1      -4.858  -3.822 130.878  0.00  0.00    +0.334 C 
ATOM     11  O   LIG A   1      -4.196  -3.868 131.918  0.00  0.00    -0.245 OA
BRANCH  10  13
ATOM     12  C   LIG A   1      -3.111  -3.562 129.304  0.00  0.00    +0.280 C 
ATOM     13  O   LIG A   1      -4.397  -4.080 129.632  0.00  0.00    -0.465 OA
ENDBRANCH  10  13
ENDBRANCH   7  10
ENDBRANCH   6   9
ENDBRANCH   5   6
ENDBRANCH   2   5
ENDBRANCH   1   4
BRANCH   1  14
ATOM     14  C   LIG A   1      -8.895  -2.938 123.272  0.00  0.00    +0.034 C 
BRANCH  14  15
ATOM     15  C   LIG A   1      -8.787  -1.436 122.990  0.00  0.00    -0.076 C 
ATOM     16  C   LIG A   1      -7.410  -0.839 123.121  0.00  0.00    +0.038 C 
ATOM     17  C   LIG A   1      -9.891  -0.708 122.699  0.00  0.00    -0.027 C 
BRANCH  17  18
ATOM     18  C   LIG A   1      -9.993   0.791 122.490  0.00  0.00    +0.031 C 
BRANCH  18  19
ATOM     19  C   LIG A   1     -10.044   1.574 123.817  0.00  0.00    +0.035 C 
BRANCH  19  20
ATOM     20  C   LIG A   1      -8.950   2.604 123.966  0.00  0.00    -0.066 C 
ATOM     21  C   LIG A   1      -8.304   3.079 122.679  0.00  0.00    +0.039 C 
ATOM     22  C   LIG A   1      -8.553   3.049 125.185  0.00  0.00    +0.090 C 
BRANCH  22  23
ATOM     23  C   LIG A   1      -7.457   4.023 125.471  0.00  0.00    +0.332 C 
ATOM     24  O   LIG A   1      -7.544   5.234 125.606  0.00  0.00    -0.246 OA
BRANCH  23  25
ATOM     25  O   LIG A   1      -6.319   3.279 125.503  0.00  0.00    -0.465 OA
ATOM     26  C   LIG A   1      -5.175   3.885 124.889  0.00  0.00    +0.280 C 
ENDBRANCH  23  25
ENDBRANCH  22  23
ENDBRANCH  19  20
ENDBRANCH  18  19
ENDBRANCH  17  18
ENDBRANCH  14  15
ENDBRANCH   1  14
TORSDOF 13
ENDMDL
MODEL 2
REMARK VINA RESULT:      -6.6      3.396      7.264
REMARK  Name = NuBBE_2332
REMARK  19 active torsions:
REMARK  status: ('A' for Active; 'I' for Inactive)
REMARK    1  A    between atoms: C_1  and  O_2
REMARK    2  A    between atoms: O_2  and  C_3
REMARK    3  A    between atoms: C_3  and  C_4
REMARK    4  A    between atoms: C_4  and  C_5
REMARK    5  A    between atoms: C_6  and  C_7
REMARK    6  A    between atoms: C_7  and  C_8
REMARK    7  A    between atoms: C_8  and  C_9
REMARK    8  A    between atoms: C_9  and  C_10
REMARK    9  A    between atoms: C_11  and  C_12
REMARK   10  A    between atoms: C_12  and  C_13
REMARK   11  A    between atoms: C_13  and  C_14
REMARK   12  A    between atoms: C_14  and  C_15
REMARK   13  A    between atoms: C_16  and  C_17
REMARK   14  A    between atoms: C_17  and  C_18
REMARK   15  A    between atoms: C_18  and  C_19
REMARK   16  A    between atoms: C_19  and  C_20
REMARK   17  A    between atoms: C_21  and  C_22
REMARK   18  A    between atoms: C_22  and  O_23
REMARK   19  A    between atoms: O_23  and  C_24
REMARK                            x       y       z     vdW  Elec       q    Type
REMARK                         _______ _______ _______ _____ _____    ______ ____
ROOT
ATOM      1  C   LIG A   1      -8.602  -2.840 127.247  0.00  0.00    +0.031 C 
ENDROOT
BRANCH   1   4
ATOM      2  C   LIG A   1      -6.533  -2.099 125.904  0.00  0.00    -0.076 C 
ATOM      3  C   LIG A   1      -6.249  -0.849 126.698  0.00  0.00    +0.038 C 
ATOM      4  C   LIG A   1      -7.525  -2.957 126.202  0.00  0.00    -0.027 C 
BRANCH   2   5
ATOM      5  C   LIG A   1      -5.604  -2.318 124.712  0.00  0.00    +0.034 C 
BRANCH   5   6
ATOM      6  C   LIG A   1      -6.197  -2.206 123.286  0.00  0.00    +0.032 C 
BRANCH   6   9
ATOM      7  C   LIG A   1      -8.587  -1.326 123.060  0.00  0.00    +0.030 C 
ATOM      8  C   LIG A   1      -9.261  -2.667 123.115  0.00  0.00    +0.051 C 
ATOM      9  C   LIG A   1      -7.251  -1.133 123.127  0.00  0.00    -0.016 C 
BRANCH   7  10
ATOM     10  C   LIG A   1      -9.470  -0.125 122.997  0.00  0.00    +0.334 C 
ATOM     11  O   LIG A   1     -10.536  -0.056 122.381  0.00  0.00    -0.245 OA
BRANCH  10  13
ATOM     12  C   LIG A   1      -9.530   1.269 124.908  0.00  0.00    +0.280 C 
ATOM     13  O   LIG A   1      -8.890   0.879 123.696  0.00  0.00    -0.465 OA
ENDBRANCH  10  13
ENDBRANCH   7  10
ENDBRANCH   6   9
ENDBRANCH   5   6
ENDBRANCH   2   5
ENDBRANCH   1   4
BRANCH   1  14
ATOM     14  C   LIG A   1      -8.263  -3.628 128.533  0.00  0.00    +0.034 C 
BRANCH  14  15
ATOM     15  C   LIG A   1      -7.680  -2.806 129.687  0.00  0.00    -0.076 C 
ATOM     16  C   LIG A   1      -6.609  -3.482 130.502  0.00  0.00    +0.038 C 
ATOM     17  C   LIG A   1      -8.160  -1.570 129.965  0.00  0.00    -0.027 C 
BRANCH  17  18
ATOM     18  C   LIG A   1      -7.779  -0.657 131.115  0.00  0.00    +0.031 C 
BRANCH  18  19
ATOM     19  C   LIG A   1      -8.994   0.069 131.725  0.00  0.00    +0.035 C 
BRANCH  19  20
ATOM     20  C   LIG A   1      -8.952   1.571 131.576  0.00  0.00    -0.066 C 
ATOM     21  C   LIG A   1      -9.048   2.370 132.860  0.00  0.00    +0.039 C 
ATOM     22  C   LIG A   1      -8.863   2.162 130.357  0.00  0.00    +0.090 C 
BRANCH  22  23
ATOM     23  C   LIG A   1      -8.862   3.628 130.070  0.00  0.00    +0.332 C 
ATOM     24  O   LIG A   1      -7.965   4.432 130.274  0.00  0.00    -0.246 OA
BRANCH  23  25
ATOM     25  O   LIG A   1     -10.098   3.895 129.572  0.00  0.00    -0.465 OA
ATOM     26  C   LIG A   1     -11.006   4.518 130.489  0.00  0.00    +0.280 C 
ENDBRANCH  23  25
ENDBRANCH  22  23
ENDBRANCH  19  20
ENDBRANCH  18  19
ENDBRANCH  17  18
ENDBRANCH  14  15
ENDBRANCH   1  14
TORSDOF 13
ENDMDL
MODEL 3
REMARK VINA RESULT:      -6.5      3.331      7.017
REMARK  Name = NuBBE_2332
REMARK  19 active torsions:
REMARK  status: ('A' for Active; 'I' for Inactive)
REMARK    1  A    between atoms: C_1  and  O_2
REMARK    2  A    between atoms: O_2  and  C_3
REMARK    3  A    between atoms: C_3  and  C_4
REMARK    4  A    between atoms: C_4  and  C_5
REMARK    5  A    between atoms: C_6  and  C_7
REMARK    6  A    between atoms: C_7  and  C_8
REMARK    7  A    between atoms: C_8  and  C_9
REMARK    8  A    between atoms: C_9  and  C_10
REMARK    9  A    between atoms: C_11  and  C_12
REMARK   10  A    between atoms: C_12  and  C_13
REMARK   11  A    between atoms: C_13  and  C_14
REMARK   12  A    between atoms: C_14  and  C_15
REMARK   13  A    between atoms: C_16  and  C_17
REMARK   14  A    between atoms: C_17  and  C_18
REMARK   15  A    between atoms: C_18  and  C_19
REMARK   16  A    between atoms: C_19  and  C_20
REMARK   17  A    between atoms: C_21  and  C_22
REMARK   18  A    between atoms: C_22  and  O_23
REMARK   19  A    between atoms: O_23  and  C_24
REMARK                            x       y       z     vdW  Elec       q    Type
REMARK                         _______ _______ _______ _____ _____    ______ ____
ROOT
ATOM      1  C   LIG A   1      -9.216  -3.434 126.964  0.00  0.00    +0.031 C 
ENDROOT
BRANCH   1   4
ATOM      2  C   LIG A   1      -8.058  -3.073 124.693  0.00  0.00    -0.076 C 
ATOM      3  C   LIG A   1      -9.262  -3.368 123.835  0.00  0.00    +0.038 C 
ATOM      4  C   LIG A   1      -8.091  -3.061 126.038  0.00  0.00    -0.027 C 
BRANCH   2   5
ATOM      5  C   LIG A   1      -6.777  -2.791 123.911  0.00  0.00    +0.034 C 
BRANCH   5   6
ATOM      6  C   LIG A   1      -6.216  -1.347 123.912  0.00  0.00    +0.032 C 
BRANCH   6   9
ATOM      7  C   LIG A   1      -7.738   0.561 124.674  0.00  0.00    +0.030 C 
ATOM      8  C   LIG A   1      -7.318   0.541 126.115  0.00  0.00    +0.051 C 
ATOM      9  C   LIG A   1      -7.260  -0.269 123.721  0.00  0.00    -0.016 C 
BRANCH   7  10
ATOM     10  C   LIG A   1      -8.700   1.625 124.263  0.00  0.00    +0.334 C 
ATOM     11  O   LIG A   1      -9.375   2.311 125.034  0.00  0.00    -0.245 OA
BRANCH  10  13
ATOM     12  C   LIG A   1      -8.568   2.971 122.322  0.00  0.00    +0.280 C 
ATOM     13  O   LIG A   1      -8.732   1.684 122.911  0.00  0.00    -0.465 OA
ENDBRANCH  10  13
ENDBRANCH   7  10
ENDBRANCH   6   9
ENDBRANCH   5   6
ENDBRANCH   2   5
ENDBRANCH   1   4
BRANCH   1  14
ATOM     14  C   LIG A   1      -8.712  -4.096 128.267  0.00  0.00    +0.034 C 
BRANCH  14  15
ATOM     15  C   LIG A   1      -7.889  -3.199 129.198  0.00  0.00    -0.076 C 
ATOM     16  C   LIG A   1      -6.611  -3.796 129.727  0.00  0.00    +0.038 C 
ATOM     17  C   LIG A   1      -8.339  -1.971 129.547  0.00  0.00    -0.027 C 
BRANCH  17  18
ATOM     18  C   LIG A   1      -7.716  -0.991 130.524  0.00  0.00    +0.031 C 
BRANCH  18  19
ATOM     19  C   LIG A   1      -7.633   0.441 129.958  0.00  0.00    +0.035 C 
BRANCH  19  20
ATOM     20  C   LIG A   1      -8.664   1.387 130.524  0.00  0.00    -0.066 C 
ATOM     21  C   LIG A   1      -9.383   0.917 131.774  0.00  0.00    +0.039 C 
ATOM     22  C   LIG A   1      -8.946   2.572 129.927  0.00  0.00    +0.090 C 
BRANCH  22  23
ATOM     23  C   LIG A   1      -9.971   3.571 130.354  0.00  0.00    +0.332 C 
ATOM     24  O   LIG A   1     -11.180   3.526 130.185  0.00  0.00    -0.246 OA
BRANCH  23  25
ATOM     25  O   LIG A   1      -9.267   4.578 130.936  0.00  0.00    -0.465 OA
ATOM     26  C   LIG A   1     -10.023   5.429 131.808  0.00  0.00    +0.280 C 
ENDBRANCH  23  25
ENDBRANCH  22  23
ENDBRANCH  19  20
ENDBRANCH  18  19
ENDBRANCH  17  18
ENDBRANCH  14  15
ENDBRANCH   1  14
TORSDOF 13
ENDMDL
MODEL 4
REMARK VINA RESULT:      -6.5      5.239      9.237
REMARK  Name = NuBBE_2332
REMARK  19 active torsions:
REMARK  status: ('A' for Active; 'I' for Inactive)
REMARK    1  A    between atoms: C_1  and  O_2
REMARK    2  A    between atoms: O_2  and  C_3
REMARK    3  A    between atoms: C_3  and  C_4
REMARK    4  A    between atoms: C_4  and  C_5
REMARK    5  A    between atoms: C_6  and  C_7
REMARK    6  A    between atoms: C_7  and  C_8
REMARK    7  A    between atoms: C_8  and  C_9
REMARK    8  A    between atoms: C_9  and  C_10
REMARK    9  A    between atoms: C_11  and  C_12
REMARK   10  A    between atoms: C_12  and  C_13
REMARK   11  A    between atoms: C_13  and  C_14
REMARK   12  A    between atoms: C_14  and  C_15
REMARK   13  A    between atoms: C_16  and  C_17
REMARK   14  A    between atoms: C_17  and  C_18
REMARK   15  A    between atoms: C_18  and  C_19
REMARK   16  A    between atoms: C_19  and  C_20
REMARK   17  A    between atoms: C_21  and  C_22
REMARK   18  A    between atoms: C_22  and  O_23
REMARK   19  A    between atoms: O_23  and  C_24
REMARK                            x       y       z     vdW  Elec       q    Type
REMARK                         _______ _______ _______ _____ _____    ______ ____
ROOT
ATOM      1  C   LIG A   1      -9.693   1.529 131.813  0.00  0.00    +0.031 C 
ENDROOT
BRANCH   1   4
ATOM      2  C   LIG A   1      -8.040   3.021 133.106  0.00  0.00    -0.076 C 
ATOM      3  C   LIG A   1      -6.890   2.883 132.141  0.00  0.00    +0.038 C 
ATOM      4  C   LIG A   1      -9.248   2.464 132.905  0.00  0.00    -0.027 C 
BRANCH   2   5
ATOM      5  C   LIG A   1      -7.726   3.845 134.353  0.00  0.00    +0.034 C 
BRANCH   5   6
ATOM      6  C   LIG A   1      -7.952   5.377 134.299  0.00  0.00    +0.032 C 
BRANCH   6   9
ATOM      7  C   LIG A   1      -8.235   6.355 131.953  0.00  0.00    +0.030 C 
ATOM      8  C   LIG A   1      -6.771   6.545 131.677  0.00  0.00    +0.051 C 
ATOM      9  C   LIG A   1      -8.743   5.852 133.101  0.00  0.00    -0.016 C 
BRANCH   7  10
ATOM     10  C   LIG A   1      -9.182   6.682 130.848  0.00  0.00    +0.334 C 
ATOM     11  O   LIG A   1      -8.898   6.694 129.648  0.00  0.00    -0.245 OA
BRANCH  10  13
ATOM     12  C   LIG A   1     -11.472   7.147 130.474  0.00  0.00    +0.280 C 
ATOM     13  O   LIG A   1     -10.385   6.995 131.383  0.00  0.00    -0.465 OA
ENDBRANCH  10  13
ENDBRANCH   7  10
ENDBRANCH   6   9
ENDBRANCH   5   6
ENDBRANCH   2   5
ENDBRANCH   1   4
BRANCH   1  14
ATOM     14  C   LIG A   1      -9.100   0.110 131.975  0.00  0.00    +0.034 C 
BRANCH  14  15
ATOM     15  C   LIG A   1      -8.215  -0.381 130.825  0.00  0.00    -0.076 C 
ATOM     16  C   LIG A   1      -8.096   0.547 129.644  0.00  0.00    +0.038 C 
ATOM     17  C   LIG A   1      -7.635  -1.603 130.874  0.00  0.00    -0.027 C 
BRANCH  17  18
ATOM     18  C   LIG A   1      -6.815  -2.292 129.799  0.00  0.00    +0.031 C 
BRANCH  18  19
ATOM     19  C   LIG A   1      -7.457  -3.607 129.313  0.00  0.00    +0.035 C 
BRANCH  19  20
ATOM     20  C   LIG A   1      -8.427  -3.431 128.169  0.00  0.00    -0.066 C 
ATOM     21  C   LIG A   1      -9.718  -4.221 128.264  0.00  0.00    +0.039 C 
ATOM     22  C   LIG A   1      -8.140  -2.634 127.109  0.00  0.00    +0.090 C 
BRANCH  22  23
ATOM     23  C   LIG A   1      -8.985  -2.414 125.897  0.00  0.00    +0.332 C 
ATOM     24  O   LIG A   1      -9.792  -1.519 125.698  0.00  0.00    -0.246 OA
BRANCH  23  25
ATOM     25  O   LIG A   1      -8.702  -3.455 125.070  0.00  0.00    -0.465 OA
ATOM     26  C   LIG A   1      -8.924  -3.207 123.676  0.00  0.00    +0.280 C 
ENDBRANCH  23  25
ENDBRANCH  22  23
ENDBRANCH  19  20
ENDBRANCH  18  19
ENDBRANCH  17  18
ENDBRANCH  14  15
ENDBRANCH   1  14
TORSDOF 13
ENDMDL
MODEL 5
REMARK VINA RESULT:      -6.4      2.143      3.923
REMARK  Name = NuBBE_2332
REMARK  19 active torsions:
REMARK  status: ('A' for Active; 'I' for Inactive)
REMARK    1  A    between atoms: C_1  and  O_2
REMARK    2  A    between atoms: O_2  and  C_3
REMARK    3  A    between atoms: C_3  and  C_4
REMARK    4  A    between atoms: C_4  and  C_5
REMARK    5  A    between atoms: C_6  and  C_7
REMARK    6  A    between atoms: C_7  and  C_8
REMARK    7  A    between atoms: C_8  and  C_9
REMARK    8  A    between atoms: C_9  and  C_10
REMARK    9  A    between atoms: C_11  and  C_12
REMARK   10  A    between atoms: C_12  and  C_13
REMARK   11  A    between atoms: C_13  and  C_14
REMARK   12  A    between atoms: C_14  and  C_15
REMARK   13  A    between atoms: C_16  and  C_17
REMARK   14  A    between atoms: C_17  and  C_18
REMARK   15  A    between atoms: C_18  and  C_19
REMARK   16  A    between atoms: C_19  and  C_20
REMARK   17  A    between atoms: C_21  and  C_22
REMARK   18  A    between atoms: C_22  and  O_23
REMARK   19  A    between atoms: O_23  and  C_24
REMARK                            x       y       z     vdW  Elec       q    Type
REMARK                         _______ _______ _______ _____ _____    ______ ____
ROOT
ATOM      1  C   LIG A   1      -8.555  -3.392 128.748  0.00  0.00    +0.031 C 
ENDROOT
BRANCH   1   4
ATOM      2  C   LIG A   1      -6.309  -2.132 128.782  0.00  0.00    -0.076 C 
ATOM      3  C   LIG A   1      -6.883  -0.760 129.029  0.00  0.00    +0.038 C 
ATOM      4  C   LIG A   1      -7.057  -3.248 128.717  0.00  0.00    -0.027 C 
BRANCH   2   5
ATOM      5  C   LIG A   1      -4.794  -2.161 128.598  0.00  0.00    +0.034 C 
BRANCH   5   6
ATOM      6  C   LIG A   1      -4.015  -3.401 129.103  0.00  0.00    +0.032 C 
BRANCH   6   9
ATOM      7  C   LIG A   1      -4.319  -4.120 131.538  0.00  0.00    +0.030 C 
ATOM      8  C   LIG A   1      -5.447  -5.079 131.286  0.00  0.00    +0.051 C 
ATOM      9  C   LIG A   1      -3.705  -3.387 130.583  0.00  0.00    -0.016 C 
BRANCH   7  10
ATOM     10  C   LIG A   1      -3.803  -4.033 132.935  0.00  0.00    +0.334 C 
ATOM     11  O   LIG A   1      -2.615  -4.100 133.261  0.00  0.00    -0.245 OA
BRANCH  10  13
ATOM     12  C   LIG A   1      -4.830  -4.703 134.959  0.00  0.00    +0.280 C 
ATOM     13  O   LIG A   1      -4.852  -3.903 133.780  0.00  0.00    -0.465 OA
ENDBRANCH  10  13
ENDBRANCH   7  10
ENDBRANCH   6   9
ENDBRANCH   5   6
ENDBRANCH   2   5
ENDBRANCH   1   4
BRANCH   1  14
ATOM     14  C   LIG A   1      -9.122  -3.935 127.416  0.00  0.00    +0.034 C 
BRANCH  14  15
ATOM     15  C   LIG A   1      -8.746  -3.146 126.158  0.00  0.00    -0.076 C 
ATOM     16  C   LIG A   1      -9.215  -1.715 126.114  0.00  0.00    +0.038 C 
ATOM     17  C   LIG A   1      -8.082  -3.745 125.142  0.00  0.00    -0.027 C 
BRANCH  17  18
ATOM     18  C   LIG A   1      -7.714  -3.158 123.792  0.00  0.00    +0.031 C 
BRANCH  18  19
ATOM     19  C   LIG A   1      -6.326  -2.487 123.793  0.00  0.00    +0.035 C 
BRANCH  19  20
ATOM     20  C   LIG A   1      -6.345  -1.038 124.216  0.00  0.00    -0.066 C 
ATOM     21  C   LIG A   1      -5.479  -0.681 125.409  0.00  0.00    +0.039 C 
ATOM     22  C   LIG A   1      -7.117  -0.121 123.579  0.00  0.00    +0.090 C 
BRANCH  22  23
ATOM     23  C   LIG A   1      -7.263   1.325 123.925  0.00  0.00    +0.332 C 
ATOM     24  O   LIG A   1      -7.764   1.809 124.928  0.00  0.00    -0.246 OA
BRANCH  23  25
ATOM     25  O   LIG A   1      -6.760   2.000 122.858  0.00  0.00    -0.465 OA
ATOM     26  C   LIG A   1      -7.593   3.051 122.351  0.00  0.00    +0.280 C 
ENDBRANCH  23  25
ENDBRANCH  22  23
ENDBRANCH  19  20
ENDBRANCH  18  19
ENDBRANCH  17  18
ENDBRANCH  14  15
ENDBRANCH   1  14
TORSDOF 13
ENDMDL
MODEL 6
REMARK VINA RESULT:      -6.4      2.542      3.317
REMARK  Name = NuBBE_2332
REMARK  19 active torsions:
REMARK  status: ('A' for Active; 'I' for Inactive)
REMARK    1  A    between atoms: C_1  and  O_2
REMARK    2  A    between atoms: O_2  and  C_3
REMARK    3  A    between atoms: C_3  and  C_4
REMARK    4  A    between atoms: C_4  and  C_5
REMARK    5  A    between atoms: C_6  and  C_7
REMARK    6  A    between atoms: C_7  and  C_8
REMARK    7  A    between atoms: C_8  and  C_9
REMARK    8  A    between atoms: C_9  and  C_10
REMARK    9  A    between atoms: C_11  and  C_12
REMARK   10  A    between atoms: C_12  and  C_13
REMARK   11  A    between atoms: C_13  and  C_14
REMARK   12  A    between atoms: C_14  and  C_15
REMARK   13  A    between atoms: C_16  and  C_17
REMARK   14  A    between atoms: C_17  and  C_18
REMARK   15  A    between atoms: C_18  and  C_19
REMARK   16  A    between atoms: C_19  and  C_20
REMARK   17  A    between atoms: C_21  and  C_22
REMARK   18  A    between atoms: C_22  and  O_23
REMARK   19  A    between atoms: O_23  and  C_24
REMARK                            x       y       z     vdW  Elec       q    Type
REMARK                         _______ _______ _______ _____ _____    ______ ____
ROOT
ATOM      1  C   LIG A   1      -6.582  -2.668 124.302  0.00  0.00    +0.031 C 
ENDROOT
BRANCH   1   4
ATOM      2  C   LIG A   1      -8.160  -2.808 126.332  0.00  0.00    -0.076 C 
ATOM      3  C   LIG A   1      -8.084  -1.351 126.711  0.00  0.00    +0.038 C 
ATOM      4  C   LIG A   1      -7.538  -3.328 125.258  0.00  0.00    -0.027 C 
BRANCH   2   5
ATOM      5  C   LIG A   1      -8.998  -3.666 127.276  0.00  0.00    +0.034 C 
BRANCH   5   6
ATOM      6  C   LIG A   1      -8.744  -3.549 128.799  0.00  0.00    +0.032 C 
BRANCH   6   9
ATOM      7  C   LIG A   1      -6.622  -3.116 130.160  0.00  0.00    +0.030 C 
ATOM      8  C   LIG A   1      -7.169  -1.966 130.955  0.00  0.00    +0.051 C 
ATOM      9  C   LIG A   1      -7.311  -3.797 129.217  0.00  0.00    -0.016 C 
BRANCH   7  10
ATOM     10  C   LIG A   1      -5.243  -3.576 130.493  0.00  0.00    +0.334 C 
ATOM     11  O   LIG A   1      -4.331  -3.740 129.679  0.00  0.00    -0.245 OA
BRANCH  10  13
ATOM     12  C   LIG A   1      -5.252  -5.175 132.237  0.00  0.00    +0.280 C 
ATOM     13  O   LIG A   1      -5.173  -3.813 131.824  0.00  0.00    -0.465 OA
ENDBRANCH  10  13
ENDBRANCH   7  10
ENDBRANCH   6   9
ENDBRANCH   5   6
ENDBRANCH   2   5
ENDBRANCH   1   4
BRANCH   1  14
ATOM     14  C   LIG A   1      -7.304  -2.020 123.099  0.00  0.00    +0.034 C 
BRANCH  14  15
ATOM     15  C   LIG A   1      -7.718  -0.556 123.276  0.00  0.00    -0.076 C 
ATOM     16  C   LIG A   1      -9.194  -0.272 123.177  0.00  0.00    +0.038 C 
ATOM     17  C   LIG A   1      -6.783   0.407 123.455  0.00  0.00    -0.027 C 
BRANCH  17  18
ATOM     18  C   LIG A   1      -6.993   1.907 123.550  0.00  0.00    +0.031 C 
BRANCH  18  19
ATOM     19  C   LIG A   1      -7.097   2.581 122.167  0.00  0.00    +0.035 C 
BRANCH  19  20
ATOM     20  C   LIG A   1      -6.143   3.735 121.973  0.00  0.00    -0.066 C 
ATOM     21  C   LIG A   1      -5.547   4.326 123.236  0.00  0.00    +0.039 C 
ATOM     22  C   LIG A   1      -5.865   4.228 120.739  0.00  0.00    +0.090 C 
BRANCH  22  23
ATOM     23  C   LIG A   1      -4.983   5.389 120.416  0.00  0.00    +0.332 C 
ATOM     24  O   LIG A   1      -4.226   5.989 121.164  0.00  0.00    -0.246 OA
BRANCH  23  25
ATOM     25  O   LIG A   1      -5.235   5.676 119.111  0.00  0.00    -0.465 OA
ATOM     26  C   LIG A   1      -6.502   5.222 118.618  0.00  0.00    +0.280 C 
ENDBRANCH  23  25
ENDBRANCH  22  23
ENDBRANCH  19  20
ENDBRANCH  18  19
ENDBRANCH  17  18
ENDBRANCH  14  15
ENDBRANCH   1  14
TORSDOF 13
ENDMDL
MODEL 7
REMARK VINA RESULT:      -6.4      2.807      7.508
REMARK  Name = NuBBE_2332
REMARK  19 active torsions:
REMARK  status: ('A' for Active; 'I' for Inactive)
REMARK    1  A    between atoms: C_1  and  O_2
REMARK    2  A    between atoms: O_2  and  C_3
REMARK    3  A    between atoms: C_3  and  C_4
REMARK    4  A    between atoms: C_4  and  C_5
REMARK    5  A    between atoms: C_6  and  C_7
REMARK    6  A    between atoms: C_7  and  C_8
REMARK    7  A    between atoms: C_8  and  C_9
REMARK    8  A    between atoms: C_9  and  C_10
REMARK    9  A    between atoms: C_11  and  C_12
REMARK   10  A    between atoms: C_12  and  C_13
REMARK   11  A    between atoms: C_13  and  C_14
REMARK   12  A    between atoms: C_14  and  C_15
REMARK   13  A    between atoms: C_16  and  C_17
REMARK   14  A    between atoms: C_17  and  C_18
REMARK   15  A    between atoms: C_18  and  C_19
REMARK   16  A    between atoms: C_19  and  C_20
REMARK   17  A    between atoms: C_21  and  C_22
REMARK   18  A    between atoms: C_22  and  O_23
REMARK   19  A    between atoms: O_23  and  C_24
REMARK                            x       y       z     vdW  Elec       q    Type
REMARK                         _______ _______ _______ _____ _____    ______ ____
ROOT
ATOM      1  C   LIG A   1      -6.728  -1.384 131.955  0.00  0.00    +0.031 C 
ENDROOT
BRANCH   1   4
ATOM      2  C   LIG A   1      -8.097   0.397 130.696  0.00  0.00    -0.076 C 
ATOM      3  C   LIG A   1      -9.198   0.524 131.718  0.00  0.00    +0.038 C 
ATOM      4  C   LIG A   1      -7.023  -0.398 130.858  0.00  0.00    -0.027 C 
BRANCH   2   5
ATOM      5  C   LIG A   1      -8.295   1.244 129.441  0.00  0.00    +0.034 C 
BRANCH   5   6
ATOM      6  C   LIG A   1      -7.863   0.651 128.077  0.00  0.00    +0.032 C 
BRANCH   6   9
ATOM      7  C   LIG A   1      -8.068   1.434 125.651  0.00  0.00    +0.030 C 
ATOM      8  C   LIG A   1      -6.652   1.121 125.259  0.00  0.00    +0.051 C 
ATOM      9  C   LIG A   1      -8.586   1.234 126.883  0.00  0.00    -0.016 C 
BRANCH   7  10
ATOM     10  C   LIG A   1      -8.974   1.935 124.578  0.00  0.00    +0.334 C 
ATOM     11  O   LIG A   1     -10.193   1.751 124.532  0.00  0.00    -0.245 OA
BRANCH  10  13
ATOM     12  C   LIG A   1      -8.827   2.776 122.371  0.00  0.00    +0.280 C 
ATOM     13  O   LIG A   1      -8.234   2.591 123.653  0.00  0.00    -0.465 OA
ENDBRANCH  10  13
ENDBRANCH   7  10
ENDBRANCH   6   9
ENDBRANCH   5   6
ENDBRANCH   2   5
ENDBRANCH   1   4
BRANCH   1  14
ATOM     14  C   LIG A   1      -7.435  -2.741 131.734  0.00  0.00    +0.034 C 
BRANCH  14  15
ATOM     15  C   LIG A   1      -7.277  -3.359 130.341  0.00  0.00    -0.076 C 
ATOM     16  C   LIG A   1      -5.947  -4.006 130.055  0.00  0.00    +0.038 C 
ATOM     17  C   LIG A   1      -8.270  -3.262 129.427  0.00  0.00    -0.027 C 
BRANCH  17  18
ATOM     18  C   LIG A   1      -8.257  -3.720 127.980  0.00  0.00    +0.031 C 
BRANCH  18  19
ATOM     19  C   LIG A   1      -8.699  -2.613 127.002  0.00  0.00    +0.035 C 
BRANCH  19  20
ATOM     20  C   LIG A   1      -8.132  -2.761 125.610  0.00  0.00    -0.066 C 
ATOM     21  C   LIG A   1      -9.120  -3.142 124.526  0.00  0.00    +0.039 C 
ATOM     22  C   LIG A   1      -6.809  -2.590 125.359  0.00  0.00    +0.090 C 
BRANCH  22  23
ATOM     23  C   LIG A   1      -6.117  -2.754 124.046  0.00  0.00    +0.332 C 
ATOM     24  O   LIG A   1      -6.024  -1.941 123.140  0.00  0.00    -0.246 OA
BRANCH  23  25
ATOM     25  O   LIG A   1      -5.646  -4.030 124.048  0.00  0.00    -0.465 OA
ATOM     26  C   LIG A   1      -4.307  -4.189 123.562  0.00  0.00    +0.280 C 
ENDBRANCH  23  25
ENDBRANCH  22  23
ENDBRANCH  19  20
ENDBRANCH  18  19
ENDBRANCH  17  18
ENDBRANCH  14  15
ENDBRANCH   1  14
TORSDOF 13
ENDMDL
MODEL 8
REMARK VINA RESULT:      -6.4      2.065      7.209
REMARK  Name = NuBBE_2332
REMARK  19 active torsions:
REMARK  status: ('A' for Active; 'I' for Inactive)
REMARK    1  A    between atoms: C_1  and  O_2
REMARK    2  A    between atoms: O_2  and  C_3
REMARK    3  A    between atoms: C_3  and  C_4
REMARK    4  A    between atoms: C_4  and  C_5
REMARK    5  A    between atoms: C_6  and  C_7
REMARK    6  A    between atoms: C_7  and  C_8
REMARK    7  A    between atoms: C_8  and  C_9
REMARK    8  A    between atoms: C_9  and  C_10
REMARK    9  A    between atoms: C_11  and  C_12
REMARK   10  A    between atoms: C_12  and  C_13
REMARK   11  A    between atoms: C_13  and  C_14
REMARK   12  A    between atoms: C_14  and  C_15
REMARK   13  A    between atoms: C_16  and  C_17
REMARK   14  A    between atoms: C_17  and  C_18
REMARK   15  A    between atoms: C_18  and  C_19
REMARK   16  A    between atoms: C_19  and  C_20
REMARK   17  A    between atoms: C_21  and  C_22
REMARK   18  A    between atoms: C_22  and  O_23
REMARK   19  A    between atoms: O_23  and  C_24
REMARK                            x       y       z     vdW  Elec       q    Type
REMARK                         _______ _______ _______ _____ _____    ______ ____
ROOT
ATOM      1  C   LIG A   1      -8.363  -3.863 125.285  0.00  0.00    +0.031 C 
ENDROOT
BRANCH   1   4
ATOM      2  C   LIG A   1      -6.705  -2.403 123.962  0.00  0.00    -0.076 C 
ATOM      3  C   LIG A   1      -5.462  -2.851 124.687  0.00  0.00    +0.038 C 
ATOM      4  C   LIG A   1      -7.930  -2.900 124.214  0.00  0.00    -0.027 C 
BRANCH   2   5
ATOM      5  C   LIG A   1      -6.470  -1.322 122.910  0.00  0.00    +0.034 C 
BRANCH   5   6
ATOM      6  C   LIG A   1      -7.343  -0.043 122.961  0.00  0.00    +0.032 C 
BRANCH   6   9
ATOM      7  C   LIG A   1      -8.060   1.056 125.156  0.00  0.00    +0.030 C 
ATOM      8  C   LIG A   1      -9.470   0.538 125.145  0.00  0.00    +0.051 C 
ATOM      9  C   LIG A   1      -7.141   0.805 124.197  0.00  0.00    -0.016 C 
BRANCH   7  10
ATOM     10  C   LIG A   1      -7.636   1.843 126.350  0.00  0.00    +0.334 C 
ATOM     11  O   LIG A   1      -6.479   2.191 126.599  0.00  0.00    -0.245 OA
BRANCH  10  13
ATOM     12  C   LIG A   1      -8.554   1.916 128.529  0.00  0.00    +0.280 C 
ATOM     13  O   LIG A   1      -8.721   2.079 127.124  0.00  0.00    -0.465 OA
ENDBRANCH  10  13
ENDBRANCH   7  10
ENDBRANCH   6   9
ENDBRANCH   5   6
ENDBRANCH   2   5
ENDBRANCH   1   4
BRANCH   1  14
ATOM     14  C   LIG A   1      -9.170  -3.172 126.408  0.00  0.00    +0.034 C 
BRANCH  14  15
ATOM     15  C   LIG A   1      -8.376  -2.785 127.660  0.00  0.00    -0.076 C 
ATOM     16  C   LIG A   1      -7.491  -1.573 127.530  0.00  0.00    +0.038 C 
ATOM     17  C   LIG A   1      -8.445  -3.541 128.781  0.00  0.00    -0.027 C 
BRANCH  17  18
ATOM     18  C   LIG A   1      -7.664  -3.372 130.071  0.00  0.00    +0.031 C 
BRANCH  18  19
ATOM     19  C   LIG A   1      -6.278  -4.046 130.019  0.00  0.00    +0.035 C 
BRANCH  19  20
ATOM     20  C   LIG A   1      -5.123  -3.074 129.993  0.00  0.00    -0.066 C 
ATOM     21  C   LIG A   1      -3.963  -3.444 129.091  0.00  0.00    +0.039 C 
ATOM     22  C   LIG A   1      -5.120  -1.953 130.759  0.00  0.00    +0.090 C 
BRANCH  22  23
ATOM     23  C   LIG A   1      -4.026  -0.941 130.862  0.00  0.00    +0.332 C 
ATOM     24  O   LIG A   1      -3.881   0.078 130.204  0.00  0.00    -0.246 OA
BRANCH  23  25
ATOM     25  O   LIG A   1      -3.187  -1.419 131.819  0.00  0.00    -0.465 OA
ATOM     26  C   LIG A   1      -3.475  -0.987 133.156  0.00  0.00    +0.280 C 
ENDBRANCH  23  25
ENDBRANCH  22  23
ENDBRANCH  19  20
ENDBRANCH  18  19
ENDBRANCH  17  18
ENDBRANCH  14  15
ENDBRANCH   1  14
TORSDOF 13
ENDMDL
MODEL 9
REMARK VINA RESULT:      -6.3      2.613      3.546
REMARK  Name = NuBBE_2332
REMARK  19 active torsions:
REMARK  status: ('A' for Active; 'I' for Inactive)
REMARK    1  A    between atoms: C_1  and  O_2
REMARK    2  A    between atoms: O_2  and  C_3
REMARK    3  A    between atoms: C_3  and  C_4
REMARK    4  A    between atoms: C_4  and  C_5
REMARK    5  A    between atoms: C_6  and  C_7
REMARK    6  A    between atoms: C_7  and  C_8
REMARK    7  A    between atoms: C_8  and  C_9
REMARK    8  A    between atoms: C_9  and  C_10
REMARK    9  A    between atoms: C_11  and  C_12
REMARK   10  A    between atoms: C_12  and  C_13
REMARK   11  A    between atoms: C_13  and  C_14
REMARK   12  A    between atoms: C_14  and  C_15
REMARK   13  A    between atoms: C_16  and  C_17
REMARK   14  A    between atoms: C_17  and  C_18
REMARK   15  A    between atoms: C_18  and  C_19
REMARK   16  A    between atoms: C_19  and  C_20
REMARK   17  A    between atoms: C_21  and  C_22
REMARK   18  A    between atoms: C_22  and  O_23
REMARK   19  A    between atoms: O_23  and  C_24
REMARK                            x       y       z     vdW  Elec       q    Type
REMARK                         _______ _______ _______ _____ _____    ______ ____
ROOT
ATOM      1  C   LIG A   1      -6.204  -3.565 123.963  0.00  0.00    +0.031 C 
ENDROOT
BRANCH   1   4
ATOM      2  C   LIG A   1      -8.478  -3.432 125.163  0.00  0.00    -0.076 C 
ATOM      3  C   LIG A   1      -9.318  -3.252 123.924  0.00  0.00    +0.038 C 
ATOM      4  C   LIG A   1      -7.145  -3.614 125.135  0.00  0.00    -0.027 C 
BRANCH   2   5
ATOM      5  C   LIG A   1      -9.261  -3.382 126.473  0.00  0.00    +0.034 C 
BRANCH   5   6
ATOM      6  C   LIG A   1      -8.639  -4.040 127.728  0.00  0.00    +0.032 C 
BRANCH   6   9
ATOM      7  C   LIG A   1      -7.509  -2.746 129.624  0.00  0.00    +0.030 C 
ATOM      8  C   LIG A   1      -6.102  -3.131 129.268  0.00  0.00    +0.051 C 
ATOM      9  C   LIG A   1      -8.610  -3.152 128.953  0.00  0.00    -0.016 C 
BRANCH   7  10
ATOM     10  C   LIG A   1      -7.686  -1.791 130.756  0.00  0.00    +0.334 C 
ATOM     11  O   LIG A   1      -7.448  -2.040 131.941  0.00  0.00    -0.245 OA
BRANCH  10  13
ATOM     12  C   LIG A   1      -7.243   0.422 130.045  0.00  0.00    +0.280 C 
ATOM     13  O   LIG A   1      -8.180  -0.628 130.272  0.00  0.00    -0.465 OA
ENDBRANCH  10  13
ENDBRANCH   7  10
ENDBRANCH   6   9
ENDBRANCH   5   6
ENDBRANCH   2   5
ENDBRANCH   1   4
BRANCH   1  14
ATOM     14  C   LIG A   1      -5.262  -2.340 124.014  0.00  0.00    +0.034 C 
BRANCH  14  15
ATOM     15  C   LIG A   1      -5.827  -1.090 124.696  0.00  0.00    -0.076 C 
ATOM     16  C   LIG A   1      -5.439  -0.895 126.138  0.00  0.00    +0.038 C 
ATOM     17  C   LIG A   1      -6.667  -0.262 124.031  0.00  0.00    -0.027 C 
BRANCH  17  18
ATOM     18  C   LIG A   1      -7.396   0.956 124.566  0.00  0.00    +0.031 C 
BRANCH  18  19
ATOM     19  C   LIG A   1      -7.774   1.958 123.457  0.00  0.00    +0.035 C 
BRANCH  19  20
ATOM     20  C   LIG A   1      -6.690   2.960 123.138  0.00  0.00    -0.066 C 
ATOM     21  C   LIG A   1      -5.960   3.551 124.327  0.00  0.00    +0.039 C 
ATOM     22  C   LIG A   1      -6.414   3.326 121.860  0.00  0.00    +0.090 C 
BRANCH  22  23
ATOM     23  C   LIG A   1      -5.407   4.335 121.415  0.00  0.00    +0.332 C 
ATOM     24  O   LIG A   1      -4.567   4.907 122.092  0.00  0.00    -0.246 OA
BRANCH  23  25
ATOM     25  O   LIG A   1      -5.654   4.525 120.091  0.00  0.00    -0.465 OA
ATOM     26  C   LIG A   1      -6.985   4.207 119.665  0.00  0.00    +0.280 C 
ENDBRANCH  23  25
ENDBRANCH  22  23
ENDBRANCH  19  20
ENDBRANCH  18  19
ENDBRANCH  17  18
ENDBRANCH  14  15
ENDBRANCH   1  14
TORSDOF 13
ENDMDL
