MODEL 1
REMARK VINA RESULT:      -8.2      0.000      0.000
REMARK  Name = NuBBE_2358
REMARK  14 active torsions:
REMARK  status: ('A' for Active; 'I' for Inactive)
REMARK    1  A    between atoms: C_1  and  C_2
REMARK    2  A    between atoms: C_3  and  O_31
REMARK    3  A    between atoms: C_11  and  C_12
REMARK    4  A    between atoms: C_17  and  C_19
REMARK    5  A    between atoms: C_19  and  C_21
REMARK    6  A    between atoms: C_19  and  C_22
REMARK    7  A    between atoms: C_22  and  C_23
REMARK    8  A    between atoms: C_23  and  C_24
REMARK    9  A    between atoms: C_24  and  C_25
REMARK   10  A    between atoms: C_24  and  C_27
REMARK   11  A    between atoms: C_25  and  C_26
REMARK   12  A    between atoms: C_27  and  C_28
REMARK   13  A    between atoms: C_27  and  C_29
REMARK   14  A    between atoms: C_33  and  O_34
REMARK                            x       y       z     vdW  Elec       q    Type
REMARK                         _______ _______ _______ _____ _____    ______ ____
ROOT
ATOM      1  C   LIG A   1      -6.141  -1.811 125.680  0.00  0.00    +0.014 C 
ATOM      2  C   LIG A   1      -7.667  -1.509 125.772  0.00  0.00    +0.007 C 
ATOM      3  C   LIG A   1      -8.211  -0.916 124.428  0.00  0.00    +0.131 C 
ATOM      4  C   LIG A   1      -7.621   0.474 124.185  0.00  0.00    +0.166 C 
ATOM      5  C   LIG A   1      -7.858   1.496 125.276  0.00  0.00    +0.081 C 
ATOM      6  C   LIG A   1      -7.328   0.919 126.583  0.00  0.00    +0.003 C 
ATOM      7  C   LIG A   1      -7.958  -0.473 126.925  0.00  0.00    +0.002 C 
ATOM      8  C   LIG A   1      -7.613  -1.012 128.349  0.00  0.00    +0.005 C 
ATOM      9  C   LIG A   1      -7.454   0.043 129.456  0.00  0.00    +0.007 C 
ATOM     10  C   LIG A   1      -6.662   1.280 128.984  0.00  0.00    -0.026 C 
ATOM     11  C   LIG A   1      -5.219   0.896 128.512  0.00  0.00    +0.012 C 
ATOM     12  C   LIG A   1      -7.494   1.834 127.794  0.00  0.00    -0.001 C 
ATOM     13  C   LIG A   1      -7.063   3.285 127.716  0.00  0.00    +0.004 C 
ATOM     14  C   LIG A   1      -7.125   3.701 129.187  0.00  0.00    +0.004 C 
ATOM     15  C   LIG A   1      -6.682   2.469 130.024  0.00  0.00    -0.002 C 
ATOM     16  O   LIG A   1      -7.029   0.778 123.130  0.00  0.00    -0.294 OA
ATOM     17  C   LIG A   1      -8.013  -1.886 123.255  0.00  0.00    +0.074 C 
ATOM     18  C   LIG A   1      -8.692  -3.232 123.528  0.00  0.00    +0.118 C 
ATOM     19  C   LIG A   1      -8.314  -3.843 124.879  0.00  0.00    +0.032 C 
ATOM     20  C   LIG A   1      -8.405  -2.851 126.048  0.00  0.00    +0.012 C 
ENDROOT
BRANCH  15  21
ATOM     21  C   LIG A   1      -5.369   2.681 130.852  0.00  0.00    -0.010 C 
ATOM     22  C   LIG A   1      -5.666   2.505 132.355  0.00  0.00    +0.008 C 
BRANCH  21  23
ATOM     23  C   LIG A   1      -4.689   4.071 130.613  0.00  0.00    +0.004 C 
BRANCH  23  24
ATOM     24  C   LIG A   1      -3.389   3.995 129.773  0.00  0.00    +0.004 C 
BRANCH  24  25
ATOM     25  C   LIG A   1      -3.466   4.525 128.306  0.00  0.00    -0.009 C 
BRANCH  25  26
ATOM     26  C   LIG A   1      -3.274   3.444 127.189  0.00  0.00    -0.014 C 
ATOM     27  C   LIG A   1      -4.061   3.765 125.906  0.00  0.00    +0.007 C 
ATOM     28  C   LIG A   1      -1.821   3.120 126.826  0.00  0.00    +0.007 C 
ENDBRANCH  25  26
BRANCH  25  29
ATOM     29  C   LIG A   1      -2.536   5.761 128.118  0.00  0.00    +0.000 C 
ATOM     30  C   LIG A   1      -2.068   6.395 129.427  0.00  0.00    +0.004 C 
ENDBRANCH  25  29
ENDBRANCH  24  25
ENDBRANCH  23  24
ENDBRANCH  21  23
ENDBRANCH  15  21
BRANCH   3  31
ATOM     31  O   LIG A   1      -9.634  -0.686 124.550  0.00  0.00    -0.380 OA
ATOM     32  H   LIG A   1      -9.894  -1.000 125.439  0.00  0.00    +0.211 HD
ENDBRANCH   3  31
BRANCH  18  33
ATOM     33  O   LIG A   1     -10.111  -3.072 123.473  0.00  0.00    -0.392 OA
ATOM     34  H   LIG A   1     -10.506  -3.881 123.856  0.00  0.00    +0.210 HD
ENDBRANCH  18  33
TORSDOF 8
ENDMDL
MODEL 2
REMARK VINA RESULT:      -8.0      4.132      7.451
REMARK  Name = NuBBE_2358
REMARK  14 active torsions:
REMARK  status: ('A' for Active; 'I' for Inactive)
REMARK    1  A    between atoms: C_1  and  C_2
REMARK    2  A    between atoms: C_3  and  O_31
REMARK    3  A    between atoms: C_11  and  C_12
REMARK    4  A    between atoms: C_17  and  C_19
REMARK    5  A    between atoms: C_19  and  C_21
REMARK    6  A    between atoms: C_19  and  C_22
REMARK    7  A    between atoms: C_22  and  C_23
REMARK    8  A    between atoms: C_23  and  C_24
REMARK    9  A    between atoms: C_24  and  C_25
REMARK   10  A    between atoms: C_24  and  C_27
REMARK   11  A    between atoms: C_25  and  C_26
REMARK   12  A    between atoms: C_27  and  C_28
REMARK   13  A    between atoms: C_27  and  C_29
REMARK   14  A    between atoms: C_33  and  O_34
REMARK                            x       y       z     vdW  Elec       q    Type
REMARK                         _______ _______ _______ _____ _____    ______ ____
ROOT
ATOM      1  C   LIG A   1      -7.766  -0.775 130.596  0.00  0.00    +0.014 C 
ATOM      2  C   LIG A   1      -7.008  -2.130 130.728  0.00  0.00    +0.007 C 
ATOM      3  C   LIG A   1      -5.530  -1.910 131.200  0.00  0.00    +0.131 C 
ATOM      4  C   LIG A   1      -4.727  -1.196 130.112  0.00  0.00    +0.166 C 
ATOM      5  C   LIG A   1      -4.689  -1.876 128.761  0.00  0.00    +0.081 C 
ATOM      6  C   LIG A   1      -6.126  -2.089 128.302  0.00  0.00    +0.003 C 
ATOM      7  C   LIG A   1      -6.979  -2.887 129.345  0.00  0.00    +0.002 C 
ATOM      8  C   LIG A   1      -8.393  -3.315 128.839  0.00  0.00    +0.005 C 
ATOM      9  C   LIG A   1      -8.506  -3.656 127.345  0.00  0.00    +0.007 C 
ATOM     10  C   LIG A   1      -7.734  -2.664 126.451  0.00  0.00    -0.026 C 
ATOM     11  C   LIG A   1      -8.263  -1.200 126.624  0.00  0.00    +0.012 C 
ATOM     12  C   LIG A   1      -6.264  -2.772 126.943  0.00  0.00    -0.001 C 
ATOM     13  C   LIG A   1      -5.465  -2.273 125.756  0.00  0.00    +0.004 C 
ATOM     14  C   LIG A   1      -6.132  -3.023 124.602  0.00  0.00    +0.004 C 
ATOM     15  C   LIG A   1      -7.645  -3.120 124.941  0.00  0.00    -0.002 C 
ATOM     16  O   LIG A   1      -4.088  -0.146 130.327  0.00  0.00    -0.294 OA
ATOM     17  C   LIG A   1      -5.466  -1.220 132.570  0.00  0.00    +0.074 C 
ATOM     18  C   LIG A   1      -6.223  -2.025 133.632  0.00  0.00    +0.118 C 
ATOM     19  C   LIG A   1      -7.649  -2.393 133.214  0.00  0.00    +0.032 C 
ATOM     20  C   LIG A   1      -7.741  -2.986 131.801  0.00  0.00    +0.012 C 
ENDROOT
BRANCH  15  21
ATOM     21  C   LIG A   1      -8.588  -2.370 123.940  0.00  0.00    -0.010 C 
ATOM     22  C   LIG A   1      -9.762  -3.288 123.542  0.00  0.00    +0.008 C 
BRANCH  21  23
ATOM     23  C   LIG A   1      -7.863  -1.862 122.648  0.00  0.00    +0.004 C 
BRANCH  23  24
ATOM     24  C   LIG A   1      -7.078  -0.542 122.851  0.00  0.00    +0.004 C 
BRANCH  24  25
ATOM     25  C   LIG A   1      -7.745   0.544 123.753  0.00  0.00    -0.009 C 
BRANCH  25  26
ATOM     26  C   LIG A   1      -9.104   1.116 123.225  0.00  0.00    -0.014 C 
ATOM     27  C   LIG A   1     -10.173   1.225 124.327  0.00  0.00    +0.007 C 
ATOM     28  C   LIG A   1      -9.012   2.448 122.474  0.00  0.00    +0.007 C 
ENDBRANCH  25  26
BRANCH  25  29
ATOM     29  C   LIG A   1      -6.721   1.659 124.122  0.00  0.00    +0.000 C 
ATOM     30  C   LIG A   1      -6.166   1.550 125.541  0.00  0.00    +0.004 C 
ENDBRANCH  25  29
ENDBRANCH  24  25
ENDBRANCH  23  24
ENDBRANCH  21  23
ENDBRANCH  15  21
BRANCH   3  31
ATOM     31  O   LIG A   1      -4.879  -3.194 131.343  0.00  0.00    -0.380 OA
ATOM     32  H   LIG A   1      -4.148  -3.069 131.981  0.00  0.00    +0.211 HD
ENDBRANCH   3  31
BRANCH  18  33
ATOM     33  O   LIG A   1      -5.503  -3.222 133.929  0.00  0.00    -0.392 OA
ATOM     34  H   LIG A   1      -5.910  -3.609 134.731  0.00  0.00    +0.210 HD
ENDBRANCH  18  33
TORSDOF 8
ENDMDL
MODEL 3
REMARK VINA RESULT:      -7.7      3.268      8.303
REMARK  Name = NuBBE_2358
REMARK  14 active torsions:
REMARK  status: ('A' for Active; 'I' for Inactive)
REMARK    1  A    between atoms: C_1  and  C_2
REMARK    2  A    between atoms: C_3  and  O_31
REMARK    3  A    between atoms: C_11  and  C_12
REMARK    4  A    between atoms: C_17  and  C_19
REMARK    5  A    between atoms: C_19  and  C_21
REMARK    6  A    between atoms: C_19  and  C_22
REMARK    7  A    between atoms: C_22  and  C_23
REMARK    8  A    between atoms: C_23  and  C_24
REMARK    9  A    between atoms: C_24  and  C_25
REMARK   10  A    between atoms: C_24  and  C_27
REMARK   11  A    between atoms: C_25  and  C_26
REMARK   12  A    between atoms: C_27  and  C_28
REMARK   13  A    between atoms: C_27  and  C_29
REMARK   14  A    between atoms: C_33  and  O_34
REMARK                            x       y       z     vdW  Elec       q    Type
REMARK                         _______ _______ _______ _____ _____    ______ ____
ROOT
ATOM      1  C   LIG A   1      -2.919   3.612 128.109  0.00  0.00    +0.014 C 
ATOM      2  C   LIG A   1      -4.014   4.712 128.244  0.00  0.00    +0.007 C 
ATOM      3  C   LIG A   1      -4.393   4.954 129.745  0.00  0.00    +0.131 C 
ATOM      4  C   LIG A   1      -5.099   3.725 130.318  0.00  0.00    +0.166 C 
ATOM      5  C   LIG A   1      -6.346   3.275 129.589  0.00  0.00    +0.081 C 
ATOM      6  C   LIG A   1      -5.977   3.038 128.130  0.00  0.00    +0.003 C 
ATOM      7  C   LIG A   1      -5.320   4.295 127.464  0.00  0.00    +0.002 C 
ATOM      8  C   LIG A   1      -5.114   4.181 125.920  0.00  0.00    +0.005 C 
ATOM      9  C   LIG A   1      -6.177   3.381 125.150  0.00  0.00    +0.007 C 
ATOM     10  C   LIG A   1      -6.587   2.086 125.880  0.00  0.00    -0.026 C 
ATOM     11  C   LIG A   1      -5.364   1.130 126.091  0.00  0.00    +0.012 C 
ATOM     12  C   LIG A   1      -7.136   2.577 127.248  0.00  0.00    -0.001 C 
ATOM     13  C   LIG A   1      -8.023   1.433 127.696  0.00  0.00    +0.004 C 
ATOM     14  C   LIG A   1      -8.806   1.136 126.416  0.00  0.00    +0.004 C 
ATOM     15  C   LIG A   1      -7.833   1.367 125.227  0.00  0.00    -0.002 C 
ATOM     16  O   LIG A   1      -4.715   3.153 131.358  0.00  0.00    -0.294 OA
ATOM     17  C   LIG A   1      -3.184   5.416 130.571  0.00  0.00    +0.074 C 
ATOM     18  C   LIG A   1      -2.570   6.694 129.990  0.00  0.00    +0.118 C 
ATOM     19  C   LIG A   1      -2.270   6.598 128.492  0.00  0.00    +0.032 C 
ATOM     20  C   LIG A   1      -3.436   6.036 127.666  0.00  0.00    +0.012 C 
ENDROOT
BRANCH  15  21
ATOM     21  C   LIG A   1      -7.523   0.087 124.378  0.00  0.00    -0.010 C 
ATOM     22  C   LIG A   1      -7.138   0.495 122.942  0.00  0.00    +0.008 C 
BRANCH  21  23
ATOM     23  C   LIG A   1      -8.704  -0.940 124.330  0.00  0.00    +0.004 C 
BRANCH  23  24
ATOM     24  C   LIG A   1      -8.244  -2.416 124.224  0.00  0.00    +0.004 C 
BRANCH  24  25
ATOM     25  C   LIG A   1      -7.390  -2.975 125.406  0.00  0.00    -0.009 C 
BRANCH  25  26
ATOM     26  C   LIG A   1      -7.883  -2.580 126.839  0.00  0.00    -0.014 C 
ATOM     27  C   LIG A   1      -8.795  -3.647 127.471  0.00  0.00    +0.007 C 
ATOM     28  C   LIG A   1      -6.783  -2.198 127.834  0.00  0.00    +0.007 C 
ENDBRANCH  25  26
BRANCH  25  29
ATOM     29  C   LIG A   1      -5.877  -2.675 125.183  0.00  0.00    +0.000 C 
ATOM     30  C   LIG A   1      -5.238  -3.495 124.063  0.00  0.00    +0.004 C 
ENDBRANCH  25  29
ENDBRANCH  24  25
ENDBRANCH  23  24
ENDBRANCH  21  23
ENDBRANCH  15  21
BRANCH   3  31
ATOM     31  O   LIG A   1      -5.384   6.006 129.823  0.00  0.00    -0.380 OA
ATOM     32  H   LIG A   1      -4.909   6.820 130.086  0.00  0.00    +0.211 HD
ENDBRANCH   3  31
BRANCH  18  33
ATOM     33  O   LIG A   1      -3.453   7.794 130.216  0.00  0.00    -0.392 OA
ATOM     34  H   LIG A   1      -3.834   7.676 131.110  0.00  0.00    +0.210 HD
ENDBRANCH  18  33
TORSDOF 8
ENDMDL
MODEL 4
REMARK VINA RESULT:      -7.6      3.791      6.029
REMARK  Name = NuBBE_2358
REMARK  14 active torsions:
REMARK  status: ('A' for Active; 'I' for Inactive)
REMARK    1  A    between atoms: C_1  and  C_2
REMARK    2  A    between atoms: C_3  and  O_31
REMARK    3  A    between atoms: C_11  and  C_12
REMARK    4  A    between atoms: C_17  and  C_19
REMARK    5  A    between atoms: C_19  and  C_21
REMARK    6  A    between atoms: C_19  and  C_22
REMARK    7  A    between atoms: C_22  and  C_23
REMARK    8  A    between atoms: C_23  and  C_24
REMARK    9  A    between atoms: C_24  and  C_25
REMARK   10  A    between atoms: C_24  and  C_27
REMARK   11  A    between atoms: C_25  and  C_26
REMARK   12  A    between atoms: C_27  and  C_28
REMARK   13  A    between atoms: C_27  and  C_29
REMARK   14  A    between atoms: C_33  and  O_34
REMARK                            x       y       z     vdW  Elec       q    Type
REMARK                         _______ _______ _______ _____ _____    ______ ____
ROOT
ATOM      1  C   LIG A   1      -7.049  -0.847 124.374  0.00  0.00    +0.014 C 
ATOM      2  C   LIG A   1      -8.528  -0.842 124.864  0.00  0.00    +0.007 C 
ATOM      3  C   LIG A   1      -9.116   0.610 124.880  0.00  0.00    +0.131 C 
ATOM      4  C   LIG A   1      -8.420   1.452 125.949  0.00  0.00    +0.166 C 
ATOM      5  C   LIG A   1      -8.475   0.911 127.361  0.00  0.00    +0.081 C 
ATOM      6  C   LIG A   1      -7.902  -0.500 127.346  0.00  0.00    +0.003 C 
ATOM      7  C   LIG A   1      -8.631  -1.435 126.322  0.00  0.00    +0.002 C 
ATOM      8  C   LIG A   1      -8.229  -2.941 126.413  0.00  0.00    +0.005 C 
ATOM      9  C   LIG A   1      -7.887  -3.470 127.816  0.00  0.00    +0.007 C 
ATOM     10  C   LIG A   1      -7.021  -2.483 128.626  0.00  0.00    -0.026 C 
ATOM     11  C   LIG A   1      -5.661  -2.184 127.909  0.00  0.00    +0.012 C 
ATOM     12  C   LIG A   1      -7.887  -1.195 128.706  0.00  0.00    -0.001 C 
ATOM     13  C   LIG A   1      -7.329  -0.478 129.920  0.00  0.00    +0.004 C 
ATOM     14  C   LIG A   1      -7.239  -1.620 130.933  0.00  0.00    +0.004 C 
ATOM     15  C   LIG A   1      -6.849  -2.898 130.140  0.00  0.00    -0.002 C 
ATOM     16  O   LIG A   1      -7.885   2.551 125.697  0.00  0.00    -0.294 OA
ATOM     17  C   LIG A   1      -9.101   1.246 123.483  0.00  0.00    +0.074 C 
ATOM     18  C   LIG A   1      -9.880   0.393 122.476  0.00  0.00    +0.118 C 
ATOM     19  C   LIG A   1      -9.457  -1.078 122.468  0.00  0.00    +0.032 C 
ATOM     20  C   LIG A   1      -9.364  -1.698 123.870  0.00  0.00    +0.012 C 
ENDROOT
BRANCH  15  21
ATOM     21  C   LIG A   1      -5.462  -3.512 130.532  0.00  0.00    -0.010 C 
ATOM     22  C   LIG A   1      -5.636  -4.998 130.907  0.00  0.00    +0.008 C 
BRANCH  21  23
ATOM     23  C   LIG A   1      -4.746  -2.758 131.702  0.00  0.00    +0.004 C 
BRANCH  23  24
ATOM     24  C   LIG A   1      -4.560  -3.618 132.978  0.00  0.00    +0.004 C 
BRANCH  24  25
ATOM     25  C   LIG A   1      -5.325  -3.153 134.258  0.00  0.00    -0.009 C 
BRANCH  25  26
ATOM     26  C   LIG A   1      -6.565  -4.025 134.654  0.00  0.00    -0.014 C 
ATOM     27  C   LIG A   1      -7.857  -3.581 133.944  0.00  0.00    +0.007 C 
ATOM     28  C   LIG A   1      -6.389  -5.537 134.490  0.00  0.00    +0.007 C 
ENDBRANCH  25  26
BRANCH  25  29
ATOM     29  C   LIG A   1      -5.654  -1.632 134.182  0.00  0.00    +0.000 C 
ATOM     30  C   LIG A   1      -5.636  -0.922 135.534  0.00  0.00    +0.004 C 
ENDBRANCH  25  29
ENDBRANCH  24  25
ENDBRANCH  23  24
ENDBRANCH  21  23
ENDBRANCH  15  21
BRANCH   3  31
ATOM     31  O   LIG A   1     -10.498   0.560 125.306  0.00  0.00    -0.380 OA
ATOM     32  H   LIG A   1     -10.869  -0.276 124.958  0.00  0.00    +0.211 HD
ENDBRANCH   3  31
BRANCH  18  33
ATOM     33  O   LIG A   1     -11.278   0.472 122.763  0.00  0.00    -0.392 OA
ATOM     34  H   LIG A   1     -11.432  -0.045 123.580  0.00  0.00    +0.210 HD
ENDBRANCH  18  33
TORSDOF 8
ENDMDL
MODEL 5
REMARK VINA RESULT:      -7.6      2.901      4.700
REMARK  Name = NuBBE_2358
REMARK  14 active torsions:
REMARK  status: ('A' for Active; 'I' for Inactive)
REMARK    1  A    between atoms: C_1  and  C_2
REMARK    2  A    between atoms: C_3  and  O_31
REMARK    3  A    between atoms: C_11  and  C_12
REMARK    4  A    between atoms: C_17  and  C_19
REMARK    5  A    between atoms: C_19  and  C_21
REMARK    6  A    between atoms: C_19  and  C_22
REMARK    7  A    between atoms: C_22  and  C_23
REMARK    8  A    between atoms: C_23  and  C_24
REMARK    9  A    between atoms: C_24  and  C_25
REMARK   10  A    between atoms: C_24  and  C_27
REMARK   11  A    between atoms: C_25  and  C_26
REMARK   12  A    between atoms: C_27  and  C_28
REMARK   13  A    between atoms: C_27  and  C_29
REMARK   14  A    between atoms: C_33  and  O_34
REMARK                            x       y       z     vdW  Elec       q    Type
REMARK                         _______ _______ _______ _____ _____    ______ ____
ROOT
ATOM      1  C   LIG A   1      -6.597  -2.514 125.435  0.00  0.00    +0.014 C 
ATOM      2  C   LIG A   1      -8.087  -2.089 125.606  0.00  0.00    +0.007 C 
ATOM      3  C   LIG A   1      -8.329  -0.639 125.065  0.00  0.00    +0.131 C 
ATOM      4  C   LIG A   1      -7.600   0.382 125.940  0.00  0.00    +0.166 C 
ATOM      5  C   LIG A   1      -7.954   0.367 127.411  0.00  0.00    +0.081 C 
ATOM      6  C   LIG A   1      -7.718  -1.043 127.937  0.00  0.00    +0.003 C 
ATOM      7  C   LIG A   1      -8.504  -2.127 127.126  0.00  0.00    +0.002 C 
ATOM      8  C   LIG A   1      -8.467  -3.560 127.747  0.00  0.00    +0.005 C 
ATOM      9  C   LIG A   1      -8.433  -3.634 129.282  0.00  0.00    +0.007 C 
ATOM     10  C   LIG A   1      -7.476  -2.597 129.904  0.00  0.00    -0.026 C 
ATOM     11  C   LIG A   1      -6.005  -2.797 129.407  0.00  0.00    +0.012 C 
ATOM     12  C   LIG A   1      -8.032  -1.229 129.420  0.00  0.00    -0.001 C 
ATOM     13  C   LIG A   1      -7.484  -0.252 130.442  0.00  0.00    +0.004 C 
ATOM     14  C   LIG A   1      -7.782  -0.982 131.752  0.00  0.00    +0.004 C 
ATOM     15  C   LIG A   1      -7.595  -2.500 131.477  0.00  0.00    -0.002 C 
ATOM     16  O   LIG A   1      -6.804   1.220 125.473  0.00  0.00    -0.294 OA
ATOM     17  C   LIG A   1      -7.994  -0.525 123.571  0.00  0.00    +0.074 C 
ATOM     18  C   LIG A   1      -8.813  -1.519 122.741  0.00  0.00    +0.118 C 
ATOM     19  C   LIG A   1      -8.736  -2.956 123.263  0.00  0.00    +0.032 C 
ATOM     20  C   LIG A   1      -8.963  -3.073 124.778  0.00  0.00    +0.012 C 
ENDROOT
BRANCH  15  21
ATOM     21  C   LIG A   1      -6.443  -3.175 132.296  0.00  0.00    -0.010 C 
ATOM     22  C   LIG A   1      -7.042  -4.117 133.360  0.00  0.00    +0.008 C 
BRANCH  21  23
ATOM     23  C   LIG A   1      -5.478  -2.154 132.988  0.00  0.00    +0.004 C 
BRANCH  23  24
ATOM     24  C   LIG A   1      -4.026  -2.201 132.448  0.00  0.00    +0.004 C 
BRANCH  24  25
ATOM     25  C   LIG A   1      -3.289  -0.834 132.286  0.00  0.00    -0.009 C 
BRANCH  25  26
ATOM     26  C   LIG A   1      -2.545  -0.316 133.563  0.00  0.00    -0.014 C 
ATOM     27  C   LIG A   1      -3.411   0.627 134.417  0.00  0.00    +0.007 C 
ATOM     28  C   LIG A   1      -1.940  -1.401 134.461  0.00  0.00    +0.007 C 
ENDBRANCH  25  26
BRANCH  25  29
ATOM     29  C   LIG A   1      -4.239   0.234 131.665  0.00  0.00    +0.000 C 
ATOM     30  C   LIG A   1      -4.049   0.437 130.163  0.00  0.00    +0.004 C 
ENDBRANCH  25  29
ENDBRANCH  24  25
ENDBRANCH  23  24
ENDBRANCH  21  23
ENDBRANCH  15  21
BRANCH   3  31
ATOM     31  O   LIG A   1      -9.728  -0.303 125.211  0.00  0.00    -0.380 OA
ATOM     32  H   LIG A   1     -10.116  -0.319 124.313  0.00  0.00    +0.211 HD
ENDBRANCH   3  31
BRANCH  18  33
ATOM     33  O   LIG A   1     -10.181  -1.109 122.715  0.00  0.00    -0.392 OA
ATOM     34  H   LIG A   1     -10.406  -0.805 123.618  0.00  0.00    +0.210 HD
ENDBRANCH  18  33
TORSDOF 8
ENDMDL
MODEL 6
REMARK VINA RESULT:      -7.5      2.985      4.927
REMARK  Name = NuBBE_2358
REMARK  14 active torsions:
REMARK  status: ('A' for Active; 'I' for Inactive)
REMARK    1  A    between atoms: C_1  and  C_2
REMARK    2  A    between atoms: C_3  and  O_31
REMARK    3  A    between atoms: C_11  and  C_12
REMARK    4  A    between atoms: C_17  and  C_19
REMARK    5  A    between atoms: C_19  and  C_21
REMARK    6  A    between atoms: C_19  and  C_22
REMARK    7  A    between atoms: C_22  and  C_23
REMARK    8  A    between atoms: C_23  and  C_24
REMARK    9  A    between atoms: C_24  and  C_25
REMARK   10  A    between atoms: C_24  and  C_27
REMARK   11  A    between atoms: C_25  and  C_26
REMARK   12  A    between atoms: C_27  and  C_28
REMARK   13  A    between atoms: C_27  and  C_29
REMARK   14  A    between atoms: C_33  and  O_34
REMARK                            x       y       z     vdW  Elec       q    Type
REMARK                         _______ _______ _______ _____ _____    ______ ____
ROOT
ATOM      1  C   LIG A   1      -7.036  -0.830 124.423  0.00  0.00    +0.014 C 
ATOM      2  C   LIG A   1      -8.521  -0.835 124.893  0.00  0.00    +0.007 C 
ATOM      3  C   LIG A   1      -9.118   0.614 124.907  0.00  0.00    +0.131 C 
ATOM      4  C   LIG A   1      -8.440   1.455 125.989  0.00  0.00    +0.166 C 
ATOM      5  C   LIG A   1      -8.512   0.908 127.398  0.00  0.00    +0.081 C 
ATOM      6  C   LIG A   1      -7.931  -0.501 127.385  0.00  0.00    +0.003 C 
ATOM      7  C   LIG A   1      -8.641  -1.434 126.347  0.00  0.00    +0.002 C 
ATOM      8  C   LIG A   1      -8.232  -2.939 126.437  0.00  0.00    +0.005 C 
ATOM      9  C   LIG A   1      -7.906  -3.472 127.841  0.00  0.00    +0.007 C 
ATOM     10  C   LIG A   1      -7.057  -2.484 128.667  0.00  0.00    -0.026 C 
ATOM     11  C   LIG A   1      -5.689  -2.175 127.970  0.00  0.00    +0.012 C 
ATOM     12  C   LIG A   1      -7.931  -1.201 128.742  0.00  0.00    -0.001 C 
ATOM     13  C   LIG A   1      -7.393  -0.487 129.966  0.00  0.00    +0.004 C 
ATOM     14  C   LIG A   1      -7.311  -1.633 130.975  0.00  0.00    +0.004 C 
ATOM     15  C   LIG A   1      -6.903  -2.905 130.182  0.00  0.00    -0.002 C 
ATOM     16  O   LIG A   1      -7.908   2.558 125.749  0.00  0.00    -0.294 OA
ATOM     17  C   LIG A   1      -9.087   1.256 123.513  0.00  0.00    +0.074 C 
ATOM     18  C   LIG A   1      -9.848   0.403 122.492  0.00  0.00    +0.118 C 
ATOM     19  C   LIG A   1      -9.417  -1.065 122.484  0.00  0.00    +0.032 C 
ATOM     20  C   LIG A   1      -9.340  -1.691 123.884  0.00  0.00    +0.012 C 
ENDROOT
BRANCH  15  21
ATOM     21  C   LIG A   1      -5.519  -3.513 130.590  0.00  0.00    -0.010 C 
ATOM     22  C   LIG A   1      -5.661  -5.033 130.811  0.00  0.00    +0.008 C 
BRANCH  21  23
ATOM     23  C   LIG A   1      -4.891  -2.857 131.865  0.00  0.00    +0.004 C 
BRANCH  23  24
ATOM     24  C   LIG A   1      -3.783  -1.819 131.553  0.00  0.00    +0.004 C 
BRANCH  24  25
ATOM     25  C   LIG A   1      -3.770  -0.520 132.418  0.00  0.00    -0.009 C 
BRANCH  25  26
ATOM     26  C   LIG A   1      -4.594  -0.589 133.749  0.00  0.00    -0.014 C 
ATOM     27  C   LIG A   1      -3.753  -0.237 134.989  0.00  0.00    +0.007 C 
ATOM     28  C   LIG A   1      -5.890   0.228 133.766  0.00  0.00    +0.007 C 
ENDBRANCH  25  26
BRANCH  25  29
ATOM     29  C   LIG A   1      -4.125   0.724 131.550  0.00  0.00    +0.000 C 
ATOM     30  C   LIG A   1      -4.130   0.454 130.047  0.00  0.00    +0.004 C 
ENDBRANCH  25  29
ENDBRANCH  24  25
ENDBRANCH  23  24
ENDBRANCH  21  23
ENDBRANCH  15  21
BRANCH   3  31
ATOM     31  O   LIG A   1     -10.505   0.555 125.314  0.00  0.00    -0.380 OA
ATOM     32  H   LIG A   1     -10.520   0.135 126.198  0.00  0.00    +0.211 HD
ENDBRANCH   3  31
BRANCH  18  33
ATOM     33  O   LIG A   1     -11.249   0.474 122.761  0.00  0.00    -0.392 OA
ATOM     34  H   LIG A   1     -11.695   0.664 121.910  0.00  0.00    +0.210 HD
ENDBRANCH  18  33
TORSDOF 8
ENDMDL
MODEL 7
REMARK VINA RESULT:      -7.5      4.114      6.109
REMARK  Name = NuBBE_2358
REMARK  14 active torsions:
REMARK  status: ('A' for Active; 'I' for Inactive)
REMARK    1  A    between atoms: C_1  and  C_2
REMARK    2  A    between atoms: C_3  and  O_31
REMARK    3  A    between atoms: C_11  and  C_12
REMARK    4  A    between atoms: C_17  and  C_19
REMARK    5  A    between atoms: C_19  and  C_21
REMARK    6  A    between atoms: C_19  and  C_22
REMARK    7  A    between atoms: C_22  and  C_23
REMARK    8  A    between atoms: C_23  and  C_24
REMARK    9  A    between atoms: C_24  and  C_25
REMARK   10  A    between atoms: C_24  and  C_27
REMARK   11  A    between atoms: C_25  and  C_26
REMARK   12  A    between atoms: C_27  and  C_28
REMARK   13  A    between atoms: C_27  and  C_29
REMARK   14  A    between atoms: C_33  and  O_34
REMARK                            x       y       z     vdW  Elec       q    Type
REMARK                         _______ _______ _______ _____ _____    ______ ____
ROOT
ATOM      1  C   LIG A   1      -6.790  -2.916 125.296  0.00  0.00    +0.014 C 
ATOM      2  C   LIG A   1      -8.172  -2.228 125.505  0.00  0.00    +0.007 C 
ATOM      3  C   LIG A   1      -8.175  -0.771 124.926  0.00  0.00    +0.131 C 
ATOM      4  C   LIG A   1      -7.242   0.124 125.742  0.00  0.00    +0.166 C 
ATOM      5  C   LIG A   1      -7.534   0.211 127.225  0.00  0.00    +0.081 C 
ATOM      6  C   LIG A   1      -7.530  -1.205 127.787  0.00  0.00    +0.003 C 
ATOM      7  C   LIG A   1      -8.529  -2.152 127.039  0.00  0.00    +0.002 C 
ATOM      8  C   LIG A   1      -8.721  -3.552 127.704  0.00  0.00    +0.005 C 
ATOM      9  C   LIG A   1      -8.640  -3.593 129.238  0.00  0.00    +0.007 C 
ATOM     10  C   LIG A   1      -7.490  -2.727 129.793  0.00  0.00    -0.026 C 
ATOM     11  C   LIG A   1      -6.098  -3.200 129.251  0.00  0.00    +0.012 C 
ATOM     12  C   LIG A   1      -7.813  -1.295 129.286  0.00  0.00    -0.001 C 
ATOM     13  C   LIG A   1      -7.059  -0.406 130.255  0.00  0.00    +0.004 C 
ATOM     14  C   LIG A   1      -7.430  -1.038 131.598  0.00  0.00    +0.004 C 
ATOM     15  C   LIG A   1      -7.526  -2.571 131.365  0.00  0.00    -0.002 C 
ATOM     16  O   LIG A   1      -6.329   0.796 125.222  0.00  0.00    -0.294 OA
ATOM     17  C   LIG A   1      -7.886  -0.757 123.419  0.00  0.00    +0.074 C 
ATOM     18  C   LIG A   1      -8.901  -1.610 122.651  0.00  0.00    +0.118 C 
ATOM     19  C   LIG A   1      -9.059  -3.023 123.215  0.00  0.00    +0.032 C 
ATOM     20  C   LIG A   1      -9.242  -3.060 124.739  0.00  0.00    +0.012 C 
ENDROOT
BRANCH  15  21
ATOM     21  C   LIG A   1      -6.480  -3.420 132.165  0.00  0.00    -0.010 C 
ATOM     22  C   LIG A   1      -7.075  -3.833 133.526  0.00  0.00    +0.008 C 
BRANCH  21  23
ATOM     23  C   LIG A   1      -5.114  -2.689 132.392  0.00  0.00    +0.004 C 
BRANCH  23  24
ATOM     24  C   LIG A   1      -3.878  -3.610 132.234  0.00  0.00    +0.004 C 
BRANCH  24  25
ATOM     25  C   LIG A   1      -3.305  -4.250 133.537  0.00  0.00    -0.009 C 
BRANCH  25  26
ATOM     26  C   LIG A   1      -3.662  -5.759 133.759  0.00  0.00    -0.014 C 
ATOM     27  C   LIG A   1      -2.434  -6.615 134.119  0.00  0.00    +0.007 C 
ATOM     28  C   LIG A   1      -4.783  -6.032 134.766  0.00  0.00    +0.007 C 
ENDBRANCH  25  26
BRANCH  25  29
ATOM     29  C   LIG A   1      -3.630  -3.363 134.776  0.00  0.00    +0.000 C 
ATOM     30  C   LIG A   1      -2.452  -2.523 135.267  0.00  0.00    +0.004 C 
ENDBRANCH  25  29
ENDBRANCH  24  25
ENDBRANCH  23  24
ENDBRANCH  21  23
ENDBRANCH  15  21
BRANCH   3  31
ATOM     31  O   LIG A   1      -9.486  -0.187 125.111  0.00  0.00    -0.380 OA
ATOM     32  H   LIG A   1      -9.571   0.016 126.064  0.00  0.00    +0.211 HD
ENDBRANCH   3  31
BRANCH  18  33
ATOM     33  O   LIG A   1     -10.174  -0.962 122.660  0.00  0.00    -0.392 OA
ATOM     34  H   LIG A   1     -10.429  -0.819 121.725  0.00  0.00    +0.210 HD
ENDBRANCH  18  33
TORSDOF 8
ENDMDL
MODEL 8
REMARK VINA RESULT:      -7.4      6.358      9.426
REMARK  Name = NuBBE_2358
REMARK  14 active torsions:
REMARK  status: ('A' for Active; 'I' for Inactive)
REMARK    1  A    between atoms: C_1  and  C_2
REMARK    2  A    between atoms: C_3  and  O_31
REMARK    3  A    between atoms: C_11  and  C_12
REMARK    4  A    between atoms: C_17  and  C_19
REMARK    5  A    between atoms: C_19  and  C_21
REMARK    6  A    between atoms: C_19  and  C_22
REMARK    7  A    between atoms: C_22  and  C_23
REMARK    8  A    between atoms: C_23  and  C_24
REMARK    9  A    between atoms: C_24  and  C_25
REMARK   10  A    between atoms: C_24  and  C_27
REMARK   11  A    between atoms: C_25  and  C_26
REMARK   12  A    between atoms: C_27  and  C_28
REMARK   13  A    between atoms: C_27  and  C_29
REMARK   14  A    between atoms: C_33  and  O_34
REMARK                            x       y       z     vdW  Elec       q    Type
REMARK                         _______ _______ _______ _____ _____    ______ ____
ROOT
ATOM      1  C   LIG A   1      -5.365  -4.191 134.730  0.00  0.00    +0.014 C 
ATOM      2  C   LIG A   1      -4.078  -4.662 133.988  0.00  0.00    +0.007 C 
ATOM      3  C   LIG A   1      -2.816  -3.882 134.491  0.00  0.00    +0.131 C 
ATOM      4  C   LIG A   1      -2.904  -2.411 134.082  0.00  0.00    +0.166 C 
ATOM      5  C   LIG A   1      -3.060  -2.142 132.601  0.00  0.00    +0.081 C 
ATOM      6  C   LIG A   1      -4.288  -2.900 132.112  0.00  0.00    +0.003 C 
ATOM      7  C   LIG A   1      -4.217  -4.431 132.435  0.00  0.00    +0.002 C 
ATOM      8  C   LIG A   1      -5.344  -5.288 131.776  0.00  0.00    +0.005 C 
ATOM      9  C   LIG A   1      -5.832  -4.823 130.394  0.00  0.00    +0.007 C 
ATOM     10  C   LIG A   1      -6.003  -3.292 130.310  0.00  0.00    -0.026 C 
ATOM     11  C   LIG A   1      -7.042  -2.770 131.358  0.00  0.00    +0.012 C 
ATOM     12  C   LIG A   1      -4.587  -2.734 130.624  0.00  0.00    -0.001 C 
ATOM     13  C   LIG A   1      -4.615  -1.351 130.004  0.00  0.00    +0.004 C 
ATOM     14  C   LIG A   1      -5.233  -1.644 128.636  0.00  0.00    +0.004 C 
ATOM     15  C   LIG A   1      -6.280  -2.773 128.844  0.00  0.00    -0.002 C 
ATOM     16  O   LIG A   1      -2.797  -1.477 134.902  0.00  0.00    -0.294 OA
ATOM     17  C   LIG A   1      -2.575  -4.094 135.993  0.00  0.00    +0.074 C 
ATOM     18  C   LIG A   1      -2.418  -5.581 136.325  0.00  0.00    +0.118 C 
ATOM     19  C   LIG A   1      -3.550  -6.451 135.772  0.00  0.00    +0.032 C 
ATOM     20  C   LIG A   1      -3.874  -6.173 134.296  0.00  0.00    +0.012 C 
ENDROOT
BRANCH  15  21
ATOM     21  C   LIG A   1      -7.758  -2.359 128.529  0.00  0.00    -0.010 C 
ATOM     22  C   LIG A   1      -8.559  -3.595 128.070  0.00  0.00    +0.008 C 
BRANCH  21  23
ATOM     23  C   LIG A   1      -7.882  -1.228 127.454  0.00  0.00    +0.004 C 
BRANCH  23  24
ATOM     24  C   LIG A   1      -8.346  -1.734 126.065  0.00  0.00    +0.004 C 
BRANCH  24  25
ATOM     25  C   LIG A   1      -7.252  -2.350 125.137  0.00  0.00    -0.009 C 
BRANCH  25  26
ATOM     26  C   LIG A   1      -6.492  -1.331 124.222  0.00  0.00    -0.014 C 
ATOM     27  C   LIG A   1      -6.254  -1.869 122.800  0.00  0.00    +0.007 C 
ATOM     28  C   LIG A   1      -7.110   0.069 124.138  0.00  0.00    +0.007 C 
ENDBRANCH  25  26
BRANCH  25  29
ATOM     29  C   LIG A   1      -7.822  -3.566 124.346  0.00  0.00    +0.000 C 
ATOM     30  C   LIG A   1      -9.301  -3.438 123.988  0.00  0.00    +0.004 C 
ENDBRANCH  25  29
ENDBRANCH  24  25
ENDBRANCH  23  24
ENDBRANCH  21  23
ENDBRANCH  15  21
BRANCH   3  31
ATOM     31  O   LIG A   1      -1.644  -4.376 133.802  0.00  0.00    -0.380 OA
ATOM     32  H   LIG A   1      -1.312  -5.136 134.322  0.00  0.00    +0.211 HD
ENDBRANCH   3  31
BRANCH  18  33
ATOM     33  O   LIG A   1      -1.174  -6.057 135.810  0.00  0.00    -0.392 OA
ATOM     34  H   LIG A   1      -0.595  -5.277 135.692  0.00  0.00    +0.210 HD
ENDBRANCH  18  33
TORSDOF 8
ENDMDL
MODEL 9
REMARK VINA RESULT:      -7.4      4.135      7.875
REMARK  Name = NuBBE_2358
REMARK  14 active torsions:
REMARK  status: ('A' for Active; 'I' for Inactive)
REMARK    1  A    between atoms: C_1  and  C_2
REMARK    2  A    between atoms: C_3  and  O_31
REMARK    3  A    between atoms: C_11  and  C_12
REMARK    4  A    between atoms: C_17  and  C_19
REMARK    5  A    between atoms: C_19  and  C_21
REMARK    6  A    between atoms: C_19  and  C_22
REMARK    7  A    between atoms: C_22  and  C_23
REMARK    8  A    between atoms: C_23  and  C_24
REMARK    9  A    between atoms: C_24  and  C_25
REMARK   10  A    between atoms: C_24  and  C_27
REMARK   11  A    between atoms: C_25  and  C_26
REMARK   12  A    between atoms: C_27  and  C_28
REMARK   13  A    between atoms: C_27  and  C_29
REMARK   14  A    between atoms: C_33  and  O_34
REMARK                            x       y       z     vdW  Elec       q    Type
REMARK                         _______ _______ _______ _____ _____    ______ ____
ROOT
ATOM      1  C   LIG A   1      -7.080   4.294 130.770  0.00  0.00    +0.014 C 
ATOM      2  C   LIG A   1      -8.573   4.000 130.432  0.00  0.00    +0.007 C 
ATOM      3  C   LIG A   1      -9.437   3.884 131.734  0.00  0.00    +0.131 C 
ATOM      4  C   LIG A   1      -9.036   2.640 132.528  0.00  0.00    +0.166 C 
ATOM      5  C   LIG A   1      -9.126   1.323 131.788  0.00  0.00    +0.081 C 
ATOM      6  C   LIG A   1      -8.285   1.436 130.523  0.00  0.00    +0.003 C 
ATOM      7  C   LIG A   1      -8.704   2.651 129.628  0.00  0.00    +0.002 C 
ATOM      8  C   LIG A   1      -8.021   2.692 128.224  0.00  0.00    +0.005 C 
ATOM      9  C   LIG A   1      -7.726   1.332 127.571  0.00  0.00    +0.007 C 
ATOM     10  C   LIG A   1      -7.162   0.304 128.573  0.00  0.00    -0.026 C 
ATOM     11  C   LIG A   1      -5.823   0.799 129.217  0.00  0.00    +0.012 C 
ATOM     12  C   LIG A   1      -8.271   0.179 129.654  0.00  0.00    -0.001 C 
ATOM     13  C   LIG A   1      -7.994  -1.174 130.279  0.00  0.00    +0.004 C 
ATOM     14  C   LIG A   1      -7.782  -2.044 129.039  0.00  0.00    +0.004 C 
ATOM     15  C   LIG A   1      -7.066  -1.158 127.983  0.00  0.00    -0.002 C 
ATOM     16  O   LIG A   1      -8.708   2.686 133.730  0.00  0.00    -0.294 OA
ATOM     17  C   LIG A   1      -9.406   5.180 132.556  0.00  0.00    +0.074 C 
ATOM     18  C   LIG A   1      -9.893   6.374 131.729  0.00  0.00    +0.118 C 
ATOM     19  C   LIG A   1      -9.187   6.506 130.377  0.00  0.00    +0.032 C 
ATOM     20  C   LIG A   1      -9.115   5.190 129.590  0.00  0.00    +0.012 C 
ENDROOT
BRANCH  15  21
ATOM     21  C   LIG A   1      -5.632  -1.646 127.584  0.00  0.00    -0.010 C 
ATOM     22  C   LIG A   1      -5.583  -1.943 126.072  0.00  0.00    +0.008 C 
BRANCH  21  23
ATOM     23  C   LIG A   1      -5.151  -2.907 128.379  0.00  0.00    +0.004 C 
BRANCH  23  24
ATOM     24  C   LIG A   1      -4.042  -2.605 129.418  0.00  0.00    +0.004 C 
BRANCH  24  25
ATOM     25  C   LIG A   1      -4.366  -2.928 130.910  0.00  0.00    -0.009 C 
BRANCH  25  26
ATOM     26  C   LIG A   1      -5.633  -3.819 131.146  0.00  0.00    -0.014 C 
ATOM     27  C   LIG A   1      -5.333  -5.324 131.026  0.00  0.00    +0.007 C 
ATOM     28  C   LIG A   1      -6.393  -3.555 132.450  0.00  0.00    +0.007 C 
ENDBRANCH  25  26
BRANCH  25  29
ATOM     29  C   LIG A   1      -4.374  -1.626 131.767  0.00  0.00    +0.000 C 
ATOM     30  C   LIG A   1      -3.111  -1.421 132.600  0.00  0.00    +0.004 C 
ENDBRANCH  25  29
ENDBRANCH  24  25
ENDBRANCH  23  24
ENDBRANCH  21  23
ENDBRANCH  15  21
BRANCH   3  31
ATOM     31  O   LIG A   1     -10.817   3.648 131.370  0.00  0.00    -0.380 OA
ATOM     32  H   LIG A   1     -10.990   2.697 131.524  0.00  0.00    +0.211 HD
ENDBRANCH   3  31
BRANCH  18  33
ATOM     33  O   LIG A   1     -11.300   6.261 131.507  0.00  0.00    -0.392 OA
ATOM     34  H   LIG A   1     -11.582   5.405 131.889  0.00  0.00    +0.210 HD
ENDBRANCH  18  33
TORSDOF 8
ENDMDL
