MODEL 1
REMARK VINA RESULT:      -7.4      0.000      0.000
REMARK  Name = NuBBE_2022
REMARK  4 active torsions:
REMARK  status: ('A' for Active; 'I' for Inactive)
REMARK    1  A    between atoms: C_4  and  O_5
REMARK    2  A    between atoms: C_7  and  O_8
REMARK    3  A    between atoms: C_12  and  C_14
REMARK    4  A    between atoms: C_17  and  O_18
REMARK                            x       y       z     vdW  Elec       q    Type
REMARK                         _______ _______ _______ _____ _____    ______ ____
ROOT
ATOM      1  O   LIG A   1      -9.970   1.621 123.861  0.00  0.00    -0.292 OA
ATOM      2  C   LIG A   1      -8.889   2.181 123.692  0.00  0.00    +0.174 C 
ATOM      3  C   LIG A   1      -7.840   2.080 124.724  0.00  0.00    +0.101 A 
ATOM      4  C   LIG A   1      -8.051   1.382 125.918  0.00  0.00    +0.134 A 
ATOM      5  C   LIG A   1      -7.056   1.341 126.893  0.00  0.00    +0.091 A 
ATOM      6  C   LIG A   1      -5.858   2.012 126.668  0.00  0.00    +0.124 A 
ATOM      7  C   LIG A   1      -5.636   2.712 125.485  0.00  0.00    +0.092 A 
ATOM      8  C   LIG A   1      -6.625   2.731 124.502  0.00  0.00    +0.139 A 
ATOM      9  O   LIG A   1      -6.342   3.431 123.358  0.00  0.00    -0.483 OA
ATOM     10  C   LIG A   1      -7.096   2.970 122.225  0.00  0.00    +0.211 C 
ATOM     11  C   LIG A   1      -8.592   3.045 122.500  0.00  0.00    +0.129 C 
ENDROOT
BRANCH  10  12
ATOM     12  C   LIG A   1      -6.711   3.815 121.027  0.00  0.00    -0.007 A 
ATOM     13  C   LIG A   1      -7.597   3.958 119.946  0.00  0.00    +0.011 A 
ATOM     14  C   LIG A   1      -7.256   4.741 118.840  0.00  0.00    +0.046 A 
ATOM     15  C   LIG A   1      -6.025   5.387 118.813  0.00  0.00    +0.117 A 
ATOM     16  C   LIG A   1      -5.133   5.262 119.869  0.00  0.00    +0.046 A 
ATOM     17  C   LIG A   1      -5.473   4.476 120.972  0.00  0.00    +0.011 A 
BRANCH  15  18
ATOM     18  O   LIG A   1      -5.652   6.160 117.754  0.00  0.00    -0.507 OA
ATOM     19  H   LIG A   1      -5.952   7.070 117.913  0.00  0.00    +0.292 HD
ENDBRANCH  15  18
ENDBRANCH  10  12
BRANCH   4  20
ATOM     20  O   LIG A   1      -9.216   0.721 126.201  0.00  0.00    -0.506 OA
ATOM     21  H   LIG A   1      -9.775   1.310 126.757  0.00  0.00    +0.292 HD
ENDBRANCH   4  20
BRANCH   6  22
ATOM     22  O   LIG A   1      -4.858   2.006 127.595  0.00  0.00    -0.506 OA
ATOM     23  H   LIG A   1      -4.140   2.584 127.287  0.00  0.00    +0.292 HD
ENDBRANCH   6  22
TORSDOF 4
ENDMDL
MODEL 2
REMARK VINA RESULT:      -7.4      1.593      6.388
REMARK  Name = NuBBE_2022
REMARK  4 active torsions:
REMARK  status: ('A' for Active; 'I' for Inactive)
REMARK    1  A    between atoms: C_4  and  O_5
REMARK    2  A    between atoms: C_7  and  O_8
REMARK    3  A    between atoms: C_12  and  C_14
REMARK    4  A    between atoms: C_17  and  O_18
REMARK                            x       y       z     vdW  Elec       q    Type
REMARK                         _______ _______ _______ _____ _____    ______ ____
ROOT
ATOM      1  O   LIG A   1      -9.365   2.521 122.138  0.00  0.00    -0.292 OA
ATOM      2  C   LIG A   1      -8.197   2.853 122.325  0.00  0.00    +0.174 C 
ATOM      3  C   LIG A   1      -7.481   3.636 121.301  0.00  0.00    +0.101 A 
ATOM      4  C   LIG A   1      -8.090   3.990 120.091  0.00  0.00    +0.134 A 
ATOM      5  C   LIG A   1      -7.374   4.693 119.124  0.00  0.00    +0.091 A 
ATOM      6  C   LIG A   1      -6.046   5.025 119.371  0.00  0.00    +0.124 A 
ATOM      7  C   LIG A   1      -5.427   4.675 120.569  0.00  0.00    +0.092 A 
ATOM      8  C   LIG A   1      -6.154   3.993 121.544  0.00  0.00    +0.139 A 
ATOM      9  O   LIG A   1      -5.490   3.686 122.703  0.00  0.00    -0.483 OA
ATOM     10  C   LIG A   1      -6.376   3.516 123.821  0.00  0.00    +0.211 C 
ATOM     11  C   LIG A   1      -7.411   2.436 123.536  0.00  0.00    +0.129 C 
ENDROOT
BRANCH  10  12
ATOM     12  C   LIG A   1      -5.539   3.173 125.038  0.00  0.00    -0.007 A 
ATOM     13  C   LIG A   1      -5.809   2.010 125.778  0.00  0.00    +0.011 A 
ATOM     14  C   LIG A   1      -5.039   1.679 126.897  0.00  0.00    +0.046 A 
ATOM     15  C   LIG A   1      -3.993   2.512 127.277  0.00  0.00    +0.117 A 
ATOM     16  C   LIG A   1      -3.706   3.666 126.561  0.00  0.00    +0.046 A 
ATOM     17  C   LIG A   1      -4.478   3.998 125.446  0.00  0.00    +0.011 A 
BRANCH  15  18
ATOM     18  O   LIG A   1      -3.217   2.228 128.361  0.00  0.00    -0.507 OA
ATOM     19  H   LIG A   1      -2.373   1.862 128.052  0.00  0.00    +0.292 HD
ENDBRANCH  15  18
ENDBRANCH  10  12
BRANCH   4  20
ATOM     20  O   LIG A   1      -9.386   3.674 119.788  0.00  0.00    -0.506 OA
ATOM     21  H   LIG A   1      -9.893   3.615 120.630  0.00  0.00    +0.292 HD
ENDBRANCH   4  20
BRANCH   6  22
ATOM     22  O   LIG A   1      -5.303   5.705 118.451  0.00  0.00    -0.506 OA
ATOM     23  H   LIG A   1      -5.895   6.269 117.924  0.00  0.00    +0.292 HD
ENDBRANCH   6  22
TORSDOF 4
ENDMDL
MODEL 3
REMARK VINA RESULT:      -7.4      7.503     10.222
REMARK  Name = NuBBE_2022
REMARK  4 active torsions:
REMARK  status: ('A' for Active; 'I' for Inactive)
REMARK    1  A    between atoms: C_4  and  O_5
REMARK    2  A    between atoms: C_7  and  O_8
REMARK    3  A    between atoms: C_12  and  C_14
REMARK    4  A    between atoms: C_17  and  O_18
REMARK                            x       y       z     vdW  Elec       q    Type
REMARK                         _______ _______ _______ _____ _____    ______ ____
ROOT
ATOM      1  O   LIG A   1     -12.650   6.521 131.475  0.00  0.00    -0.292 OA
ATOM      2  C   LIG A   1     -11.560   6.533 130.907  0.00  0.00    +0.174 C 
ATOM      3  C   LIG A   1     -11.481   6.871 129.474  0.00  0.00    +0.101 A 
ATOM      4  C   LIG A   1     -12.628   7.153 128.723  0.00  0.00    +0.134 A 
ATOM      5  C   LIG A   1     -12.526   7.426 127.360  0.00  0.00    +0.091 A 
ATOM      6  C   LIG A   1     -11.273   7.403 126.755  0.00  0.00    +0.124 A 
ATOM      7  C   LIG A   1     -10.125   7.121 127.491  0.00  0.00    +0.092 A 
ATOM      8  C   LIG A   1     -10.228   6.871 128.858  0.00  0.00    +0.139 A 
ATOM      9  O   LIG A   1      -9.060   6.609 129.526  0.00  0.00    -0.483 OA
ATOM     10  C   LIG A   1      -9.143   6.913 130.928  0.00  0.00    +0.211 C 
ATOM     11  C   LIG A   1     -10.279   6.142 131.586  0.00  0.00    +0.129 C 
ENDROOT
BRANCH  10  12
ATOM     12  C   LIG A   1      -7.806   6.578 131.562  0.00  0.00    -0.007 A 
ATOM     13  C   LIG A   1      -6.610   6.981 130.946  0.00  0.00    +0.011 A 
ATOM     14  C   LIG A   1      -5.373   6.684 131.525  0.00  0.00    +0.046 A 
ATOM     15  C   LIG A   1      -5.330   5.985 132.726  0.00  0.00    +0.117 A 
ATOM     16  C   LIG A   1      -6.499   5.578 133.354  0.00  0.00    +0.046 A 
ATOM     17  C   LIG A   1      -7.734   5.871 132.773  0.00  0.00    +0.011 A 
BRANCH  15  18
ATOM     18  O   LIG A   1      -4.145   5.675 133.325  0.00  0.00    -0.507 OA
ATOM     19  H   LIG A   1      -3.626   6.489 133.428  0.00  0.00    +0.292 HD
ENDBRANCH  15  18
ENDBRANCH  10  12
BRANCH   4  20
ATOM     20  O   LIG A   1     -13.887   7.171 129.261  0.00  0.00    -0.506 OA
ATOM     21  H   LIG A   1     -13.846   7.651 130.119  0.00  0.00    +0.292 HD
ENDBRANCH   4  20
BRANCH   6  22
ATOM     22  O   LIG A   1     -11.125   7.657 125.424  0.00  0.00    -0.506 OA
ATOM     23  H   LIG A   1     -10.485   8.380 125.311  0.00  0.00    +0.292 HD
ENDBRANCH   6  22
TORSDOF 4
ENDMDL
MODEL 4
REMARK VINA RESULT:      -7.2      8.922     10.081
REMARK  Name = NuBBE_2022
REMARK  4 active torsions:
REMARK  status: ('A' for Active; 'I' for Inactive)
REMARK    1  A    between atoms: C_4  and  O_5
REMARK    2  A    between atoms: C_7  and  O_8
REMARK    3  A    between atoms: C_12  and  C_14
REMARK    4  A    between atoms: C_17  and  O_18
REMARK                            x       y       z     vdW  Elec       q    Type
REMARK                         _______ _______ _______ _____ _____    ______ ____
ROOT
ATOM      1  O   LIG A   1      -9.960   5.083 133.061  0.00  0.00    -0.292 OA
ATOM      2  C   LIG A   1      -9.296   5.673 132.213  0.00  0.00    +0.174 C 
ATOM      3  C   LIG A   1      -9.968   6.528 131.217  0.00  0.00    +0.101 A 
ATOM      4  C   LIG A   1     -11.360   6.665 131.188  0.00  0.00    +0.134 A 
ATOM      5  C   LIG A   1     -11.969   7.445 130.207  0.00  0.00    +0.091 A 
ATOM      6  C   LIG A   1     -11.177   8.075 129.252  0.00  0.00    +0.124 A 
ATOM      7  C   LIG A   1      -9.790   7.944 129.268  0.00  0.00    +0.092 A 
ATOM      8  C   LIG A   1      -9.183   7.181 130.264  0.00  0.00    +0.139 A 
ATOM      9  O   LIG A   1      -7.815   7.100 130.229  0.00  0.00    -0.483 OA
ATOM     10  C   LIG A   1      -7.244   6.810 131.515  0.00  0.00    +0.211 C 
ATOM     11  C   LIG A   1      -7.808   5.514 132.082  0.00  0.00    +0.129 C 
ENDROOT
BRANCH  10  12
ATOM     12  C   LIG A   1      -5.738   6.735 131.355  0.00  0.00    -0.007 A 
ATOM     13  C   LIG A   1      -4.988   5.829 132.125  0.00  0.00    +0.011 A 
ATOM     14  C   LIG A   1      -3.601   5.745 131.980  0.00  0.00    +0.046 A 
ATOM     15  C   LIG A   1      -2.958   6.567 131.061  0.00  0.00    +0.117 A 
ATOM     16  C   LIG A   1      -3.677   7.469 130.288  0.00  0.00    +0.046 A 
ATOM     17  C   LIG A   1      -5.063   7.555 130.436  0.00  0.00    +0.011 A 
BRANCH  15  18
ATOM     18  O   LIG A   1      -1.607   6.518 130.888  0.00  0.00    -0.507 OA
ATOM     19  H   LIG A   1      -1.240   7.403 131.052  0.00  0.00    +0.292 HD
ENDBRANCH  15  18
ENDBRANCH  10  12
BRANCH   4  20
ATOM     20  O   LIG A   1     -12.189   6.055 132.090  0.00  0.00    -0.506 OA
ATOM     21  H   LIG A   1     -11.946   6.369 132.991  0.00  0.00    +0.292 HD
ENDBRANCH   4  20
BRANCH   6  22
ATOM     22  O   LIG A   1     -11.728   8.842 128.269  0.00  0.00    -0.506 OA
ATOM     23  H   LIG A   1     -11.035   9.404 127.883  0.00  0.00    +0.292 HD
ENDBRANCH   6  22
TORSDOF 4
ENDMDL
MODEL 5
REMARK VINA RESULT:      -7.1      8.751      9.935
REMARK  Name = NuBBE_2022
REMARK  4 active torsions:
REMARK  status: ('A' for Active; 'I' for Inactive)
REMARK    1  A    between atoms: C_4  and  O_5
REMARK    2  A    between atoms: C_7  and  O_8
REMARK    3  A    between atoms: C_12  and  C_14
REMARK    4  A    between atoms: C_17  and  O_18
REMARK                            x       y       z     vdW  Elec       q    Type
REMARK                         _______ _______ _______ _____ _____    ______ ____
ROOT
ATOM      1  O   LIG A   1      -9.706   2.348 131.162  0.00  0.00    -0.292 OA
ATOM      2  C   LIG A   1      -9.750   3.531 131.494  0.00  0.00    +0.174 C 
ATOM      3  C   LIG A   1      -8.951   4.002 132.640  0.00  0.00    +0.101 A 
ATOM      4  C   LIG A   1      -8.157   3.127 133.390  0.00  0.00    +0.134 A 
ATOM      5  C   LIG A   1      -7.447   3.594 134.495  0.00  0.00    +0.091 A 
ATOM      6  C   LIG A   1      -7.548   4.936 134.848  0.00  0.00    +0.124 A 
ATOM      7  C   LIG A   1      -8.336   5.817 134.111  0.00  0.00    +0.092 A 
ATOM      8  C   LIG A   1      -9.026   5.351 132.993  0.00  0.00    +0.139 A 
ATOM      9  O   LIG A   1      -9.777   6.270 132.307  0.00  0.00    -0.483 OA
ATOM     10  C   LIG A   1      -9.984   5.902 130.933  0.00  0.00    +0.211 C 
ATOM     11  C   LIG A   1     -10.648   4.535 130.830  0.00  0.00    +0.129 C 
ENDROOT
BRANCH  10  12
ATOM     12  C   LIG A   1     -10.828   6.978 130.279  0.00  0.00    -0.007 A 
ATOM     13  C   LIG A   1     -10.377   7.622 129.115  0.00  0.00    +0.011 A 
ATOM     14  C   LIG A   1     -11.150   8.610 128.499  0.00  0.00    +0.046 A 
ATOM     15  C   LIG A   1     -12.381   8.956 129.046  0.00  0.00    +0.117 A 
ATOM     16  C   LIG A   1     -12.849   8.332 130.195  0.00  0.00    +0.046 A 
ATOM     17  C   LIG A   1     -12.074   7.348 130.813  0.00  0.00    +0.011 A 
BRANCH  15  18
ATOM     18  O   LIG A   1     -13.167   9.914 128.478  0.00  0.00    -0.507 OA
ATOM     19  H   LIG A   1     -13.729  10.304 129.168  0.00  0.00    +0.292 HD
ENDBRANCH  15  18
ENDBRANCH  10  12
BRANCH   4  20
ATOM     20  O   LIG A   1      -8.036   1.795 133.101  0.00  0.00    -0.506 OA
ATOM     21  H   LIG A   1      -7.158   1.651 132.680  0.00  0.00    +0.292 HD
ENDBRANCH   4  20
BRANCH   6  22
ATOM     22  O   LIG A   1      -6.878   5.437 135.925  0.00  0.00    -0.506 OA
ATOM     23  H   LIG A   1      -6.113   4.867 136.112  0.00  0.00    +0.292 HD
ENDBRANCH   6  22
TORSDOF 4
ENDMDL
MODEL 6
REMARK VINA RESULT:      -7.1      8.979      9.815
REMARK  Name = NuBBE_2022
REMARK  4 active torsions:
REMARK  status: ('A' for Active; 'I' for Inactive)
REMARK    1  A    between atoms: C_4  and  O_5
REMARK    2  A    between atoms: C_7  and  O_8
REMARK    3  A    between atoms: C_12  and  C_14
REMARK    4  A    between atoms: C_17  and  O_18
REMARK                            x       y       z     vdW  Elec       q    Type
REMARK                         _______ _______ _______ _____ _____    ______ ____
ROOT
ATOM      1  O   LIG A   1      -8.398   4.815 133.830  0.00  0.00    -0.292 OA
ATOM      2  C   LIG A   1      -8.326   5.590 132.879  0.00  0.00    +0.174 C 
ATOM      3  C   LIG A   1      -7.008   5.959 132.330  0.00  0.00    +0.101 A 
ATOM      4  C   LIG A   1      -5.819   5.471 132.885  0.00  0.00    +0.134 A 
ATOM      5  C   LIG A   1      -4.587   5.872 132.372  0.00  0.00    +0.091 A 
ATOM      6  C   LIG A   1      -4.555   6.771 131.310  0.00  0.00    +0.124 A 
ATOM      7  C   LIG A   1      -5.731   7.266 130.750  0.00  0.00    +0.092 A 
ATOM      8  C   LIG A   1      -6.961   6.845 131.252  0.00  0.00    +0.139 A 
ATOM      9  O   LIG A   1      -8.080   7.362 130.652  0.00  0.00    -0.483 OA
ATOM     10  C   LIG A   1      -9.232   6.517 130.803  0.00  0.00    +0.211 C 
ATOM     11  C   LIG A   1      -9.527   6.258 132.274  0.00  0.00    +0.129 C 
ENDROOT
BRANCH  10  12
ATOM     12  C   LIG A   1     -10.403   7.189 130.113  0.00  0.00    -0.007 A 
ATOM     13  C   LIG A   1     -11.702   7.051 130.629  0.00  0.00    +0.011 A 
ATOM     14  C   LIG A   1     -12.788   7.672 130.006  0.00  0.00    +0.046 A 
ATOM     15  C   LIG A   1     -12.577   8.436 128.864  0.00  0.00    +0.117 A 
ATOM     16  C   LIG A   1     -11.302   8.588 128.336  0.00  0.00    +0.046 A 
ATOM     17  C   LIG A   1     -10.217   7.964 128.957  0.00  0.00    +0.011 A 
BRANCH  15  18
ATOM     18  O   LIG A   1     -13.607   9.059 128.225  0.00  0.00    -0.507 OA
ATOM     19  H   LIG A   1     -13.255   9.528 127.451  0.00  0.00    +0.292 HD
ENDBRANCH  15  18
ENDBRANCH  10  12
BRANCH   4  20
ATOM     20  O   LIG A   1      -5.791   4.600 133.941  0.00  0.00    -0.506 OA
ATOM     21  H   LIG A   1      -6.100   5.081 134.743  0.00  0.00    +0.292 HD
ENDBRANCH   4  20
BRANCH   6  22
ATOM     22  O   LIG A   1      -3.374   7.198 130.779  0.00  0.00    -0.506 OA
ATOM     23  H   LIG A   1      -2.728   7.307 131.497  0.00  0.00    +0.292 HD
ENDBRANCH   6  22
TORSDOF 4
ENDMDL
MODEL 7
REMARK VINA RESULT:      -7.1      3.764      8.165
REMARK  Name = NuBBE_2022
REMARK  4 active torsions:
REMARK  status: ('A' for Active; 'I' for Inactive)
REMARK    1  A    between atoms: C_4  and  O_5
REMARK    2  A    between atoms: C_7  and  O_8
REMARK    3  A    between atoms: C_12  and  C_14
REMARK    4  A    between atoms: C_17  and  O_18
REMARK                            x       y       z     vdW  Elec       q    Type
REMARK                         _______ _______ _______ _____ _____    ______ ____
ROOT
ATOM      1  O   LIG A   1      -9.787  -2.288 123.449  0.00  0.00    -0.292 OA
ATOM      2  C   LIG A   1      -9.081  -1.709 124.271  0.00  0.00    +0.174 C 
ATOM      3  C   LIG A   1      -8.959  -0.240 124.231  0.00  0.00    +0.101 A 
ATOM      4  C   LIG A   1      -9.610   0.523 123.254  0.00  0.00    +0.134 A 
ATOM      5  C   LIG A   1      -9.441   1.906 123.216  0.00  0.00    +0.091 A 
ATOM      6  C   LIG A   1      -8.610   2.514 124.152  0.00  0.00    +0.124 A 
ATOM      7  C   LIG A   1      -7.955   1.766 125.127  0.00  0.00    +0.092 A 
ATOM      8  C   LIG A   1      -8.145   0.385 125.176  0.00  0.00    +0.139 A 
ATOM      9  O   LIG A   1      -7.479  -0.292 126.165  0.00  0.00    -0.483 OA
ATOM     10  C   LIG A   1      -8.115  -1.532 126.513  0.00  0.00    +0.211 C 
ATOM     11  C   LIG A   1      -8.253  -2.434 125.294  0.00  0.00    +0.129 C 
ENDROOT
BRANCH  10  12
ATOM     12  C   LIG A   1      -7.293  -2.194 127.601  0.00  0.00    -0.007 A 
ATOM     13  C   LIG A   1      -5.896  -2.042 127.625  0.00  0.00    +0.011 A 
ATOM     14  C   LIG A   1      -5.129  -2.641 128.627  0.00  0.00    +0.046 A 
ATOM     15  C   LIG A   1      -5.758  -3.394 129.613  0.00  0.00    +0.117 A 
ATOM     16  C   LIG A   1      -7.137  -3.558 129.611  0.00  0.00    +0.046 A 
ATOM     17  C   LIG A   1      -7.903  -2.962 128.607  0.00  0.00    +0.011 A 
BRANCH  15  18
ATOM     18  O   LIG A   1      -5.048  -3.996 130.608  0.00  0.00    -0.507 OA
ATOM     19  H   LIG A   1      -4.101  -3.857 130.442  0.00  0.00    +0.292 HD
ENDBRANCH  15  18
ENDBRANCH  10  12
BRANCH   4  20
ATOM     20  O   LIG A   1     -10.423  -0.024 122.299  0.00  0.00    -0.506 OA
ATOM     21  H   LIG A   1     -11.352   0.031 122.620  0.00  0.00    +0.292 HD
ENDBRANCH   4  20
BRANCH   6  22
ATOM     22  O   LIG A   1      -8.409   3.863 124.149  0.00  0.00    -0.506 OA
ATOM     23  H   LIG A   1      -7.539   4.052 124.538  0.00  0.00    +0.292 HD
ENDBRANCH   6  22
TORSDOF 4
ENDMDL
MODEL 8
REMARK VINA RESULT:      -7.0      1.982      3.156
REMARK  Name = NuBBE_2022
REMARK  4 active torsions:
REMARK  status: ('A' for Active; 'I' for Inactive)
REMARK    1  A    between atoms: C_4  and  O_5
REMARK    2  A    between atoms: C_7  and  O_8
REMARK    3  A    between atoms: C_12  and  C_14
REMARK    4  A    between atoms: C_17  and  O_18
REMARK                            x       y       z     vdW  Elec       q    Type
REMARK                         _______ _______ _______ _____ _____    ______ ____
ROOT
ATOM      1  O   LIG A   1      -6.507   1.978 126.819  0.00  0.00    -0.292 OA
ATOM      2  C   LIG A   1      -6.710   1.766 125.626  0.00  0.00    +0.174 C 
ATOM      3  C   LIG A   1      -7.510   0.599 125.212  0.00  0.00    +0.101 A 
ATOM      4  C   LIG A   1      -8.026  -0.305 126.147  0.00  0.00    +0.134 A 
ATOM      5  C   LIG A   1      -8.742  -1.423 125.722  0.00  0.00    +0.091 A 
ATOM      6  C   LIG A   1      -8.924  -1.635 124.359  0.00  0.00    +0.124 A 
ATOM      7  C   LIG A   1      -8.413  -0.744 123.418  0.00  0.00    +0.092 A 
ATOM      8  C   LIG A   1      -7.718   0.385 123.848  0.00  0.00    +0.139 A 
ATOM      9  O   LIG A   1      -7.247   1.226 122.872  0.00  0.00    -0.483 OA
ATOM     10  C   LIG A   1      -7.063   2.571 123.342  0.00  0.00    +0.211 C 
ATOM     11  C   LIG A   1      -6.115   2.607 124.533  0.00  0.00    +0.129 C 
ENDROOT
BRANCH  10  12
ATOM     12  C   LIG A   1      -6.536   3.404 122.189  0.00  0.00    -0.007 A 
ATOM     13  C   LIG A   1      -7.255   3.483 120.985  0.00  0.00    +0.011 A 
ATOM     14  C   LIG A   1      -6.783   4.254 119.919  0.00  0.00    +0.046 A 
ATOM     15  C   LIG A   1      -5.588   4.951 120.056  0.00  0.00    +0.117 A 
ATOM     16  C   LIG A   1      -4.859   4.889 121.237  0.00  0.00    +0.046 A 
ATOM     17  C   LIG A   1      -5.330   4.116 122.300  0.00  0.00    +0.011 A 
BRANCH  15  18
ATOM     18  O   LIG A   1      -5.091   5.714 119.042  0.00  0.00    -0.507 OA
ATOM     19  H   LIG A   1      -4.671   5.129 118.390  0.00  0.00    +0.292 HD
ENDBRANCH  15  18
ENDBRANCH  10  12
BRANCH   4  20
ATOM     20  O   LIG A   1      -7.862  -0.157 127.497  0.00  0.00    -0.506 OA
ATOM     21  H   LIG A   1      -8.360   0.643 127.781  0.00  0.00    +0.292 HD
ENDBRANCH   4  20
BRANCH   6  22
ATOM     22  O   LIG A   1      -9.610  -2.718 123.896  0.00  0.00    -0.506 OA
ATOM     23  H   LIG A   1     -10.465  -2.421 123.542  0.00  0.00    +0.292 HD
ENDBRANCH   6  22
TORSDOF 4
ENDMDL
MODEL 9
REMARK VINA RESULT:      -7.0      8.787      9.639
REMARK  Name = NuBBE_2022
REMARK  4 active torsions:
REMARK  status: ('A' for Active; 'I' for Inactive)
REMARK    1  A    between atoms: C_4  and  O_5
REMARK    2  A    between atoms: C_7  and  O_8
REMARK    3  A    between atoms: C_12  and  C_14
REMARK    4  A    between atoms: C_17  and  O_18
REMARK                            x       y       z     vdW  Elec       q    Type
REMARK                         _______ _______ _______ _____ _____    ______ ____
ROOT
ATOM      1  O   LIG A   1      -6.577   5.866 132.406  0.00  0.00    -0.292 OA
ATOM      2  C   LIG A   1      -7.657   5.584 131.893  0.00  0.00    +0.174 C 
ATOM      3  C   LIG A   1      -8.171   4.204 131.973  0.00  0.00    +0.101 A 
ATOM      4  C   LIG A   1      -7.443   3.185 132.599  0.00  0.00    +0.134 A 
ATOM      5  C   LIG A   1      -7.935   1.882 132.621  0.00  0.00    +0.091 A 
ATOM      6  C   LIG A   1      -9.151   1.605 132.004  0.00  0.00    +0.124 A 
ATOM      7  C   LIG A   1      -9.884   2.609 131.376  0.00  0.00    +0.092 A 
ATOM      8  C   LIG A   1      -9.400   3.916 131.376  0.00  0.00    +0.139 A 
ATOM      9  O   LIG A   1     -10.173   4.858 130.748  0.00  0.00    -0.483 OA
ATOM     10  C   LIG A   1      -9.939   6.187 131.244  0.00  0.00    +0.211 C 
ATOM     11  C   LIG A   1      -8.471   6.569 131.104  0.00  0.00    +0.129 C 
ENDROOT
BRANCH  10  12
ATOM     12  C   LIG A   1     -10.835   7.140 130.477  0.00  0.00    -0.007 A 
ATOM     13  C   LIG A   1     -12.103   7.478 130.978  0.00  0.00    +0.011 A 
ATOM     14  C   LIG A   1     -12.934   8.361 130.284  0.00  0.00    +0.046 A 
ATOM     15  C   LIG A   1     -12.496   8.912 129.085  0.00  0.00    +0.117 A 
ATOM     16  C   LIG A   1     -11.247   8.595 128.570  0.00  0.00    +0.046 A 
ATOM     17  C   LIG A   1     -10.419   7.709 129.262  0.00  0.00    +0.011 A 
BRANCH  15  18
ATOM     18  O   LIG A   1     -13.275   9.778 128.375  0.00  0.00    -0.507 OA
ATOM     19  H   LIG A   1     -14.207   9.572 128.550  0.00  0.00    +0.292 HD
ENDBRANCH  15  18
ENDBRANCH  10  12
BRANCH   4  20
ATOM     20  O   LIG A   1      -6.234   3.396 133.205  0.00  0.00    -0.506 OA
ATOM     21  H   LIG A   1      -6.229   4.311 133.569  0.00  0.00    +0.292 HD
ENDBRANCH   4  20
BRANCH   6  22
ATOM     22  O   LIG A   1      -9.669   0.343 131.994  0.00  0.00    -0.506 OA
ATOM     23  H   LIG A   1      -8.938  -0.297 132.007  0.00  0.00    +0.292 HD
ENDBRANCH   6  22
TORSDOF 4
ENDMDL
