MODEL 1
REMARK VINA RESULT:      -6.0      0.000      0.000
REMARK  Name = NuBBE_1068
REMARK  4 active torsions:
REMARK  status: ('A' for Active; 'I' for Inactive)
REMARK    1  A    between atoms: C_1  and  O_2
REMARK    2  A    between atoms: O_2  and  C_3
REMARK    3  A    between atoms: C_4  and  O_5
REMARK    4  A    between atoms: O_5  and  C_6
REMARK                            x       y       z     vdW  Elec       q    Type
REMARK                         _______ _______ _______ _____ _____    ______ ____
ROOT
ATOM      1  C   LIG A   1      -7.010   3.174 125.546  0.00  0.00    +0.176 A 
ATOM      2  C   LIG A   1      -6.026   3.973 124.910  0.00  0.00    +0.205 A 
ATOM      3  C   LIG A   1      -6.029   3.959 123.501  0.00  0.00    +0.183 A 
ATOM      4  O   LIG A   1      -5.145   4.600 122.676  0.00  0.00    -0.459 OA
ATOM      5  C   LIG A   1      -5.501   4.328 121.396  0.00  0.00    +0.196 A 
ATOM      6  C   LIG A   1      -6.606   3.515 121.369  0.00  0.00    +0.053 A 
ATOM      7  C   LIG A   1      -6.951   3.265 122.724  0.00  0.00    +0.067 A 
ATOM      8  C   LIG A   1      -7.946   2.528 123.378  0.00  0.00    +0.153 A 
ATOM      9  C   LIG A   1      -7.974   2.471 124.779  0.00  0.00    +0.064 A 
ATOM     10  C   LIG A   1      -9.031   1.661 125.394  0.00  0.00    +0.022 A 
ATOM     11  C   LIG A   1      -9.942   1.037 124.646  0.00  0.00    +0.093 A 
ATOM     12  C   LIG A   1      -9.938   1.111 123.178  0.00  0.00    +0.337 A 
ATOM     13  O   LIG A   1     -10.801   0.549 122.513  0.00  0.00    -0.245 OA
ATOM     14  O   LIG A   1      -8.912   1.843 122.603  0.00  0.00    -0.421 OA
ENDROOT
BRANCH   1  16
ATOM     15  C   LIG A   1      -7.675   4.071 127.700  0.00  0.00    +0.277 C 
ATOM     16  O   LIG A   1      -7.173   3.009 126.905  0.00  0.00    -0.491 OA
ENDBRANCH   1  16
BRANCH   2  17
ATOM     17  O   LIG A   1      -5.095   4.644 125.674  0.00  0.00    -0.488 OA
ATOM     18  C   LIG A   1      -3.951   3.889 126.062  0.00  0.00    +0.277 C 
ENDBRANCH   2  17
TORSDOF 2
ENDMDL
MODEL 2
REMARK VINA RESULT:      -5.9      4.236      6.359
REMARK  Name = NuBBE_1068
REMARK  4 active torsions:
REMARK  status: ('A' for Active; 'I' for Inactive)
REMARK    1  A    between atoms: C_1  and  O_2
REMARK    2  A    between atoms: O_2  and  C_3
REMARK    3  A    between atoms: C_4  and  O_5
REMARK    4  A    between atoms: O_5  and  C_6
REMARK                            x       y       z     vdW  Elec       q    Type
REMARK                         _______ _______ _______ _____ _____    ______ ____
ROOT
ATOM      1  C   LIG A   1      -8.721  -1.758 125.146  0.00  0.00    +0.176 A 
ATOM      2  C   LIG A   1      -8.028  -0.661 124.573  0.00  0.00    +0.205 A 
ATOM      3  C   LIG A   1      -7.033  -0.067 125.373  0.00  0.00    +0.183 A 
ATOM      4  O   LIG A   1      -6.280   1.032 125.059  0.00  0.00    -0.459 OA
ATOM      5  C   LIG A   1      -5.444   1.274 126.099  0.00  0.00    +0.196 A 
ATOM      6  C   LIG A   1      -5.639   0.349 127.094  0.00  0.00    +0.053 A 
ATOM      7  C   LIG A   1      -6.669  -0.517 126.638  0.00  0.00    +0.067 A 
ATOM      8  C   LIG A   1      -7.331  -1.636 127.158  0.00  0.00    +0.153 A 
ATOM      9  C   LIG A   1      -8.358  -2.250 126.426  0.00  0.00    +0.064 A 
ATOM     10  C   LIG A   1      -9.022  -3.403 127.044  0.00  0.00    +0.022 A 
ATOM     11  C   LIG A   1      -8.636  -3.861 128.236  0.00  0.00    +0.093 A 
ATOM     12  C   LIG A   1      -7.544  -3.242 129.000  0.00  0.00    +0.337 A 
ATOM     13  O   LIG A   1      -7.191  -3.697 130.082  0.00  0.00    -0.245 OA
ATOM     14  O   LIG A   1      -6.950  -2.128 128.429  0.00  0.00    -0.421 OA
ENDROOT
BRANCH   1  16
ATOM     15  C   LIG A   1      -9.487  -3.359 123.493  0.00  0.00    +0.277 C 
ATOM     16  O   LIG A   1      -9.749  -2.468 124.564  0.00  0.00    -0.491 OA
ENDBRANCH   1  16
BRANCH   2  17
ATOM     17  O   LIG A   1      -8.401  -0.196 123.329  0.00  0.00    -0.488 OA
ATOM     18  C   LIG A   1      -9.413   0.807 123.321  0.00  0.00    +0.277 C 
ENDBRANCH   2  17
TORSDOF 2
ENDMDL
MODEL 3
REMARK VINA RESULT:      -5.8      1.544      4.093
REMARK  Name = NuBBE_1068
REMARK  4 active torsions:
REMARK  status: ('A' for Active; 'I' for Inactive)
REMARK    1  A    between atoms: C_1  and  O_2
REMARK    2  A    between atoms: O_2  and  C_3
REMARK    3  A    between atoms: C_4  and  O_5
REMARK    4  A    between atoms: O_5  and  C_6
REMARK                            x       y       z     vdW  Elec       q    Type
REMARK                         _______ _______ _______ _____ _____    ______ ____
ROOT
ATOM      1  C   LIG A   1      -6.035   3.252 124.752  0.00  0.00    +0.176 A 
ATOM      2  C   LIG A   1      -7.020   2.508 125.451  0.00  0.00    +0.205 A 
ATOM      3  C   LIG A   1      -8.168   2.152 124.716  0.00  0.00    +0.183 A 
ATOM      4  O   LIG A   1      -9.268   1.490 125.190  0.00  0.00    -0.459 OA
ATOM      5  C   LIG A   1     -10.142   1.349 124.163  0.00  0.00    +0.196 A 
ATOM      6  C   LIG A   1      -9.631   1.912 123.020  0.00  0.00    +0.053 A 
ATOM      7  C   LIG A   1      -8.359   2.439 123.369  0.00  0.00    +0.067 A 
ATOM      8  C   LIG A   1      -7.347   3.128 122.688  0.00  0.00    +0.153 A 
ATOM      9  C   LIG A   1      -6.195   3.542 123.373  0.00  0.00    +0.064 A 
ATOM     10  C   LIG A   1      -5.188   4.278 122.601  0.00  0.00    +0.022 A 
ATOM     11  C   LIG A   1      -5.354   4.509 121.298  0.00  0.00    +0.093 A 
ATOM     12  C   LIG A   1      -6.544   4.056 120.565  0.00  0.00    +0.337 A 
ATOM     13  O   LIG A   1      -6.662   4.257 119.361  0.00  0.00    -0.245 OA
ATOM     14  O   LIG A   1      -7.511   3.398 121.309  0.00  0.00    -0.421 OA
ENDROOT
BRANCH   1  16
ATOM     15  C   LIG A   1      -4.870   4.714 126.298  0.00  0.00    +0.277 C 
ATOM     16  O   LIG A   1      -4.853   3.733 125.274  0.00  0.00    -0.491 OA
ENDBRANCH   1  16
BRANCH   2  17
ATOM     17  O   LIG A   1      -6.847   2.241 126.792  0.00  0.00    -0.488 OA
ATOM     18  C   LIG A   1      -6.224   0.996 127.101  0.00  0.00    +0.277 C 
ENDBRANCH   2  17
TORSDOF 2
ENDMDL
MODEL 4
REMARK VINA RESULT:      -5.7      3.245      5.826
REMARK  Name = NuBBE_1068
REMARK  4 active torsions:
REMARK  status: ('A' for Active; 'I' for Inactive)
REMARK    1  A    between atoms: C_1  and  O_2
REMARK    2  A    between atoms: O_2  and  C_3
REMARK    3  A    between atoms: C_4  and  O_5
REMARK    4  A    between atoms: O_5  and  C_6
REMARK                            x       y       z     vdW  Elec       q    Type
REMARK                         _______ _______ _______ _____ _____    ______ ____
ROOT
ATOM      1  C   LIG A   1      -6.922  -1.498 124.533  0.00  0.00    +0.176 A 
ATOM      2  C   LIG A   1      -8.046  -1.638 123.680  0.00  0.00    +0.205 A 
ATOM      3  C   LIG A   1      -8.759  -0.458 123.392  0.00  0.00    +0.183 A 
ATOM      4  O   LIG A   1      -9.902  -0.356 122.646  0.00  0.00    -0.459 OA
ATOM      5  C   LIG A   1     -10.262   0.951 122.615  0.00  0.00    +0.196 A 
ATOM      6  C   LIG A   1      -9.370   1.710 123.332  0.00  0.00    +0.053 A 
ATOM      7  C   LIG A   1      -8.400   0.807 123.844  0.00  0.00    +0.067 A 
ATOM      8  C   LIG A   1      -7.253   0.925 124.640  0.00  0.00    +0.153 A 
ATOM      9  C   LIG A   1      -6.521  -0.218 124.993  0.00  0.00    +0.064 A 
ATOM     10  C   LIG A   1      -5.345  -0.020 125.848  0.00  0.00    +0.022 A 
ATOM     11  C   LIG A   1      -4.977   1.201 126.239  0.00  0.00    +0.093 A 
ATOM     12  C   LIG A   1      -5.721   2.408 125.853  0.00  0.00    +0.337 A 
ATOM     13  O   LIG A   1      -5.348   3.521 126.204  0.00  0.00    -0.245 OA
ATOM     14  O   LIG A   1      -6.855   2.209 125.080  0.00  0.00    -0.421 OA
ENDROOT
BRANCH   1  16
ATOM     15  C   LIG A   1      -5.215  -3.160 124.075  0.00  0.00    +0.277 C 
ATOM     16  O   LIG A   1      -6.101  -2.514 124.974  0.00  0.00    -0.491 OA
ENDBRANCH   1  16
BRANCH   2  17
ATOM     17  O   LIG A   1      -8.421  -2.893 123.248  0.00  0.00    -0.488 OA
ATOM     18  C   LIG A   1      -9.439  -3.533 124.013  0.00  0.00    +0.277 C 
ENDBRANCH   2  17
TORSDOF 2
ENDMDL
MODEL 5
REMARK VINA RESULT:      -5.7      1.454      4.871
REMARK  Name = NuBBE_1068
REMARK  4 active torsions:
REMARK  status: ('A' for Active; 'I' for Inactive)
REMARK    1  A    between atoms: C_1  and  O_2
REMARK    2  A    between atoms: O_2  and  C_3
REMARK    3  A    between atoms: C_4  and  O_5
REMARK    4  A    between atoms: O_5  and  C_6
REMARK                            x       y       z     vdW  Elec       q    Type
REMARK                         _______ _______ _______ _____ _____    ______ ____
ROOT
ATOM      1  C   LIG A   1      -7.162   2.091 123.627  0.00  0.00    +0.176 A 
ATOM      2  C   LIG A   1      -6.974   1.953 125.026  0.00  0.00    +0.205 A 
ATOM      3  C   LIG A   1      -5.988   2.777 125.605  0.00  0.00    +0.183 A 
ATOM      4  O   LIG A   1      -5.592   2.780 126.915  0.00  0.00    -0.459 OA
ATOM      5  C   LIG A   1      -4.624   3.718 127.055  0.00  0.00    +0.196 A 
ATOM      6  C   LIG A   1      -4.377   4.332 125.852  0.00  0.00    +0.053 A 
ATOM      7  C   LIG A   1      -5.248   3.726 124.908  0.00  0.00    +0.067 A 
ATOM      8  C   LIG A   1      -5.493   3.880 123.537  0.00  0.00    +0.153 A 
ATOM      9  C   LIG A   1      -6.435   3.064 122.894  0.00  0.00    +0.064 A 
ATOM     10  C   LIG A   1      -6.622   3.266 121.454  0.00  0.00    +0.022 A 
ATOM     11  C   LIG A   1      -5.944   4.210 120.799  0.00  0.00    +0.093 A 
ATOM     12  C   LIG A   1      -4.974   5.089 121.467  0.00  0.00    +0.337 A 
ATOM     13  O   LIG A   1      -4.383   5.967 120.849  0.00  0.00    -0.245 OA
ATOM     14  O   LIG A   1      -4.773   4.864 122.820  0.00  0.00    -0.421 OA
ENDROOT
BRANCH   1  16
ATOM     15  C   LIG A   1      -9.426   1.675 122.861  0.00  0.00    +0.277 C 
ATOM     16  O   LIG A   1      -8.041   1.370 122.848  0.00  0.00    -0.491 OA
ENDBRANCH   1  16
BRANCH   2  17
ATOM     17  O   LIG A   1      -7.688   0.998 125.719  0.00  0.00    -0.488 OA
ATOM     18  C   LIG A   1      -8.760   1.486 126.519  0.00  0.00    +0.277 C 
ENDBRANCH   2  17
TORSDOF 2
ENDMDL
MODEL 6
REMARK VINA RESULT:      -5.7      7.932      8.836
REMARK  Name = NuBBE_1068
REMARK  4 active torsions:
REMARK  status: ('A' for Active; 'I' for Inactive)
REMARK    1  A    between atoms: C_1  and  O_2
REMARK    2  A    between atoms: O_2  and  C_3
REMARK    3  A    between atoms: C_4  and  O_5
REMARK    4  A    between atoms: O_5  and  C_6
REMARK                            x       y       z     vdW  Elec       q    Type
REMARK                         _______ _______ _______ _____ _____    ______ ____
ROOT
ATOM      1  C   LIG A   1      -8.255   5.236 132.929  0.00  0.00    +0.176 A 
ATOM      2  C   LIG A   1      -6.867   5.293 133.216  0.00  0.00    +0.205 A 
ATOM      3  C   LIG A   1      -6.083   6.070 132.341  0.00  0.00    +0.183 A 
ATOM      4  O   LIG A   1      -4.723   6.225 132.383  0.00  0.00    -0.459 OA
ATOM      5  C   LIG A   1      -4.369   7.050 131.367  0.00  0.00    +0.196 A 
ATOM      6  C   LIG A   1      -5.478   7.439 130.657  0.00  0.00    +0.053 A 
ATOM      7  C   LIG A   1      -6.589   6.805 131.275  0.00  0.00    +0.067 A 
ATOM      8  C   LIG A   1      -7.971   6.776 131.047  0.00  0.00    +0.153 A 
ATOM      9  C   LIG A   1      -8.802   5.991 131.860  0.00  0.00    +0.064 A 
ATOM     10  C   LIG A   1     -10.235   5.992 131.548  0.00  0.00    +0.022 A 
ATOM     11  C   LIG A   1     -10.722   6.737 130.554  0.00  0.00    +0.093 A 
ATOM     12  C   LIG A   1      -9.864   7.584 129.714  0.00  0.00    +0.337 A 
ATOM     13  O   LIG A   1     -10.339   8.279 128.823  0.00  0.00    -0.245 OA
ATOM     14  O   LIG A   1      -8.506   7.546 129.987  0.00  0.00    -0.421 OA
ENDROOT
BRANCH   1  16
ATOM     15  C   LIG A   1      -9.340   3.121 133.412  0.00  0.00    +0.277 C 
ATOM     16  O   LIG A   1      -9.203   4.516 133.624  0.00  0.00    -0.491 OA
ENDBRANCH   1  16
BRANCH   2  17
ATOM     17  O   LIG A   1      -6.357   4.547 134.257  0.00  0.00    -0.488 OA
ATOM     18  C   LIG A   1      -6.251   5.222 135.508  0.00  0.00    +0.277 C 
ENDBRANCH   2  17
TORSDOF 2
ENDMDL
MODEL 7
REMARK VINA RESULT:      -5.6      3.648      5.940
REMARK  Name = NuBBE_1068
REMARK  4 active torsions:
REMARK  status: ('A' for Active; 'I' for Inactive)
REMARK    1  A    between atoms: C_1  and  O_2
REMARK    2  A    between atoms: O_2  and  C_3
REMARK    3  A    between atoms: C_4  and  O_5
REMARK    4  A    between atoms: O_5  and  C_6
REMARK                            x       y       z     vdW  Elec       q    Type
REMARK                         _______ _______ _______ _____ _____    ______ ____
ROOT
ATOM      1  C   LIG A   1      -8.838   0.622 126.113  0.00  0.00    +0.176 A 
ATOM      2  C   LIG A   1      -9.382   0.307 124.842  0.00  0.00    +0.205 A 
ATOM      3  C   LIG A   1      -9.252  -1.032 124.423  0.00  0.00    +0.183 A 
ATOM      4  O   LIG A   1      -9.645  -1.553 123.221  0.00  0.00    -0.459 OA
ATOM      5  C   LIG A   1      -9.339  -2.874 123.222  0.00  0.00    +0.196 A 
ATOM      6  C   LIG A   1      -8.749  -3.228 124.410  0.00  0.00    +0.053 A 
ATOM      7  C   LIG A   1      -8.682  -2.043 125.190  0.00  0.00    +0.067 A 
ATOM      8  C   LIG A   1      -8.201  -1.716 126.465  0.00  0.00    +0.153 A 
ATOM      9  C   LIG A   1      -8.267  -0.393 126.924  0.00  0.00    +0.064 A 
ATOM     10  C   LIG A   1      -7.725  -0.121 128.260  0.00  0.00    +0.022 A 
ATOM     11  C   LIG A   1      -7.223  -1.103 129.010  0.00  0.00    +0.093 A 
ATOM     12  C   LIG A   1      -7.173  -2.498 128.550  0.00  0.00    +0.337 A 
ATOM     13  O   LIG A   1      -6.731  -3.387 129.268  0.00  0.00    -0.245 OA
ATOM     14  O   LIG A   1      -7.649  -2.739 127.271  0.00  0.00    -0.421 OA
ENDROOT
BRANCH   1  16
ATOM     15  C   LIG A   1      -7.794   2.793 126.397  0.00  0.00    +0.277 C 
ATOM     16  O   LIG A   1      -8.820   1.865 126.708  0.00  0.00    -0.491 OA
ENDBRANCH   1  16
BRANCH   2  17
ATOM     17  O   LIG A   1      -9.927   1.310 124.068  0.00  0.00    -0.488 OA
ATOM     18  C   LIG A   1      -9.050   1.901 123.113  0.00  0.00    +0.277 C 
ENDBRANCH   2  17
TORSDOF 2
ENDMDL
MODEL 8
REMARK VINA RESULT:      -5.5      3.630      5.827
REMARK  Name = NuBBE_1068
REMARK  4 active torsions:
REMARK  status: ('A' for Active; 'I' for Inactive)
REMARK    1  A    between atoms: C_1  and  O_2
REMARK    2  A    between atoms: O_2  and  C_3
REMARK    3  A    between atoms: C_4  and  O_5
REMARK    4  A    between atoms: O_5  and  C_6
REMARK                            x       y       z     vdW  Elec       q    Type
REMARK                         _______ _______ _______ _____ _____    ______ ____
ROOT
ATOM      1  C   LIG A   1      -8.106  -1.495 126.113  0.00  0.00    +0.176 A 
ATOM      2  C   LIG A   1      -8.495  -1.561 124.751  0.00  0.00    +0.205 A 
ATOM      3  C   LIG A   1      -9.102  -0.405 124.221  0.00  0.00    +0.183 A 
ATOM      4  O   LIG A   1      -9.608  -0.254 122.958  0.00  0.00    -0.459 OA
ATOM      5  C   LIG A   1     -10.100   1.006 122.857  0.00  0.00    +0.196 A 
ATOM      6  C   LIG A   1      -9.925   1.684 124.037  0.00  0.00    +0.053 A 
ATOM      7  C   LIG A   1      -9.287   0.779 124.927  0.00  0.00    +0.067 A 
ATOM      8  C   LIG A   1      -8.844   0.835 126.254  0.00  0.00    +0.153 A 
ATOM      9  C   LIG A   1      -8.266  -0.295 126.851  0.00  0.00    +0.064 A 
ATOM     10  C   LIG A   1      -7.846  -0.170 128.251  0.00  0.00    +0.022 A 
ATOM     11  C   LIG A   1      -7.982   0.983 128.909  0.00  0.00    +0.093 A 
ATOM     12  C   LIG A   1      -8.562   2.180 128.286  0.00  0.00    +0.337 A 
ATOM     13  O   LIG A   1      -8.653   3.235 128.903  0.00  0.00    -0.245 OA
ATOM     14  O   LIG A   1      -8.994   2.042 126.976  0.00  0.00    -0.421 OA
ENDROOT
BRANCH   1  16
ATOM     15  C   LIG A   1      -8.339  -3.484 127.483  0.00  0.00    +0.277 C 
ATOM     16  O   LIG A   1      -7.529  -2.510 126.846  0.00  0.00    -0.491 OA
ENDBRANCH   1  16
BRANCH   2  17
ATOM     17  O   LIG A   1      -8.335  -2.739 124.052  0.00  0.00    -0.488 OA
ATOM     18  C   LIG A   1      -9.521  -3.501 123.844  0.00  0.00    +0.277 C 
ENDBRANCH   2  17
TORSDOF 2
ENDMDL
MODEL 9
REMARK VINA RESULT:      -5.5      7.948      9.109
REMARK  Name = NuBBE_1068
REMARK  4 active torsions:
REMARK  status: ('A' for Active; 'I' for Inactive)
REMARK    1  A    between atoms: C_1  and  O_2
REMARK    2  A    between atoms: O_2  and  C_3
REMARK    3  A    between atoms: C_4  and  O_5
REMARK    4  A    between atoms: O_5  and  C_6
REMARK                            x       y       z     vdW  Elec       q    Type
REMARK                         _______ _______ _______ _____ _____    ______ ____
ROOT
ATOM      1  C   LIG A   1      -6.441   5.534 133.443  0.00  0.00    +0.176 A 
ATOM      2  C   LIG A   1      -5.040   5.747 133.394  0.00  0.00    +0.205 A 
ATOM      3  C   LIG A   1      -4.554   6.435 132.265  0.00  0.00    +0.183 A 
ATOM      4  O   LIG A   1      -3.244   6.704 131.973  0.00  0.00    -0.459 OA
ATOM      5  C   LIG A   1      -3.211   7.382 130.799  0.00  0.00    +0.196 A 
ATOM      6  C   LIG A   1      -4.483   7.562 130.315  0.00  0.00    +0.053 A 
ATOM      7  C   LIG A   1      -5.357   6.947 131.251  0.00  0.00    +0.067 A 
ATOM      8  C   LIG A   1      -6.743   6.771 131.351  0.00  0.00    +0.153 A 
ATOM      9  C   LIG A   1      -7.286   6.061 132.432  0.00  0.00    +0.064 A 
ATOM     10  C   LIG A   1      -8.743   5.897 132.460  0.00  0.00    +0.022 A 
ATOM     11  C   LIG A   1      -9.513   6.432 131.511  0.00  0.00    +0.093 A 
ATOM     12  C   LIG A   1      -8.957   7.200 130.388  0.00  0.00    +0.337 A 
ATOM     13  O   LIG A   1      -9.687   7.703 129.541  0.00  0.00    -0.245 OA
ATOM     14  O   LIG A   1      -7.577   7.315 130.346  0.00  0.00    -0.421 OA
ENDROOT
BRANCH   1  16
ATOM     15  C   LIG A   1      -7.417   5.496 135.663  0.00  0.00    +0.277 C 
ATOM     16  O   LIG A   1      -7.130   4.860 134.429  0.00  0.00    -0.491 OA
ENDBRANCH   1  16
BRANCH   2  17
ATOM     17  O   LIG A   1      -4.236   5.221 134.384  0.00  0.00    -0.488 OA
ATOM     18  C   LIG A   1      -3.762   6.150 135.354  0.00  0.00    +0.277 C 
ENDBRANCH   2  17
TORSDOF 2
ENDMDL
