MODEL 1
REMARK VINA RESULT:      -8.1      0.000      0.000
REMARK  Name = NuBBE_1315
REMARK  7 active torsions:
REMARK  status: ('A' for Active; 'I' for Inactive)
REMARK    1  A    between atoms: C_2  and  C_3
REMARK    2  A    between atoms: C_2  and  C_13
REMARK    3  A    between atoms: C_4  and  C_5
REMARK    4  A    between atoms: C_4  and  O_11
REMARK    5  A    between atoms: O_11  and  C_12
REMARK    6  A    between atoms: C_14  and  O_22
REMARK    7  A    between atoms: O_22  and  C_23
REMARK                            x       y       z     vdW  Elec       q    Type
REMARK                         _______ _______ _______ _____ _____    ______ ____
ROOT
ATOM      1  O   LIG A   1      -8.867   2.906 124.311  0.00  0.00    -0.287 OA
ATOM      2  C   LIG A   1      -8.171   2.355 123.449  0.00  0.00    +0.193 C 
ENDROOT
BRANCH   2   3
ATOM      3  C   LIG A   1      -7.854   3.121 122.206  0.00  0.00    +0.064 A 
ATOM      4  C   LIG A   1      -6.580   3.693 121.939  0.00  0.00    +0.142 A 
ATOM      5  C   LIG A   1      -6.372   4.314 120.681  0.00  0.00    +0.062 A 
ATOM      6  C   LIG A   1      -7.446   4.394 119.796  0.00  0.00    +0.138 A 
ATOM      7  C   LIG A   1      -8.721   3.900 120.053  0.00  0.00    +0.048 A 
ATOM      8  C   LIG A   1      -8.908   3.270 121.284  0.00  0.00    +0.019 A 
ATOM      9  O   LIG A   1      -7.078   5.017 118.645  0.00  0.00    -0.463 OA
ATOM     10  C   LIG A   1      -5.769   5.340 118.767  0.00  0.00    +0.196 A 
ATOM     11  C   LIG A   1      -5.284   4.917 119.981  0.00  0.00    +0.053 A 
BRANCH   4  12
ATOM     12  O   LIG A   1      -5.613   3.546 122.916  0.00  0.00    -0.494 OA
ATOM     13  C   LIG A   1      -5.521   4.571 123.893  0.00  0.00    +0.277 C 
ENDBRANCH   4  12
ENDBRANCH   2   3
BRANCH   2  14
ATOM     14  C   LIG A   1      -7.676   0.940 123.543  0.00  0.00    +0.097 C 
ATOM     15  C   LIG A   1      -8.328  -0.246 123.603  0.00  0.00    +0.131 C 
BRANCH  15  16
ATOM     16  C   LIG A   1      -7.542  -1.501 123.858  0.00  0.00    +0.017 A 
ATOM     17  C   LIG A   1      -6.146  -1.499 123.680  0.00  0.00    +0.011 A 
ATOM     18  C   LIG A   1      -5.382  -2.658 123.868  0.00  0.00    +0.001 A 
ATOM     19  C   LIG A   1      -6.000  -3.847 124.239  0.00  0.00    +0.000 A 
ATOM     20  C   LIG A   1      -7.379  -3.879 124.415  0.00  0.00    +0.001 A 
ATOM     21  C   LIG A   1      -8.144  -2.722 124.219  0.00  0.00    +0.011 A 
ENDBRANCH  15  16
BRANCH  15  22
ATOM     22  O   LIG A   1      -9.664  -0.511 123.460  0.00  0.00    -0.494 OA
ATOM     23  C   LIG A   1     -10.387   0.006 122.353  0.00  0.00    +0.277 C 
ENDBRANCH  15  22
ENDBRANCH   2  14
TORSDOF 5
ENDMDL
MODEL 2
REMARK VINA RESULT:      -7.8      1.515      7.238
REMARK  Name = NuBBE_1315
REMARK  7 active torsions:
REMARK  status: ('A' for Active; 'I' for Inactive)
REMARK    1  A    between atoms: C_2  and  C_3
REMARK    2  A    between atoms: C_2  and  C_13
REMARK    3  A    between atoms: C_4  and  C_5
REMARK    4  A    between atoms: C_4  and  O_11
REMARK    5  A    between atoms: O_11  and  C_12
REMARK    6  A    between atoms: C_14  and  O_22
REMARK    7  A    between atoms: O_22  and  C_23
REMARK                            x       y       z     vdW  Elec       q    Type
REMARK                         _______ _______ _______ _____ _____    ______ ____
ROOT
ATOM      1  O   LIG A   1      -8.159   2.638 125.321  0.00  0.00    -0.287 OA
ATOM      2  C   LIG A   1      -7.800   1.981 124.336  0.00  0.00    +0.193 C 
ENDROOT
BRANCH   2   3
ATOM      3  C   LIG A   1      -7.662   0.501 124.491  0.00  0.00    +0.064 A 
ATOM      4  C   LIG A   1      -8.717  -0.417 124.235  0.00  0.00    +0.142 A 
ATOM      5  C   LIG A   1      -8.437  -1.804 124.324  0.00  0.00    +0.062 A 
ATOM      6  C   LIG A   1      -7.162  -2.199 124.723  0.00  0.00    +0.138 A 
ATOM      7  C   LIG A   1      -6.127  -1.325 125.040  0.00  0.00    +0.048 A 
ATOM      8  C   LIG A   1      -6.406   0.037 124.927  0.00  0.00    +0.019 A 
ATOM      9  O   LIG A   1      -7.064  -3.555 124.757  0.00  0.00    -0.463 OA
ATOM     10  C   LIG A   1      -8.265  -4.051 124.376  0.00  0.00    +0.196 A 
ATOM     11  C   LIG A   1      -9.133  -3.027 124.081  0.00  0.00    +0.053 A 
BRANCH   4  12
ATOM     12  O   LIG A   1      -9.934   0.121 123.859  0.00  0.00    -0.494 OA
ATOM     13  C   LIG A   1     -10.218   0.170 122.469  0.00  0.00    +0.277 C 
ENDBRANCH   4  12
ENDBRANCH   2   3
BRANCH   2  14
ATOM     14  C   LIG A   1      -7.427   2.583 123.011  0.00  0.00    +0.097 C 
ATOM     15  C   LIG A   1      -6.470   3.474 122.657  0.00  0.00    +0.131 C 
BRANCH  15  16
ATOM     16  C   LIG A   1      -6.454   4.010 121.254  0.00  0.00    +0.017 A 
ATOM     17  C   LIG A   1      -5.328   4.715 120.789  0.00  0.00    +0.011 A 
ATOM     18  C   LIG A   1      -5.289   5.265 119.502  0.00  0.00    +0.001 A 
ATOM     19  C   LIG A   1      -6.378   5.122 118.649  0.00  0.00    +0.000 A 
ATOM     20  C   LIG A   1      -7.507   4.436 119.085  0.00  0.00    +0.001 A 
ATOM     21  C   LIG A   1      -7.548   3.893 120.376  0.00  0.00    +0.011 A 
ENDBRANCH  15  16
BRANCH  15  22
ATOM     22  O   LIG A   1      -5.452   3.998 123.407  0.00  0.00    -0.494 OA
ATOM     23  C   LIG A   1      -5.730   4.882 124.483  0.00  0.00    +0.277 C 
ENDBRANCH  15  22
ENDBRANCH   2  14
TORSDOF 5
ENDMDL
MODEL 3
REMARK VINA RESULT:      -7.7      2.370      7.358
REMARK  Name = NuBBE_1315
REMARK  7 active torsions:
REMARK  status: ('A' for Active; 'I' for Inactive)
REMARK    1  A    between atoms: C_2  and  C_3
REMARK    2  A    between atoms: C_2  and  C_13
REMARK    3  A    between atoms: C_4  and  C_5
REMARK    4  A    between atoms: C_4  and  O_11
REMARK    5  A    between atoms: O_11  and  C_12
REMARK    6  A    between atoms: C_14  and  O_22
REMARK    7  A    between atoms: O_22  and  C_23
REMARK                            x       y       z     vdW  Elec       q    Type
REMARK                         _______ _______ _______ _____ _____    ______ ____
ROOT
ATOM      1  O   LIG A   1     -11.260   1.114 124.201  0.00  0.00    -0.287 OA
ATOM      2  C   LIG A   1     -10.023   1.088 124.182  0.00  0.00    +0.193 C 
ENDROOT
BRANCH   2   3
ATOM      3  C   LIG A   1      -9.318   0.393 125.302  0.00  0.00    +0.064 A 
ATOM      4  C   LIG A   1      -9.048  -1.003 125.313  0.00  0.00    +0.142 A 
ATOM      5  C   LIG A   1      -8.286  -1.532 126.386  0.00  0.00    +0.062 A 
ATOM      6  C   LIG A   1      -7.896  -0.670 127.409  0.00  0.00    +0.138 A 
ATOM      7  C   LIG A   1      -8.198   0.688 127.458  0.00  0.00    +0.048 A 
ATOM      8  C   LIG A   1      -8.928   1.201 126.387  0.00  0.00    +0.019 A 
ATOM      9  O   LIG A   1      -7.179  -1.335 128.354  0.00  0.00    -0.463 OA
ATOM     10  C   LIG A   1      -7.089  -2.624 127.952  0.00  0.00    +0.196 A 
ATOM     11  C   LIG A   1      -7.730  -2.795 126.749  0.00  0.00    +0.053 A 
BRANCH   4  12
ATOM     12  O   LIG A   1      -9.507  -1.736 124.234  0.00  0.00    -0.494 OA
ATOM     13  C   LIG A   1      -8.553  -2.105 123.250  0.00  0.00    +0.277 C 
ENDBRANCH   4  12
ENDBRANCH   2   3
BRANCH   2  14
ATOM     14  C   LIG A   1      -9.181   1.767 123.141  0.00  0.00    +0.097 C 
ATOM     15  C   LIG A   1      -8.545   2.964 123.128  0.00  0.00    +0.131 C 
BRANCH  15  16
ATOM     16  C   LIG A   1      -7.906   3.439 121.854  0.00  0.00    +0.017 A 
ATOM     17  C   LIG A   1      -8.713   3.771 120.750  0.00  0.00    +0.011 A 
ATOM     18  C   LIG A   1      -8.154   4.180 119.532  0.00  0.00    +0.001 A 
ATOM     19  C   LIG A   1      -6.773   4.265 119.392  0.00  0.00    +0.000 A 
ATOM     20  C   LIG A   1      -5.952   3.935 120.466  0.00  0.00    +0.001 A 
ATOM     21  C   LIG A   1      -6.511   3.519 121.681  0.00  0.00    +0.011 A 
ENDBRANCH  15  16
BRANCH  15  22
ATOM     22  O   LIG A   1      -8.374   3.867 124.143  0.00  0.00    -0.494 OA
ATOM     23  C   LIG A   1      -7.227   3.804 124.978  0.00  0.00    +0.277 C 
ENDBRANCH  15  22
ENDBRANCH   2  14
TORSDOF 5
ENDMDL
MODEL 4
REMARK VINA RESULT:      -7.7      1.774      7.037
REMARK  Name = NuBBE_1315
REMARK  7 active torsions:
REMARK  status: ('A' for Active; 'I' for Inactive)
REMARK    1  A    between atoms: C_2  and  C_3
REMARK    2  A    between atoms: C_2  and  C_13
REMARK    3  A    between atoms: C_4  and  C_5
REMARK    4  A    between atoms: C_4  and  O_11
REMARK    5  A    between atoms: O_11  and  C_12
REMARK    6  A    between atoms: C_14  and  O_22
REMARK    7  A    between atoms: O_22  and  C_23
REMARK                            x       y       z     vdW  Elec       q    Type
REMARK                         _______ _______ _______ _____ _____    ______ ____
ROOT
ATOM      1  O   LIG A   1      -9.249   2.708 124.768  0.00  0.00    -0.287 OA
ATOM      2  C   LIG A   1      -8.773   2.076 123.817  0.00  0.00    +0.193 C 
ENDROOT
BRANCH   2   3
ATOM      3  C   LIG A   1      -8.748   0.585 123.906  0.00  0.00    +0.064 A 
ATOM      4  C   LIG A   1      -8.081  -0.129 124.939  0.00  0.00    +0.142 A 
ATOM      5  C   LIG A   1      -8.209  -1.541 124.972  0.00  0.00    +0.062 A 
ATOM      6  C   LIG A   1      -8.927  -2.164 123.953  0.00  0.00    +0.138 A 
ATOM      7  C   LIG A   1      -9.539  -1.500 122.895  0.00  0.00    +0.048 A 
ATOM      8  C   LIG A   1      -9.425  -0.109 122.885  0.00  0.00    +0.019 A 
ATOM      9  O   LIG A   1      -8.951  -3.512 124.133  0.00  0.00    -0.463 OA
ATOM     10  C   LIG A   1      -8.260  -3.775 125.268  0.00  0.00    +0.196 A 
ATOM     11  C   LIG A   1      -7.803  -2.607 125.830  0.00  0.00    +0.053 A 
BRANCH   4  12
ATOM     12  O   LIG A   1      -7.397   0.623 125.876  0.00  0.00    -0.494 OA
ATOM     13  C   LIG A   1      -5.983   0.672 125.758  0.00  0.00    +0.277 C 
ENDBRANCH   4  12
ENDBRANCH   2   3
BRANCH   2  14
ATOM     14  C   LIG A   1      -8.157   2.714 122.605  0.00  0.00    +0.097 C 
ATOM     15  C   LIG A   1      -6.955   3.307 122.404  0.00  0.00    +0.131 C 
BRANCH  15  16
ATOM     16  C   LIG A   1      -6.692   4.005 121.100  0.00  0.00    +0.017 A 
ATOM     17  C   LIG A   1      -7.666   3.977 120.085  0.00  0.00    +0.011 A 
ATOM     18  C   LIG A   1      -7.444   4.581 118.841  0.00  0.00    +0.001 A 
ATOM     19  C   LIG A   1      -6.239   5.227 118.584  0.00  0.00    +0.000 A 
ATOM     20  C   LIG A   1      -5.256   5.263 119.568  0.00  0.00    +0.001 A 
ATOM     21  C   LIG A   1      -5.476   4.651 120.809  0.00  0.00    +0.011 A 
ENDBRANCH  15  16
BRANCH  15  22
ATOM     22  O   LIG A   1      -5.872   3.380 123.239  0.00  0.00    -0.494 OA
ATOM     23  C   LIG A   1      -5.898   4.224 124.381  0.00  0.00    +0.277 C 
ENDBRANCH  15  22
ENDBRANCH   2  14
TORSDOF 5
ENDMDL
MODEL 5
REMARK VINA RESULT:      -7.7      1.154      1.588
REMARK  Name = NuBBE_1315
REMARK  7 active torsions:
REMARK  status: ('A' for Active; 'I' for Inactive)
REMARK    1  A    between atoms: C_2  and  C_3
REMARK    2  A    between atoms: C_2  and  C_13
REMARK    3  A    between atoms: C_4  and  C_5
REMARK    4  A    between atoms: C_4  and  O_11
REMARK    5  A    between atoms: O_11  and  C_12
REMARK    6  A    between atoms: C_14  and  O_22
REMARK    7  A    between atoms: O_22  and  C_23
REMARK                            x       y       z     vdW  Elec       q    Type
REMARK                         _______ _______ _______ _____ _____    ______ ____
ROOT
ATOM      1  O   LIG A   1      -9.166   2.853 124.523  0.00  0.00    -0.287 OA
ATOM      2  C   LIG A   1      -8.427   2.266 123.724  0.00  0.00    +0.193 C 
ENDROOT
BRANCH   2   3
ATOM      3  C   LIG A   1      -7.966   3.011 122.514  0.00  0.00    +0.064 A 
ATOM      4  C   LIG A   1      -6.655   3.546 122.373  0.00  0.00    +0.142 A 
ATOM      5  C   LIG A   1      -6.305   4.149 121.138  0.00  0.00    +0.062 A 
ATOM      6  C   LIG A   1      -7.282   4.248 120.149  0.00  0.00    +0.138 A 
ATOM      7  C   LIG A   1      -8.589   3.791 120.279  0.00  0.00    +0.048 A 
ATOM      8  C   LIG A   1      -8.916   3.179 121.489  0.00  0.00    +0.019 A 
ATOM      9  O   LIG A   1      -6.782   4.851 119.036  0.00  0.00    -0.463 OA
ATOM     10  C   LIG A   1      -5.484   5.140 119.288  0.00  0.00    +0.196 A 
ATOM     11  C   LIG A   1      -5.136   4.716 120.548  0.00  0.00    +0.053 A 
BRANCH   4  12
ATOM     12  O   LIG A   1      -5.797   3.383 123.444  0.00  0.00    -0.494 OA
ATOM     13  C   LIG A   1      -5.636   4.490 124.318  0.00  0.00    +0.277 C 
ENDBRANCH   4  12
ENDBRANCH   2   3
BRANCH   2  14
ATOM     14  C   LIG A   1      -8.015   0.827 123.858  0.00  0.00    +0.097 C 
ATOM     15  C   LIG A   1      -7.508   0.122 124.897  0.00  0.00    +0.131 C 
BRANCH  15  16
ATOM     16  C   LIG A   1      -7.039  -1.287 124.667  0.00  0.00    +0.017 A 
ATOM     17  C   LIG A   1      -5.682  -1.533 124.384  0.00  0.00    +0.011 A 
ATOM     18  C   LIG A   1      -5.213  -2.827 124.124  0.00  0.00    +0.001 A 
ATOM     19  C   LIG A   1      -6.091  -3.905 124.140  0.00  0.00    +0.000 A 
ATOM     20  C   LIG A   1      -7.439  -3.688 124.409  0.00  0.00    +0.001 A 
ATOM     21  C   LIG A   1      -7.910  -2.393 124.662  0.00  0.00    +0.011 A 
ENDBRANCH  15  16
BRANCH  15  22
ATOM     22  O   LIG A   1      -7.343   0.498 126.204  0.00  0.00    -0.494 OA
ATOM     23  C   LIG A   1      -6.307   1.397 126.570  0.00  0.00    +0.277 C 
ENDBRANCH  15  22
ENDBRANCH   2  14
TORSDOF 5
ENDMDL
MODEL 6
REMARK VINA RESULT:      -7.1      2.825      4.201
REMARK  Name = NuBBE_1315
REMARK  7 active torsions:
REMARK  status: ('A' for Active; 'I' for Inactive)
REMARK    1  A    between atoms: C_2  and  C_3
REMARK    2  A    between atoms: C_2  and  C_13
REMARK    3  A    between atoms: C_4  and  C_5
REMARK    4  A    between atoms: C_4  and  O_11
REMARK    5  A    between atoms: O_11  and  C_12
REMARK    6  A    between atoms: C_14  and  O_22
REMARK    7  A    between atoms: O_22  and  C_23
REMARK                            x       y       z     vdW  Elec       q    Type
REMARK                         _______ _______ _______ _____ _____    ______ ____
ROOT
ATOM      1  O   LIG A   1      -8.220   3.449 127.511  0.00  0.00    -0.287 OA
ATOM      2  C   LIG A   1      -8.005   2.497 126.751  0.00  0.00    +0.193 C 
ENDROOT
BRANCH   2   3
ATOM      3  C   LIG A   1      -7.611   2.798 125.341  0.00  0.00    +0.064 A 
ATOM      4  C   LIG A   1      -8.512   2.734 124.243  0.00  0.00    +0.142 A 
ATOM      5  C   LIG A   1      -8.044   3.136 122.966  0.00  0.00    +0.062 A 
ATOM      6  C   LIG A   1      -6.708   3.511 122.837  0.00  0.00    +0.138 A 
ATOM      7  C   LIG A   1      -5.787   3.525 123.880  0.00  0.00    +0.048 A 
ATOM      8  C   LIG A   1      -6.263   3.149 125.136  0.00  0.00    +0.019 A 
ATOM      9  O   LIG A   1      -6.427   3.864 121.554  0.00  0.00    -0.463 OA
ATOM     10  C   LIG A   1      -7.572   3.731 120.844  0.00  0.00    +0.196 A 
ATOM     11  C   LIG A   1      -8.594   3.308 121.660  0.00  0.00    +0.053 A 
BRANCH   4  12
ATOM     12  O   LIG A   1      -9.806   2.333 124.520  0.00  0.00    -0.494 OA
ATOM     13  C   LIG A   1     -10.220   1.080 123.996  0.00  0.00    +0.277 C 
ENDBRANCH   4  12
ENDBRANCH   2   3
BRANCH   2  14
ATOM     14  C   LIG A   1      -8.180   1.055 127.134  0.00  0.00    +0.097 C 
ATOM     15  C   LIG A   1      -7.305   0.023 127.206  0.00  0.00    +0.131 C 
BRANCH  15  16
ATOM     16  C   LIG A   1      -7.825  -1.361 127.472  0.00  0.00    +0.017 A 
ATOM     17  C   LIG A   1      -8.510  -2.056 126.457  0.00  0.00    +0.011 A 
ATOM     18  C   LIG A   1      -9.046  -3.331 126.678  0.00  0.00    +0.001 A 
ATOM     19  C   LIG A   1      -8.908  -3.941 127.920  0.00  0.00    +0.000 A 
ATOM     20  C   LIG A   1      -8.242  -3.273 128.943  0.00  0.00    +0.001 A 
ATOM     21  C   LIG A   1      -7.713  -1.994 128.724  0.00  0.00    +0.011 A 
ENDBRANCH  15  16
BRANCH  15  22
ATOM     22  O   LIG A   1      -5.942   0.029 127.071  0.00  0.00    -0.494 OA
ATOM     23  C   LIG A   1      -5.330  -0.514 125.910  0.00  0.00    +0.277 C 
ENDBRANCH  15  22
ENDBRANCH   2  14
TORSDOF 5
ENDMDL
MODEL 7
REMARK VINA RESULT:      -7.1      8.231     10.348
REMARK  Name = NuBBE_1315
REMARK  7 active torsions:
REMARK  status: ('A' for Active; 'I' for Inactive)
REMARK    1  A    between atoms: C_2  and  C_3
REMARK    2  A    between atoms: C_2  and  C_13
REMARK    3  A    between atoms: C_4  and  C_5
REMARK    4  A    between atoms: C_4  and  O_11
REMARK    5  A    between atoms: O_11  and  C_12
REMARK    6  A    between atoms: C_14  and  O_22
REMARK    7  A    between atoms: O_22  and  C_23
REMARK                            x       y       z     vdW  Elec       q    Type
REMARK                         _______ _______ _______ _____ _____    ______ ____
ROOT
ATOM      1  O   LIG A   1      -7.379   5.655 132.732  0.00  0.00    -0.287 OA
ATOM      2  C   LIG A   1      -7.416   6.098 131.578  0.00  0.00    +0.193 C 
ENDROOT
BRANCH   2   3
ATOM      3  C   LIG A   1      -6.148   6.105 130.787  0.00  0.00    +0.064 A 
ATOM      4  C   LIG A   1      -5.674   4.983 130.053  0.00  0.00    +0.142 A 
ATOM      5  C   LIG A   1      -4.507   5.141 129.263  0.00  0.00    +0.062 A 
ATOM      6  C   LIG A   1      -3.846   6.368 129.296  0.00  0.00    +0.138 A 
ATOM      7  C   LIG A   1      -4.250   7.464 130.051  0.00  0.00    +0.048 A 
ATOM      8  C   LIG A   1      -5.411   7.304 130.807  0.00  0.00    +0.019 A 
ATOM      9  O   LIG A   1      -2.752   6.349 128.487  0.00  0.00    -0.463 OA
ATOM     10  C   LIG A   1      -2.698   5.121 127.919  0.00  0.00    +0.196 A 
ATOM     11  C   LIG A   1      -3.755   4.352 128.343  0.00  0.00    +0.053 A 
BRANCH   4  12
ATOM     12  O   LIG A   1      -6.428   3.827 130.125  0.00  0.00    -0.494 OA
ATOM     13  C   LIG A   1      -5.919   2.771 130.925  0.00  0.00    +0.277 C 
ENDBRANCH   4  12
ENDBRANCH   2   3
BRANCH   2  14
ATOM     14  C   LIG A   1      -8.641   6.691 130.941  0.00  0.00    +0.097 C 
ATOM     15  C   LIG A   1      -9.532   6.192 130.051  0.00  0.00    +0.131 C 
BRANCH  15  16
ATOM     16  C   LIG A   1     -10.577   7.104 129.473  0.00  0.00    +0.017 A 
ATOM     17  C   LIG A   1     -11.681   7.487 130.256  0.00  0.00    +0.011 A 
ATOM     18  C   LIG A   1     -12.696   8.303 129.741  0.00  0.00    +0.001 A 
ATOM     19  C   LIG A   1     -12.630   8.754 128.428  0.00  0.00    +0.000 A 
ATOM     20  C   LIG A   1     -11.552   8.384 127.628  0.00  0.00    +0.001 A 
ATOM     21  C   LIG A   1     -10.541   7.562 128.142  0.00  0.00    +0.011 A 
ENDBRANCH  15  16
BRANCH  15  22
ATOM     22  O   LIG A   1      -9.651   4.919 129.563  0.00  0.00    -0.494 OA
ATOM     23  C   LIG A   1     -10.147   3.874 130.386  0.00  0.00    +0.277 C 
ENDBRANCH  15  22
ENDBRANCH   2  14
TORSDOF 5
ENDMDL
MODEL 8
REMARK VINA RESULT:      -7.0      2.436      3.416
REMARK  Name = NuBBE_1315
REMARK  7 active torsions:
REMARK  status: ('A' for Active; 'I' for Inactive)
REMARK    1  A    between atoms: C_2  and  C_3
REMARK    2  A    between atoms: C_2  and  C_13
REMARK    3  A    between atoms: C_4  and  C_5
REMARK    4  A    between atoms: C_4  and  O_11
REMARK    5  A    between atoms: O_11  and  C_12
REMARK    6  A    between atoms: C_14  and  O_22
REMARK    7  A    between atoms: O_22  and  C_23
REMARK                            x       y       z     vdW  Elec       q    Type
REMARK                         _______ _______ _______ _____ _____    ______ ____
ROOT
ATOM      1  O   LIG A   1     -11.044   1.331 124.195  0.00  0.00    -0.287 OA
ATOM      2  C   LIG A   1      -9.862   1.210 124.538  0.00  0.00    +0.193 C 
ENDROOT
BRANCH   2   3
ATOM      3  C   LIG A   1      -8.846   2.085 123.879  0.00  0.00    +0.064 A 
ATOM      4  C   LIG A   1      -7.716   2.624 124.555  0.00  0.00    +0.142 A 
ATOM      5  C   LIG A   1      -6.770   3.362 123.800  0.00  0.00    +0.062 A 
ATOM      6  C   LIG A   1      -7.026   3.579 122.448  0.00  0.00    +0.138 A 
ATOM      7  C   LIG A   1      -8.151   3.119 121.771  0.00  0.00    +0.048 A 
ATOM      8  C   LIG A   1      -9.064   2.375 122.518  0.00  0.00    +0.019 A 
ATOM      9  O   LIG A   1      -6.024   4.302 121.876  0.00  0.00    -0.463 OA
ATOM     10  C   LIG A   1      -5.111   4.552 122.844  0.00  0.00    +0.196 A 
ATOM     11  C   LIG A   1      -5.507   3.985 124.032  0.00  0.00    +0.053 A 
BRANCH   4  12
ATOM     12  O   LIG A   1      -7.600   2.335 125.902  0.00  0.00    -0.494 OA
ATOM     13  C   LIG A   1      -7.755   3.415 126.811  0.00  0.00    +0.277 C 
ENDBRANCH   4  12
ENDBRANCH   2   3
BRANCH   2  14
ATOM     14  C   LIG A   1      -9.370   0.192 125.527  0.00  0.00    +0.097 C 
ATOM     15  C   LIG A   1      -8.724  -0.988 125.369  0.00  0.00    +0.131 C 
BRANCH  15  16
ATOM     16  C   LIG A   1      -8.507  -1.870 126.565  0.00  0.00    +0.017 A 
ATOM     17  C   LIG A   1      -9.078  -3.156 126.597  0.00  0.00    +0.011 A 
ATOM     18  C   LIG A   1      -8.934  -3.994 127.710  0.00  0.00    +0.001 A 
ATOM     19  C   LIG A   1      -8.213  -3.562 128.819  0.00  0.00    +0.000 A 
ATOM     20  C   LIG A   1      -7.645  -2.293 128.817  0.00  0.00    +0.001 A 
ATOM     21  C   LIG A   1      -7.796  -1.452 127.706  0.00  0.00    +0.011 A 
ENDBRANCH  15  16
BRANCH  15  22
ATOM     22  O   LIG A   1      -8.200  -1.545 124.233  0.00  0.00    -0.494 OA
ATOM     23  C   LIG A   1      -9.051  -1.968 123.178  0.00  0.00    +0.277 C 
ENDBRANCH  15  22
ENDBRANCH   2  14
TORSDOF 5
ENDMDL
MODEL 9
REMARK VINA RESULT:      -6.8      3.432      5.263
REMARK  Name = NuBBE_1315
REMARK  7 active torsions:
REMARK  status: ('A' for Active; 'I' for Inactive)
REMARK    1  A    between atoms: C_2  and  C_3
REMARK    2  A    between atoms: C_2  and  C_13
REMARK    3  A    between atoms: C_4  and  C_5
REMARK    4  A    between atoms: C_4  and  O_11
REMARK    5  A    between atoms: O_11  and  C_12
REMARK    6  A    between atoms: C_14  and  O_22
REMARK    7  A    between atoms: O_22  and  C_23
REMARK                            x       y       z     vdW  Elec       q    Type
REMARK                         _______ _______ _______ _____ _____    ______ ____
ROOT
ATOM      1  O   LIG A   1      -9.732  -2.755 124.910  0.00  0.00    -0.287 OA
ATOM      2  C   LIG A   1      -8.898  -2.045 125.486  0.00  0.00    +0.193 C 
ENDROOT
BRANCH   2   3
ATOM      3  C   LIG A   1      -8.728  -0.638 125.012  0.00  0.00    +0.064 A 
ATOM      4  C   LIG A   1      -7.618  -0.198 124.239  0.00  0.00    +0.142 A 
ATOM      5  C   LIG A   1      -7.616   1.139 123.766  0.00  0.00    +0.062 A 
ATOM      6  C   LIG A   1      -8.667   1.975 124.138  0.00  0.00    +0.138 A 
ATOM      7  C   LIG A   1      -9.735   1.593 124.944  0.00  0.00    +0.048 A 
ATOM      8  C   LIG A   1      -9.739   0.269 125.384  0.00  0.00    +0.019 A 
ATOM      9  O   LIG A   1      -8.509   3.216 123.604  0.00  0.00    -0.463 OA
ATOM     10  C   LIG A   1      -7.366   3.195 122.879  0.00  0.00    +0.196 A 
ATOM     11  C   LIG A   1      -6.792   1.948 122.928  0.00  0.00    +0.053 A 
BRANCH   4  12
ATOM     12  O   LIG A   1      -6.643  -1.137 123.958  0.00  0.00    -0.494 OA
ATOM     13  C   LIG A   1      -6.645  -1.700 122.654  0.00  0.00    +0.277 C 
ENDBRANCH   4  12
ENDBRANCH   2   3
BRANCH   2  14
ATOM     14  C   LIG A   1      -7.998  -2.525 126.588  0.00  0.00    +0.097 C 
ATOM     15  C   LIG A   1      -7.559  -1.931 127.724  0.00  0.00    +0.131 C 
BRANCH  15  16
ATOM     16  C   LIG A   1      -6.520  -2.625 128.558  0.00  0.00    +0.017 A 
ATOM     17  C   LIG A   1      -5.160  -2.509 128.217  0.00  0.00    +0.011 A 
ATOM     18  C   LIG A   1      -4.164  -3.172 128.944  0.00  0.00    +0.001 A 
ATOM     19  C   LIG A   1      -4.507  -3.968 130.032  0.00  0.00    +0.000 A 
ATOM     20  C   LIG A   1      -5.846  -4.106 130.387  0.00  0.00    +0.001 A 
ATOM     21  C   LIG A   1      -6.842  -3.448 129.653  0.00  0.00    +0.011 A 
ENDBRANCH  15  16
BRANCH  15  22
ATOM     22  O   LIG A   1      -7.928  -0.733 128.276  0.00  0.00    -0.494 OA
ATOM     23  C   LIG A   1      -7.134   0.427 128.076  0.00  0.00    +0.277 C 
ENDBRANCH  15  22
ENDBRANCH   2  14
TORSDOF 5
ENDMDL
