MODEL 1
REMARK VINA RESULT:      -6.5      0.000      0.000
REMARK  Name = NuBBE_1093
REMARK  6 active torsions:
REMARK  status: ('A' for Active; 'I' for Inactive)
REMARK    1  A    between atoms: C_4  and  O_5
REMARK    2  A    between atoms: C_6  and  O_7
REMARK    3  A    between atoms: O_7  and  C_8
REMARK    4  A    between atoms: C_9  and  O_10
REMARK    5  A    between atoms: O_10  and  C_11
REMARK    6  A    between atoms: N_14  and  C_15
REMARK                            x       y       z     vdW  Elec       q    Type
REMARK                         _______ _______ _______ _____ _____    ______ ____
ROOT
ATOM      1  O   LIG A   1      -9.410  -1.844 124.594  0.00  0.00    -0.286 OA
ATOM      2  C   LIG A   1      -8.674  -1.386 125.465  0.00  0.00    +0.201 A 
ATOM      3  C   LIG A   1      -7.943  -0.121 125.223  0.00  0.00    +0.091 A 
ATOM      4  C   LIG A   1      -8.001   0.495 123.953  0.00  0.00    +0.175 A 
ATOM      5  C   LIG A   1      -7.284   1.673 123.709  0.00  0.00    +0.204 A 
ATOM      6  C   LIG A   1      -6.492   2.203 124.747  0.00  0.00    +0.167 A 
ATOM      7  C   LIG A   1      -6.464   1.592 126.011  0.00  0.00    +0.076 A 
ATOM      8  C   LIG A   1      -7.200   0.428 126.286  0.00  0.00    +0.060 A 
ATOM      9  N   LIG A   1      -7.206  -0.204 127.552  0.00  0.00    -0.343 N 
ATOM     10  C   LIG A   1      -6.679   0.526 128.709  0.00  0.00    +0.149 C 
ATOM     11  C   LIG A   1      -7.741  -1.493 127.758  0.00  0.00    +0.053 A 
ATOM     12  C   LIG A   1      -8.488  -2.104 126.737  0.00  0.00    +0.046 A 
ATOM     13  C   LIG A   1      -9.058  -3.377 126.884  0.00  0.00    +0.014 A 
ATOM     14  C   LIG A   1      -8.875  -4.082 128.067  0.00  0.00    +0.001 A 
ATOM     15  C   LIG A   1      -8.121  -3.516 129.088  0.00  0.00    +0.002 A 
ATOM     16  C   LIG A   1      -7.558  -2.241 128.934  0.00  0.00    +0.026 A 
ENDROOT
BRANCH   4  17
ATOM     17  O   LIG A   1      -8.758  -0.065 122.951  0.00  0.00    -0.503 OA
ATOM     18  H   LIG A   1      -8.580   0.420 122.112  0.00  0.00    +0.292 HD
ENDBRANCH   4  17
BRANCH   5  19
ATOM     19  O   LIG A   1      -7.242   2.391 122.538  0.00  0.00    -0.488 OA
ATOM     20  C   LIG A   1      -8.384   3.136 122.144  0.00  0.00    +0.277 C 
ENDBRANCH   5  19
BRANCH   6  21
ATOM     21  O   LIG A   1      -5.804   3.365 124.470  0.00  0.00    -0.491 OA
ATOM     22  C   LIG A   1      -4.866   3.793 125.450  0.00  0.00    +0.277 C 
ENDBRANCH   6  21
TORSDOF 3
ENDMDL
MODEL 2
REMARK VINA RESULT:      -6.4      1.623      3.170
REMARK  Name = NuBBE_1093
REMARK  6 active torsions:
REMARK  status: ('A' for Active; 'I' for Inactive)
REMARK    1  A    between atoms: C_4  and  O_5
REMARK    2  A    between atoms: C_6  and  O_7
REMARK    3  A    between atoms: O_7  and  C_8
REMARK    4  A    between atoms: C_9  and  O_10
REMARK    5  A    between atoms: O_10  and  C_11
REMARK    6  A    between atoms: N_14  and  C_15
REMARK                            x       y       z     vdW  Elec       q    Type
REMARK                         _______ _______ _______ _____ _____    ______ ____
ROOT
ATOM      1  O   LIG A   1      -5.968  -0.024 128.116  0.00  0.00    -0.286 OA
ATOM      2  C   LIG A   1      -6.713  -0.430 127.225  0.00  0.00    +0.201 A 
ATOM      3  C   LIG A   1      -6.839   0.335 125.963  0.00  0.00    +0.091 A 
ATOM      4  C   LIG A   1      -6.196   1.586 125.829  0.00  0.00    +0.175 A 
ATOM      5  C   LIG A   1      -6.340   2.328 124.651  0.00  0.00    +0.204 A 
ATOM      6  C   LIG A   1      -7.157   1.809 123.627  0.00  0.00    +0.167 A 
ATOM      7  C   LIG A   1      -7.770   0.553 123.766  0.00  0.00    +0.076 A 
ATOM      8  C   LIG A   1      -7.613  -0.221 124.927  0.00  0.00    +0.060 A 
ATOM      9  N   LIG A   1      -8.205  -1.496 125.093  0.00  0.00    -0.343 N 
ATOM     10  C   LIG A   1      -8.751  -2.181 123.917  0.00  0.00    +0.149 C 
ATOM     11  C   LIG A   1      -8.251  -2.159 126.339  0.00  0.00    +0.053 A 
ATOM     12  C   LIG A   1      -7.507  -1.654 127.418  0.00  0.00    +0.046 A 
ATOM     13  C   LIG A   1      -7.500  -2.274 128.677  0.00  0.00    +0.014 A 
ATOM     14  C   LIG A   1      -8.261  -3.417 128.888  0.00  0.00    +0.001 A 
ATOM     15  C   LIG A   1      -9.026  -3.928 127.847  0.00  0.00    +0.002 A 
ATOM     16  C   LIG A   1      -9.025  -3.304 126.591  0.00  0.00    +0.026 A 
ENDROOT
BRANCH   4  17
ATOM     17  O   LIG A   1      -5.430   2.079 126.860  0.00  0.00    -0.503 OA
ATOM     18  H   LIG A   1      -4.573   2.396 126.492  0.00  0.00    +0.292 HD
ENDBRANCH   4  17
BRANCH   5  19
ATOM     19  O   LIG A   1      -5.778   3.549 124.366  0.00  0.00    -0.488 OA
ATOM     20  C   LIG A   1      -6.366   4.722 124.907  0.00  0.00    +0.277 C 
ENDBRANCH   5  19
BRANCH   6  21
ATOM     21  O   LIG A   1      -7.271   2.567 122.482  0.00  0.00    -0.491 OA
ATOM     22  C   LIG A   1      -8.579   3.017 122.150  0.00  0.00    +0.277 C 
ENDBRANCH   6  21
TORSDOF 3
ENDMDL
MODEL 3
REMARK VINA RESULT:      -6.2      6.742      8.723
REMARK  Name = NuBBE_1093
REMARK  6 active torsions:
REMARK  status: ('A' for Active; 'I' for Inactive)
REMARK    1  A    between atoms: C_4  and  O_5
REMARK    2  A    between atoms: C_6  and  O_7
REMARK    3  A    between atoms: O_7  and  C_8
REMARK    4  A    between atoms: C_9  and  O_10
REMARK    5  A    between atoms: O_10  and  C_11
REMARK    6  A    between atoms: N_14  and  C_15
REMARK                            x       y       z     vdW  Elec       q    Type
REMARK                         _______ _______ _______ _____ _____    ______ ____
ROOT
ATOM      1  O   LIG A   1      -9.657   6.609 127.200  0.00  0.00    -0.286 OA
ATOM      2  C   LIG A   1     -10.008   6.438 128.365  0.00  0.00    +0.201 A 
ATOM      3  C   LIG A   1      -9.384   5.366 129.175  0.00  0.00    +0.091 A 
ATOM      4  C   LIG A   1      -8.473   4.468 128.574  0.00  0.00    +0.175 A 
ATOM      5  C   LIG A   1      -7.907   3.432 129.326  0.00  0.00    +0.204 A 
ATOM      6  C   LIG A   1      -8.289   3.297 130.676  0.00  0.00    +0.167 A 
ATOM      7  C   LIG A   1      -9.177   4.212 131.265  0.00  0.00    +0.076 A 
ATOM      8  C   LIG A   1      -9.732   5.276 130.536  0.00  0.00    +0.060 A 
ATOM      9  N   LIG A   1     -10.618   6.224 131.102  0.00  0.00    -0.343 N 
ATOM     10  C   LIG A   1     -10.737   6.296 132.562  0.00  0.00    +0.149 C 
ATOM     11  C   LIG A   1     -11.360   7.136 130.322  0.00  0.00    +0.053 A 
ATOM     12  C   LIG A   1     -11.069   7.272 128.954  0.00  0.00    +0.046 A 
ATOM     13  C   LIG A   1     -11.760   8.170 128.127  0.00  0.00    +0.014 A 
ATOM     14  C   LIG A   1     -12.781   8.949 128.656  0.00  0.00    +0.001 A 
ATOM     15  C   LIG A   1     -13.109   8.822 130.001  0.00  0.00    +0.002 A 
ATOM     16  C   LIG A   1     -12.411   7.923 130.821  0.00  0.00    +0.026 A 
ENDROOT
BRANCH   4  17
ATOM     17  O   LIG A   1      -8.145   4.608 127.246  0.00  0.00    -0.503 OA
ATOM     18  H   LIG A   1      -8.883   5.069 126.785  0.00  0.00    +0.292 HD
ENDBRANCH   4  17
BRANCH   5  19
ATOM     19  O   LIG A   1      -7.008   2.488 128.893  0.00  0.00    -0.488 OA
ATOM     20  C   LIG A   1      -7.475   1.397 128.114  0.00  0.00    +0.277 C 
ENDBRANCH   5  19
BRANCH   6  21
ATOM     21  O   LIG A   1      -7.708   2.267 131.384  0.00  0.00    -0.491 OA
ATOM     22  C   LIG A   1      -7.967   2.237 132.782  0.00  0.00    +0.277 C 
ENDBRANCH   6  21
TORSDOF 3
ENDMDL
MODEL 4
REMARK VINA RESULT:      -6.0      3.547      5.765
REMARK  Name = NuBBE_1093
REMARK  6 active torsions:
REMARK  status: ('A' for Active; 'I' for Inactive)
REMARK    1  A    between atoms: C_4  and  O_5
REMARK    2  A    between atoms: C_6  and  O_7
REMARK    3  A    between atoms: O_7  and  C_8
REMARK    4  A    between atoms: C_9  and  O_10
REMARK    5  A    between atoms: O_10  and  C_11
REMARK    6  A    between atoms: N_14  and  C_15
REMARK                            x       y       z     vdW  Elec       q    Type
REMARK                         _______ _______ _______ _____ _____    ______ ____
ROOT
ATOM      1  O   LIG A   1      -9.265  -3.974 127.246  0.00  0.00    -0.286 OA
ATOM      2  C   LIG A   1      -8.478  -3.118 126.846  0.00  0.00    +0.201 A 
ATOM      3  C   LIG A   1      -7.618  -2.397 127.812  0.00  0.00    +0.091 A 
ATOM      4  C   LIG A   1      -7.783  -2.610 129.199  0.00  0.00    +0.175 A 
ATOM      5  C   LIG A   1      -6.995  -1.907 130.118  0.00  0.00    +0.204 A 
ATOM      6  C   LIG A   1      -6.064  -0.971 129.624  0.00  0.00    +0.167 A 
ATOM      7  C   LIG A   1      -5.895  -0.788 128.242  0.00  0.00    +0.076 A 
ATOM      8  C   LIG A   1      -6.653  -1.507 127.304  0.00  0.00    +0.060 A 
ATOM      9  N   LIG A   1      -6.497  -1.358 125.905  0.00  0.00    -0.343 N 
ATOM     10  C   LIG A   1      -5.310  -0.664 125.396  0.00  0.00    +0.149 C 
ATOM     11  C   LIG A   1      -7.416  -1.889 124.974  0.00  0.00    +0.053 A 
ATOM     12  C   LIG A   1      -8.409  -2.779 125.415  0.00  0.00    +0.046 A 
ATOM     13  C   LIG A   1      -9.343  -3.352 124.538  0.00  0.00    +0.014 A 
ATOM     14  C   LIG A   1      -9.311  -3.029 123.188  0.00  0.00    +0.001 A 
ATOM     15  C   LIG A   1      -8.355  -2.133 122.725  0.00  0.00    +0.002 A 
ATOM     16  C   LIG A   1      -7.423  -1.567 123.607  0.00  0.00    +0.026 A 
ENDROOT
BRANCH   4  17
ATOM     17  O   LIG A   1      -8.723  -3.507 129.650  0.00  0.00    -0.503 OA
ATOM     18  H   LIG A   1      -8.795  -3.424 130.629  0.00  0.00    +0.292 HD
ENDBRANCH   4  17
BRANCH   5  19
ATOM     19  O   LIG A   1      -7.031  -2.005 131.488  0.00  0.00    -0.488 OA
ATOM     20  C   LIG A   1      -6.437  -3.133 132.114  0.00  0.00    +0.277 C 
ENDBRANCH   5  19
BRANCH   6  21
ATOM     21  O   LIG A   1      -5.305  -0.301 130.559  0.00  0.00    -0.491 OA
ATOM     22  C   LIG A   1      -3.933  -0.668 130.641  0.00  0.00    +0.277 C 
ENDBRANCH   6  21
TORSDOF 3
ENDMDL
MODEL 5
REMARK VINA RESULT:      -6.0      1.526      2.577
REMARK  Name = NuBBE_1093
REMARK  6 active torsions:
REMARK  status: ('A' for Active; 'I' for Inactive)
REMARK    1  A    between atoms: C_4  and  O_5
REMARK    2  A    between atoms: C_6  and  O_7
REMARK    3  A    between atoms: O_7  and  C_8
REMARK    4  A    between atoms: C_9  and  O_10
REMARK    5  A    between atoms: O_10  and  C_11
REMARK    6  A    between atoms: N_14  and  C_15
REMARK                            x       y       z     vdW  Elec       q    Type
REMARK                         _______ _______ _______ _____ _____    ______ ____
ROOT
ATOM      1  O   LIG A   1      -9.126  -3.369 127.121  0.00  0.00    -0.286 OA
ATOM      2  C   LIG A   1      -8.188  -2.582 127.232  0.00  0.00    +0.201 A 
ATOM      3  C   LIG A   1      -7.909  -1.610 126.150  0.00  0.00    +0.091 A 
ATOM      4  C   LIG A   1      -8.646  -1.664 124.946  0.00  0.00    +0.175 A 
ATOM      5  C   LIG A   1      -8.363  -0.769 123.907  0.00  0.00    +0.204 A 
ATOM      6  C   LIG A   1      -7.317   0.158 124.087  0.00  0.00    +0.167 A 
ATOM      7  C   LIG A   1      -6.610   0.215 125.299  0.00  0.00    +0.076 A 
ATOM      8  C   LIG A   1      -6.899  -0.653 126.364  0.00  0.00    +0.060 A 
ATOM      9  N   LIG A   1      -6.216  -0.612 127.604  0.00  0.00    -0.343 N 
ATOM     10  C   LIG A   1      -5.388   0.557 127.917  0.00  0.00    +0.149 C 
ATOM     11  C   LIG A   1      -6.335  -1.630 128.574  0.00  0.00    +0.053 A 
ATOM     12  C   LIG A   1      -7.318  -2.622 128.419  0.00  0.00    +0.046 A 
ATOM     13  C   LIG A   1      -7.496  -3.652 129.354  0.00  0.00    +0.014 A 
ATOM     14  C   LIG A   1      -6.671  -3.722 130.469  0.00  0.00    +0.001 A 
ATOM     15  C   LIG A   1      -5.673  -2.770 130.639  0.00  0.00    +0.002 A 
ATOM     16  C   LIG A   1      -5.504  -1.742 129.701  0.00  0.00    +0.026 A 
ENDROOT
BRANCH   4  17
ATOM     17  O   LIG A   1      -9.640  -2.601 124.789  0.00  0.00    -0.503 OA
ATOM     18  H   LIG A   1      -9.932  -2.598 123.849  0.00  0.00    +0.292 HD
ENDBRANCH   4  17
BRANCH   5  19
ATOM     19  O   LIG A   1      -8.989  -0.690 122.686  0.00  0.00    -0.488 OA
ATOM     20  C   LIG A   1     -10.153   0.112 122.558  0.00  0.00    +0.277 C 
ENDBRANCH   5  19
BRANCH   6  21
ATOM     21  O   LIG A   1      -7.071   1.024 123.044  0.00  0.00    -0.491 OA
ATOM     22  C   LIG A   1      -7.219   2.411 123.325  0.00  0.00    +0.277 C 
ENDBRANCH   6  21
TORSDOF 3
ENDMDL
MODEL 6
REMARK VINA RESULT:      -6.0      3.686      6.482
REMARK  Name = NuBBE_1093
REMARK  6 active torsions:
REMARK  status: ('A' for Active; 'I' for Inactive)
REMARK    1  A    between atoms: C_4  and  O_5
REMARK    2  A    between atoms: C_6  and  O_7
REMARK    3  A    between atoms: O_7  and  C_8
REMARK    4  A    between atoms: C_9  and  O_10
REMARK    5  A    between atoms: O_10  and  C_11
REMARK    6  A    between atoms: N_14  and  C_15
REMARK                            x       y       z     vdW  Elec       q    Type
REMARK                         _______ _______ _______ _____ _____    ______ ____
ROOT
ATOM      1  O   LIG A   1      -5.494  -0.368 126.425  0.00  0.00    -0.286 OA
ATOM      2  C   LIG A   1      -6.246  -1.295 126.719  0.00  0.00    +0.201 A 
ATOM      3  C   LIG A   1      -6.309  -1.779 128.117  0.00  0.00    +0.091 A 
ATOM      4  C   LIG A   1      -5.422  -1.255 129.085  0.00  0.00    +0.175 A 
ATOM      5  C   LIG A   1      -5.454  -1.734 130.401  0.00  0.00    +0.204 A 
ATOM      6  C   LIG A   1      -6.367  -2.760 130.719  0.00  0.00    +0.167 A 
ATOM      7  C   LIG A   1      -7.257  -3.253 129.752  0.00  0.00    +0.076 A 
ATOM      8  C   LIG A   1      -7.263  -2.764 128.435  0.00  0.00    +0.060 A 
ATOM      9  N   LIG A   1      -8.156  -3.229 127.440  0.00  0.00    -0.343 N 
ATOM     10  C   LIG A   1      -9.319  -4.024 127.849  0.00  0.00    +0.149 C 
ATOM     11  C   LIG A   1      -8.001  -2.921 126.072  0.00  0.00    +0.053 A 
ATOM     12  C   LIG A   1      -7.062  -1.951 125.684  0.00  0.00    +0.046 A 
ATOM     13  C   LIG A   1      -6.869  -1.589 124.342  0.00  0.00    +0.014 A 
ATOM     14  C   LIG A   1      -7.612  -2.212 123.346  0.00  0.00    +0.001 A 
ATOM     15  C   LIG A   1      -8.532  -3.193 123.695  0.00  0.00    +0.002 A 
ATOM     16  C   LIG A   1      -8.720  -3.546 125.039  0.00  0.00    +0.026 A 
ENDROOT
BRANCH   4  17
ATOM     17  O   LIG A   1      -4.522  -0.277 128.735  0.00  0.00    -0.503 OA
ATOM     18  H   LIG A   1      -4.295  -0.382 127.782  0.00  0.00    +0.292 HD
ENDBRANCH   4  17
BRANCH   5  19
ATOM     19  O   LIG A   1      -4.669  -1.326 131.451  0.00  0.00    -0.488 OA
ATOM     20  C   LIG A   1      -3.332  -1.798 131.537  0.00  0.00    +0.277 C 
ENDBRANCH   5  19
BRANCH   6  21
ATOM     21  O   LIG A   1      -6.371  -3.202 132.024  0.00  0.00    -0.491 OA
ATOM     22  C   LIG A   1      -7.505  -2.849 132.807  0.00  0.00    +0.277 C 
ENDBRANCH   6  21
TORSDOF 3
ENDMDL
MODEL 7
REMARK VINA RESULT:      -6.0      5.682      6.955
REMARK  Name = NuBBE_1093
REMARK  6 active torsions:
REMARK  status: ('A' for Active; 'I' for Inactive)
REMARK    1  A    between atoms: C_4  and  O_5
REMARK    2  A    between atoms: C_6  and  O_7
REMARK    3  A    between atoms: O_7  and  C_8
REMARK    4  A    between atoms: C_9  and  O_10
REMARK    5  A    between atoms: O_10  and  C_11
REMARK    6  A    between atoms: N_14  and  C_15
REMARK                            x       y       z     vdW  Elec       q    Type
REMARK                         _______ _______ _______ _____ _____    ______ ____
ROOT
ATOM      1  O   LIG A   1      -9.215   1.958 132.983  0.00  0.00    -0.286 OA
ATOM      2  C   LIG A   1      -8.898   2.088 131.803  0.00  0.00    +0.201 A 
ATOM      3  C   LIG A   1      -9.052   3.403 131.138  0.00  0.00    +0.091 A 
ATOM      4  C   LIG A   1      -9.669   4.473 131.826  0.00  0.00    +0.175 A 
ATOM      5  C   LIG A   1      -9.847   5.708 131.190  0.00  0.00    +0.204 A 
ATOM      6  C   LIG A   1      -9.422   5.841 129.853  0.00  0.00    +0.167 A 
ATOM      7  C   LIG A   1      -8.789   4.776 129.192  0.00  0.00    +0.076 A 
ATOM      8  C   LIG A   1      -8.573   3.540 129.822  0.00  0.00    +0.060 A 
ATOM      9  N   LIG A   1      -7.926   2.451 129.189  0.00  0.00    -0.343 N 
ATOM     10  C   LIG A   1      -7.181   2.695 127.950  0.00  0.00    +0.149 C 
ATOM     11  C   LIG A   1      -7.927   1.146 129.726  0.00  0.00    +0.053 A 
ATOM     12  C   LIG A   1      -8.398   0.937 131.034  0.00  0.00    +0.046 A 
ATOM     13  C   LIG A   1      -8.413  -0.333 131.630  0.00  0.00    +0.014 A 
ATOM     14  C   LIG A   1      -7.967  -1.436 130.914  0.00  0.00    +0.001 A 
ATOM     15  C   LIG A   1      -7.518  -1.267 129.610  0.00  0.00    +0.002 A 
ATOM     16  C   LIG A   1      -7.503   0.007 129.023  0.00  0.00    +0.026 A 
ENDROOT
BRANCH   4  17
ATOM     17  O   LIG A   1     -10.100   4.301 133.120  0.00  0.00    -0.503 OA
ATOM     18  H   LIG A   1      -9.495   3.669 133.573  0.00  0.00    +0.292 HD
ENDBRANCH   4  17
BRANCH   5  19
ATOM     19  O   LIG A   1     -10.419   6.838 131.721  0.00  0.00    -0.488 OA
ATOM     20  C   LIG A   1     -11.834   6.930 131.785  0.00  0.00    +0.277 C 
ENDBRANCH   5  19
BRANCH   6  21
ATOM     21  O   LIG A   1      -9.612   7.072 129.264  0.00  0.00    -0.491 OA
ATOM     22  C   LIG A   1     -10.546   7.122 128.192  0.00  0.00    +0.277 C 
ENDBRANCH   6  21
TORSDOF 3
ENDMDL
MODEL 8
REMARK VINA RESULT:      -5.9      3.143      5.495
REMARK  Name = NuBBE_1093
REMARK  6 active torsions:
REMARK  status: ('A' for Active; 'I' for Inactive)
REMARK    1  A    between atoms: C_4  and  O_5
REMARK    2  A    between atoms: C_6  and  O_7
REMARK    3  A    between atoms: O_7  and  C_8
REMARK    4  A    between atoms: C_9  and  O_10
REMARK    5  A    between atoms: O_10  and  C_11
REMARK    6  A    between atoms: N_14  and  C_15
REMARK                            x       y       z     vdW  Elec       q    Type
REMARK                         _______ _______ _______ _____ _____    ______ ____
ROOT
ATOM      1  O   LIG A   1      -8.664  -3.963 127.262  0.00  0.00    -0.286 OA
ATOM      2  C   LIG A   1      -8.389  -2.829 126.873  0.00  0.00    +0.201 A 
ATOM      3  C   LIG A   1      -7.916  -1.812 127.840  0.00  0.00    +0.091 A 
ATOM      4  C   LIG A   1      -7.891  -2.109 129.221  0.00  0.00    +0.175 A 
ATOM      5  C   LIG A   1      -7.476  -1.139 130.142  0.00  0.00    +0.204 A 
ATOM      6  C   LIG A   1      -7.115   0.134 129.658  0.00  0.00    +0.167 A 
ATOM      7  C   LIG A   1      -7.123   0.406 128.280  0.00  0.00    +0.076 A 
ATOM      8  C   LIG A   1      -7.505  -0.562 127.338  0.00  0.00    +0.060 A 
ATOM      9  N   LIG A   1      -7.509  -0.326 125.942  0.00  0.00    -0.343 N 
ATOM     10  C   LIG A   1      -6.811   0.854 125.423  0.00  0.00    +0.149 C 
ATOM     11  C   LIG A   1      -8.120  -1.204 125.022  0.00  0.00    +0.053 A 
ATOM     12  C   LIG A   1      -8.560  -2.465 125.457  0.00  0.00    +0.046 A 
ATOM     13  C   LIG A   1      -9.162  -3.389 124.589  0.00  0.00    +0.014 A 
ATOM     14  C   LIG A   1      -9.354  -3.057 123.254  0.00  0.00    +0.001 A 
ATOM     15  C   LIG A   1      -8.951  -1.808 122.798  0.00  0.00    +0.002 A 
ATOM     16  C   LIG A   1      -8.348  -0.892 123.671  0.00  0.00    +0.026 A 
ENDROOT
BRANCH   4  17
ATOM     17  O   LIG A   1      -8.279  -3.352 129.664  0.00  0.00    -0.503 OA
ATOM     18  H   LIG A   1      -8.331  -3.334 130.648  0.00  0.00    +0.292 HD
ENDBRANCH   4  17
BRANCH   5  19
ATOM     19  O   LIG A   1      -7.391  -1.274 131.506  0.00  0.00    -0.488 OA
ATOM     20  C   LIG A   1      -6.292  -1.979 132.063  0.00  0.00    +0.277 C 
ENDBRANCH   5  19
BRANCH   6  21
ATOM     21  O   LIG A   1      -6.710   1.060 130.595  0.00  0.00    -0.491 OA
ATOM     22  C   LIG A   1      -7.531   2.213 130.739  0.00  0.00    +0.277 C 
ENDBRANCH   6  21
TORSDOF 3
ENDMDL
MODEL 9
REMARK VINA RESULT:      -5.9      2.282      4.088
REMARK  Name = NuBBE_1093
REMARK  6 active torsions:
REMARK  status: ('A' for Active; 'I' for Inactive)
REMARK    1  A    between atoms: C_4  and  O_5
REMARK    2  A    between atoms: C_6  and  O_7
REMARK    3  A    between atoms: O_7  and  C_8
REMARK    4  A    between atoms: C_9  and  O_10
REMARK    5  A    between atoms: O_10  and  C_11
REMARK    6  A    between atoms: N_14  and  C_15
REMARK                            x       y       z     vdW  Elec       q    Type
REMARK                         _______ _______ _______ _____ _____    ______ ____
ROOT
ATOM      1  O   LIG A   1      -8.656   2.638 128.014  0.00  0.00    -0.286 OA
ATOM      2  C   LIG A   1      -8.416   1.439 128.133  0.00  0.00    +0.201 A 
ATOM      3  C   LIG A   1      -8.314   0.582 126.928  0.00  0.00    +0.091 A 
ATOM      4  C   LIG A   1      -8.607   1.121 125.655  0.00  0.00    +0.175 A 
ATOM      5  C   LIG A   1      -8.545   0.307 124.517  0.00  0.00    +0.204 A 
ATOM      6  C   LIG A   1      -8.213  -1.053 124.682  0.00  0.00    +0.167 A 
ATOM      7  C   LIG A   1      -7.902  -1.566 125.951  0.00  0.00    +0.076 A 
ATOM      8  C   LIG A   1      -7.927  -0.760 127.100  0.00  0.00    +0.060 A 
ATOM      9  N   LIG A   1      -7.605  -1.242 128.392  0.00  0.00    -0.343 N 
ATOM     10  C   LIG A   1      -6.929  -2.537 128.515  0.00  0.00    +0.149 C 
ATOM     11  C   LIG A   1      -7.866  -0.506 129.568  0.00  0.00    +0.053 A 
ATOM     12  C   LIG A   1      -8.262   0.838 129.468  0.00  0.00    +0.046 A 
ATOM     13  C   LIG A   1      -8.523   1.627 130.599  0.00  0.00    +0.014 A 
ATOM     14  C   LIG A   1      -8.406   1.075 131.868  0.00  0.00    +0.001 A 
ATOM     15  C   LIG A   1      -8.039  -0.259 131.999  0.00  0.00    +0.002 A 
ATOM     16  C   LIG A   1      -7.778  -1.040 130.864  0.00  0.00    +0.026 A 
ENDROOT
BRANCH   4  17
ATOM     17  O   LIG A   1      -8.958   2.444 125.531  0.00  0.00    -0.503 OA
ATOM     18  H   LIG A   1      -9.856   2.570 125.917  0.00  0.00    +0.292 HD
ENDBRANCH   4  17
BRANCH   5  19
ATOM     19  O   LIG A   1      -8.792   0.678 123.217  0.00  0.00    -0.488 OA
ATOM     20  C   LIG A   1     -10.137   0.838 122.790  0.00  0.00    +0.277 C 
ENDBRANCH   5  19
BRANCH   6  21
ATOM     21  O   LIG A   1      -8.159  -1.820 123.538  0.00  0.00    -0.491 OA
ATOM     22  C   LIG A   1      -9.093  -2.890 123.451  0.00  0.00    +0.277 C 
ENDBRANCH   6  21
TORSDOF 3
ENDMDL
