MODEL 1
REMARK VINA RESULT:      -5.5      0.000      0.000
REMARK  Name = NuBBE_1015
REMARK  4 active torsions:
REMARK  status: ('A' for Active; 'I' for Inactive)
REMARK    1  A    between atoms: O_1  and  C_2
REMARK    2  A    between atoms: C_2  and  C_3
REMARK    3  A    between atoms: C_3  and  C_4
REMARK    4  A    between atoms: C_7  and  O_8
REMARK                            x       y       z     vdW  Elec       q    Type
REMARK                         _______ _______ _______ _____ _____    ______ ____
ROOT
ATOM      1  C   LIG A   1     -12.652   8.998 129.066  0.00  0.00    -0.045 A 
ATOM      2  C   LIG A   1     -13.517   8.202 128.300  0.00  0.00    +0.007 A 
ATOM      3  C   LIG A   1     -13.015   7.374 127.294  0.00  0.00    +0.045 A 
ATOM      4  C   LIG A   1     -11.645   7.339 127.056  0.00  0.00    +0.117 A 
ATOM      5  C   LIG A   1     -10.773   8.118 127.806  0.00  0.00    +0.045 A 
ATOM      6  C   LIG A   1     -11.274   8.946 128.811  0.00  0.00    +0.007 A 
ENDROOT
BRANCH   4   7
ATOM      7  O   LIG A   1     -11.113   6.542 126.088  0.00  0.00    -0.507 OA
ATOM      8  H   LIG A   1     -11.840   6.133 125.589  0.00  0.00    +0.292 HD
ENDBRANCH   4   7
BRANCH   1   9
ATOM      9  C   LIG A   1     -13.192   9.870 130.169  0.00  0.00    +0.063 C 
BRANCH   9  10
ATOM     10  C   LIG A   1     -13.686  11.213 129.644  0.00  0.00    +0.160 C 
BRANCH  10  11
ATOM     11  O   LIG A   1     -13.813  12.127 130.729  0.00  0.00    -0.395 OA
ATOM     12  H   LIG A   1     -12.912  12.376 130.997  0.00  0.00    +0.209 HD
ENDBRANCH  10  11
ENDBRANCH   9  10
ENDBRANCH   1   9
TORSDOF 4
ENDMDL
MODEL 2
REMARK VINA RESULT:      -5.5     13.260     15.011
REMARK  Name = NuBBE_1015
REMARK  4 active torsions:
REMARK  status: ('A' for Active; 'I' for Inactive)
REMARK    1  A    between atoms: O_1  and  C_2
REMARK    2  A    between atoms: C_2  and  C_3
REMARK    3  A    between atoms: C_3  and  C_4
REMARK    4  A    between atoms: C_7  and  O_8
REMARK                            x       y       z     vdW  Elec       q    Type
REMARK                         _______ _______ _______ _____ _____    ______ ____
ROOT
ATOM      1  C   LIG A   1      -5.934  -3.055 123.480  0.00  0.00    -0.045 A 
ATOM      2  C   LIG A   1      -6.771  -3.791 124.332  0.00  0.00    +0.007 A 
ATOM      3  C   LIG A   1      -8.154  -3.599 124.309  0.00  0.00    +0.045 A 
ATOM      4  C   LIG A   1      -8.701  -2.670 123.430  0.00  0.00    +0.117 A 
ATOM      5  C   LIG A   1      -7.888  -1.933 122.576  0.00  0.00    +0.045 A 
ATOM      6  C   LIG A   1      -6.506  -2.125 122.600  0.00  0.00    +0.007 A 
ENDROOT
BRANCH   4   7
ATOM      7  O   LIG A   1     -10.045  -2.454 123.370  0.00  0.00    -0.507 OA
ATOM      8  H   LIG A   1     -10.480  -3.034 124.017  0.00  0.00    +0.292 HD
ENDBRANCH   4   7
BRANCH   1   9
ATOM      9  C   LIG A   1      -4.445  -3.283 123.487  0.00  0.00    +0.063 C 
BRANCH   9  10
ATOM     10  C   LIG A   1      -4.087  -4.694 123.941  0.00  0.00    +0.160 C 
BRANCH  10  11
ATOM     11  O   LIG A   1      -4.125  -5.575 122.823  0.00  0.00    -0.395 OA
ATOM     12  H   LIG A   1      -3.973  -5.033 122.030  0.00  0.00    +0.209 HD
ENDBRANCH  10  11
ENDBRANCH   9  10
ENDBRANCH   1   9
TORSDOF 4
ENDMDL
MODEL 3
REMARK VINA RESULT:      -5.4      2.906      3.454
REMARK  Name = NuBBE_1015
REMARK  4 active torsions:
REMARK  status: ('A' for Active; 'I' for Inactive)
REMARK    1  A    between atoms: O_1  and  C_2
REMARK    2  A    between atoms: C_2  and  C_3
REMARK    3  A    between atoms: C_3  and  C_4
REMARK    4  A    between atoms: C_7  and  O_8
REMARK                            x       y       z     vdW  Elec       q    Type
REMARK                         _______ _______ _______ _____ _____    ______ ____
ROOT
ATOM      1  C   LIG A   1     -12.318   7.424 129.371  0.00  0.00    -0.045 A 
ATOM      2  C   LIG A   1     -11.116   8.120 129.170  0.00  0.00    +0.007 A 
ATOM      3  C   LIG A   1     -10.615   8.313 127.880  0.00  0.00    +0.045 A 
ATOM      4  C   LIG A   1     -11.319   7.813 126.790  0.00  0.00    +0.117 A 
ATOM      5  C   LIG A   1     -12.513   7.123 126.970  0.00  0.00    +0.045 A 
ATOM      6  C   LIG A   1     -13.013   6.929 128.258  0.00  0.00    +0.007 A 
ENDROOT
BRANCH   4   7
ATOM      7  O   LIG A   1     -10.870   7.983 125.515  0.00  0.00    -0.507 OA
ATOM      8  H   LIG A   1     -10.036   8.480 125.545  0.00  0.00    +0.292 HD
ENDBRANCH   4   7
BRANCH   1   9
ATOM      9  C   LIG A   1     -12.871   7.240 130.760  0.00  0.00    +0.063 C 
BRANCH   9  10
ATOM     10  C   LIG A   1     -11.845   6.624 131.705  0.00  0.00    +0.160 C 
BRANCH  10  11
ATOM     11  O   LIG A   1     -11.534   5.304 131.270  0.00  0.00    -0.395 OA
ATOM     12  H   LIG A   1     -11.787   4.702 131.990  0.00  0.00    +0.209 HD
ENDBRANCH  10  11
ENDBRANCH   9  10
ENDBRANCH   1   9
TORSDOF 4
ENDMDL
MODEL 4
REMARK VINA RESULT:      -5.4      3.078      4.707
REMARK  Name = NuBBE_1015
REMARK  4 active torsions:
REMARK  status: ('A' for Active; 'I' for Inactive)
REMARK    1  A    between atoms: O_1  and  C_2
REMARK    2  A    between atoms: C_2  and  C_3
REMARK    3  A    between atoms: C_3  and  C_4
REMARK    4  A    between atoms: C_7  and  O_8
REMARK                            x       y       z     vdW  Elec       q    Type
REMARK                         _______ _______ _______ _____ _____    ______ ____
ROOT
ATOM      1  C   LIG A   1     -11.450   7.733 129.276  0.00  0.00    -0.045 A 
ATOM      2  C   LIG A   1     -10.130   7.392 129.607  0.00  0.00    +0.007 A 
ATOM      3  C   LIG A   1      -9.844   6.745 130.811  0.00  0.00    +0.045 A 
ATOM      4  C   LIG A   1     -10.881   6.435 131.685  0.00  0.00    +0.117 A 
ATOM      5  C   LIG A   1     -12.195   6.763 131.373  0.00  0.00    +0.045 A 
ATOM      6  C   LIG A   1     -12.481   7.410 130.170  0.00  0.00    +0.007 A 
ENDROOT
BRANCH   4   7
ATOM      7  O   LIG A   1     -10.648   5.800 132.867  0.00  0.00    -0.507 OA
ATOM      8  H   LIG A   1      -9.688   5.748 133.007  0.00  0.00    +0.292 HD
ENDBRANCH   4   7
BRANCH   1   9
ATOM      9  C   LIG A   1     -11.759   8.406 127.965  0.00  0.00    +0.063 C 
BRANCH   9  10
ATOM     10  C   LIG A   1     -10.970   7.797 126.811  0.00  0.00    +0.160 C 
BRANCH  10  11
ATOM     11  O   LIG A   1     -11.695   6.699 126.268  0.00  0.00    -0.395 OA
ATOM     12  H   LIG A   1     -12.257   7.054 125.559  0.00  0.00    +0.209 HD
ENDBRANCH  10  11
ENDBRANCH   9  10
ENDBRANCH   1   9
TORSDOF 4
ENDMDL
MODEL 5
REMARK VINA RESULT:      -5.2      8.621     10.445
REMARK  Name = NuBBE_1015
REMARK  4 active torsions:
REMARK  status: ('A' for Active; 'I' for Inactive)
REMARK    1  A    between atoms: O_1  and  C_2
REMARK    2  A    between atoms: C_2  and  C_3
REMARK    3  A    between atoms: C_3  and  C_4
REMARK    4  A    between atoms: C_7  and  O_8
REMARK                            x       y       z     vdW  Elec       q    Type
REMARK                         _______ _______ _______ _____ _____    ______ ____
ROOT
ATOM      1  C   LIG A   1      -6.161   3.657 121.925  0.00  0.00    -0.045 A 
ATOM      2  C   LIG A   1      -7.444   3.251 121.529  0.00  0.00    +0.007 A 
ATOM      3  C   LIG A   1      -8.459   3.081 122.473  0.00  0.00    +0.045 A 
ATOM      4  C   LIG A   1      -8.190   3.321 123.817  0.00  0.00    +0.117 A 
ATOM      5  C   LIG A   1      -6.925   3.726 124.228  0.00  0.00    +0.045 A 
ATOM      6  C   LIG A   1      -5.912   3.895 123.284  0.00  0.00    +0.007 A 
ENDROOT
BRANCH   4   7
ATOM      7  O   LIG A   1      -9.151   3.173 124.771  0.00  0.00    -0.507 OA
ATOM      8  H   LIG A   1      -8.876   3.660 125.565  0.00  0.00    +0.292 HD
ENDBRANCH   4   7
BRANCH   1   9
ATOM      9  C   LIG A   1      -5.076   3.867 120.902  0.00  0.00    +0.063 C 
BRANCH   9  10
ATOM     10  C   LIG A   1      -5.360   5.068 120.007  0.00  0.00    +0.160 C 
BRANCH  10  11
ATOM     11  O   LIG A   1      -4.625   6.193 120.478  0.00  0.00    -0.395 OA
ATOM     12  H   LIG A   1      -3.969   5.857 121.112  0.00  0.00    +0.209 HD
ENDBRANCH  10  11
ENDBRANCH   9  10
ENDBRANCH   1   9
TORSDOF 4
ENDMDL
MODEL 6
REMARK VINA RESULT:      -5.1      9.110     10.943
REMARK  Name = NuBBE_1015
REMARK  4 active torsions:
REMARK  status: ('A' for Active; 'I' for Inactive)
REMARK    1  A    between atoms: O_1  and  C_2
REMARK    2  A    between atoms: C_2  and  C_3
REMARK    3  A    between atoms: C_3  and  C_4
REMARK    4  A    between atoms: C_7  and  O_8
REMARK                            x       y       z     vdW  Elec       q    Type
REMARK                         _______ _______ _______ _____ _____    ______ ____
ROOT
ATOM      1  C   LIG A   1      -6.329   3.673 121.419  0.00  0.00    -0.045 A 
ATOM      2  C   LIG A   1      -7.303   3.724 120.411  0.00  0.00    +0.007 A 
ATOM      3  C   LIG A   1      -7.117   4.528 119.283  0.00  0.00    +0.045 A 
ATOM      4  C   LIG A   1      -5.953   5.279 119.163  0.00  0.00    +0.117 A 
ATOM      5  C   LIG A   1      -4.976   5.239 120.151  0.00  0.00    +0.045 A 
ATOM      6  C   LIG A   1      -5.161   4.437 121.277  0.00  0.00    +0.007 A 
ENDROOT
BRANCH   4   7
ATOM      7  O   LIG A   1      -5.728   6.072 118.079  0.00  0.00    -0.507 OA
ATOM      8  H   LIG A   1      -6.396   6.778 118.069  0.00  0.00    +0.292 HD
ENDBRANCH   4   7
BRANCH   1   9
ATOM      9  C   LIG A   1      -6.519   2.785 122.620  0.00  0.00    +0.063 C 
BRANCH   9  10
ATOM     10  C   LIG A   1      -6.921   3.578 123.858  0.00  0.00    +0.160 C 
BRANCH  10  11
ATOM     11  O   LIG A   1      -8.301   3.919 123.775  0.00  0.00    -0.395 OA
ATOM     12  H   LIG A   1      -8.677   3.399 123.044  0.00  0.00    +0.209 HD
ENDBRANCH  10  11
ENDBRANCH   9  10
ENDBRANCH   1   9
TORSDOF 4
ENDMDL
MODEL 7
REMARK VINA RESULT:      -4.8      3.585      4.576
REMARK  Name = NuBBE_1015
REMARK  4 active torsions:
REMARK  status: ('A' for Active; 'I' for Inactive)
REMARK    1  A    between atoms: O_1  and  C_2
REMARK    2  A    between atoms: C_2  and  C_3
REMARK    3  A    between atoms: C_3  and  C_4
REMARK    4  A    between atoms: C_7  and  O_8
REMARK                            x       y       z     vdW  Elec       q    Type
REMARK                         _______ _______ _______ _____ _____    ______ ____
ROOT
ATOM      1  C   LIG A   1     -10.496   7.082 130.349  0.00  0.00    -0.045 A 
ATOM      2  C   LIG A   1     -10.100   7.744 129.177  0.00  0.00    +0.007 A 
ATOM      3  C   LIG A   1     -10.985   8.593 128.507  0.00  0.00    +0.045 A 
ATOM      4  C   LIG A   1     -12.267   8.782 129.014  0.00  0.00    +0.117 A 
ATOM      5  C   LIG A   1     -12.675   8.137 130.175  0.00  0.00    +0.045 A 
ATOM      6  C   LIG A   1     -11.792   7.289 130.843  0.00  0.00    +0.007 A 
ENDROOT
BRANCH   4   7
ATOM      7  O   LIG A   1     -13.160   9.605 128.396  0.00  0.00    -0.507 OA
ATOM      8  H   LIG A   1     -13.185  10.449 128.876  0.00  0.00    +0.292 HD
ENDBRANCH   4   7
BRANCH   1   9
ATOM      9  C   LIG A   1      -9.531   6.189 131.084  0.00  0.00    +0.063 C 
BRANCH   9  10
ATOM     10  C   LIG A   1     -10.108   5.693 132.406  0.00  0.00    +0.160 C 
BRANCH  10  11
ATOM     11  O   LIG A   1      -9.480   6.380 133.484  0.00  0.00    -0.395 OA
ATOM     12  H   LIG A   1      -9.800   5.970 134.305  0.00  0.00    +0.209 HD
ENDBRANCH  10  11
ENDBRANCH   9  10
ENDBRANCH   1   9
TORSDOF 4
ENDMDL
MODEL 8
REMARK VINA RESULT:      -4.6     11.540     14.370
REMARK  Name = NuBBE_1015
REMARK  4 active torsions:
REMARK  status: ('A' for Active; 'I' for Inactive)
REMARK    1  A    between atoms: O_1  and  C_2
REMARK    2  A    between atoms: C_2  and  C_3
REMARK    3  A    between atoms: C_3  and  C_4
REMARK    4  A    between atoms: C_7  and  O_8
REMARK                            x       y       z     vdW  Elec       q    Type
REMARK                         _______ _______ _______ _____ _____    ______ ____
ROOT
ATOM      1  C   LIG A   1      -5.865  -2.708 124.175  0.00  0.00    -0.045 A 
ATOM      2  C   LIG A   1      -5.731  -1.937 125.339  0.00  0.00    +0.007 A 
ATOM      3  C   LIG A   1      -6.118  -0.595 125.351  0.00  0.00    +0.045 A 
ATOM      4  C   LIG A   1      -6.643  -0.025 124.196  0.00  0.00    +0.117 A 
ATOM      5  C   LIG A   1      -6.785  -0.774 123.034  0.00  0.00    +0.045 A 
ATOM      6  C   LIG A   1      -6.398  -2.114 123.022  0.00  0.00    +0.007 A 
ENDROOT
BRANCH   4   7
ATOM      7  O   LIG A   1      -7.038   1.279 124.164  0.00  0.00    -0.507 OA
ATOM      8  H   LIG A   1      -6.666   1.695 123.370  0.00  0.00    +0.292 HD
ENDBRANCH   4   7
BRANCH   1   9
ATOM      9  C   LIG A   1      -5.473  -4.162 124.172  0.00  0.00    +0.063 C 
BRANCH   9  10
ATOM     10  C   LIG A   1      -4.128  -4.389 123.491  0.00  0.00    +0.160 C 
BRANCH  10  11
ATOM     11  O   LIG A   1      -4.095  -5.698 122.931  0.00  0.00    -0.395 OA
ATOM     12  H   LIG A   1      -3.966  -5.593 121.973  0.00  0.00    +0.209 HD
ENDBRANCH  10  11
ENDBRANCH   9  10
ENDBRANCH   1   9
TORSDOF 4
ENDMDL
MODEL 9
REMARK VINA RESULT:      -4.5     11.952     13.121
REMARK  Name = NuBBE_1015
REMARK  4 active torsions:
REMARK  status: ('A' for Active; 'I' for Inactive)
REMARK    1  A    between atoms: O_1  and  C_2
REMARK    2  A    between atoms: C_2  and  C_3
REMARK    3  A    between atoms: C_3  and  C_4
REMARK    4  A    between atoms: C_7  and  O_8
REMARK                            x       y       z     vdW  Elec       q    Type
REMARK                         _______ _______ _______ _____ _____    ______ ____
ROOT
ATOM      1  C   LIG A   1      -8.637  -2.418 126.446  0.00  0.00    -0.045 A 
ATOM      2  C   LIG A   1      -7.917  -1.487 127.209  0.00  0.00    +0.007 A 
ATOM      3  C   LIG A   1      -7.621  -1.744 128.550  0.00  0.00    +0.045 A 
ATOM      4  C   LIG A   1      -8.045  -2.935 129.128  0.00  0.00    +0.117 A 
ATOM      5  C   LIG A   1      -8.759  -3.871 128.387  0.00  0.00    +0.045 A 
ATOM      6  C   LIG A   1      -9.054  -3.615 127.048  0.00  0.00    +0.007 A 
ENDROOT
BRANCH   4   7
ATOM      7  O   LIG A   1      -7.775  -3.229 130.431  0.00  0.00    -0.507 OA
ATOM      8  H   LIG A   1      -6.882  -3.607 130.483  0.00  0.00    +0.292 HD
ENDBRANCH   4   7
BRANCH   1   9
ATOM      9  C   LIG A   1      -8.931  -2.152 124.993  0.00  0.00    +0.063 C 
BRANCH   9  10
ATOM     10  C   LIG A   1      -8.989  -3.440 124.178  0.00  0.00    +0.160 C 
BRANCH  10  11
ATOM     11  O   LIG A   1     -10.177  -3.451 123.394  0.00  0.00    -0.395 OA
ATOM     12  H   LIG A   1     -10.013  -2.881 122.623  0.00  0.00    +0.209 HD
ENDBRANCH  10  11
ENDBRANCH   9  10
ENDBRANCH   1   9
TORSDOF 4
ENDMDL
