MODEL 1
REMARK VINA RESULT:      -8.1      0.000      0.000
REMARK  Name = NuBBE_2264
REMARK  11 active torsions:
REMARK  status: ('A' for Active; 'I' for Inactive)
REMARK    1  A    between atoms: C_1  and  C_2
REMARK    2  A    between atoms: C_5  and  C_6
REMARK    3  A    between atoms: C_9  and  O_10
REMARK    4  A    between atoms: O_10  and  C_11
REMARK    5  A    between atoms: C_11  and  C_12
REMARK    6  A    between atoms: C_14  and  C_15
REMARK    7  A    between atoms: C_15  and  C_16
REMARK    8  A    between atoms: C_15  and  O_17
REMARK    9  A    between atoms: C_15  and  C_21
REMARK   10  A    between atoms: O_17  and  C_18
REMARK   11  A    between atoms: C_18  and  C_19
REMARK                            x       y       z     vdW  Elec       q    Type
REMARK                         _______ _______ _______ _____ _____    ______ ____
ROOT
ATOM      1  C   LIG A   1      -3.982   4.946 121.392  0.00  0.00    +0.044 C 
ATOM      2  C   LIG A   1      -5.331   4.715 120.763  0.00  0.00    -0.043 A 
ATOM      3  C   LIG A   1      -5.539   5.165 119.454  0.00  0.00    +0.004 A 
ATOM      4  C   LIG A   1      -6.761   4.969 118.823  0.00  0.00    +0.004 A 
ATOM      5  C   LIG A   1      -7.806   4.308 119.481  0.00  0.00    -0.043 A 
ATOM      6  C   LIG A   1      -9.104   4.120 118.736  0.00  0.00    +0.044 C 
ATOM      7  C   LIG A   1      -7.616   3.831 120.806  0.00  0.00    -0.011 A 
ATOM      8  C   LIG A   1      -8.615   3.122 121.505  0.00  0.00    +0.055 A 
ATOM      9  C   LIG A   1      -8.396   2.609 122.788  0.00  0.00    +0.139 A 
ATOM     10  C   LIG A   1      -7.197   2.833 123.473  0.00  0.00    +0.038 A 
ATOM     11  C   LIG A   1      -6.205   3.550 122.774  0.00  0.00    +0.020 A 
ATOM     12  C   LIG A   1      -6.373   4.042 121.455  0.00  0.00    -0.014 A 
ENDROOT
BRANCH  10  13
ATOM     13  C   LIG A   1      -6.861   2.254 124.858  0.00  0.00    +0.136 C 
ATOM     14  C   LIG A   1      -5.593   2.994 125.339  0.00  0.00    +0.061 C 
ATOM     15  C   LIG A   1      -6.563   0.743 124.977  0.00  0.00    +0.061 C 
BRANCH  13  16
ATOM     16  O   LIG A   1      -7.892   2.585 125.844  0.00  0.00    -0.454 OA
BRANCH  16  17
ATOM     17  C   LIG A   1      -8.049   3.882 126.231  0.00  0.00    +0.305 C 
ATOM     18  C   LIG A   1      -7.536   4.070 127.625  0.00  0.00    +0.136 C 
ATOM     19  O   LIG A   1      -8.558   4.780 125.577  0.00  0.00    -0.251 OA
ENDBRANCH  16  17
ENDBRANCH  13  16
ENDBRANCH  10  13
BRANCH   9  20
ATOM     20  O   LIG A   1      -9.384   1.844 123.455  0.00  0.00    -0.426 OA
BRANCH  20  21
ATOM     21  C   LIG A   1     -10.079   0.717 123.017  0.00  0.00    +0.309 C 
ATOM     22  C   LIG A   1      -9.116  -0.428 123.009  0.00  0.00    +0.136 C 
ATOM     23  O   LIG A   1     -11.262   0.644 122.698  0.00  0.00    -0.251 OA
ENDBRANCH  20  21
ENDBRANCH   9  20
TORSDOF 5
ENDMDL
MODEL 2
REMARK VINA RESULT:      -6.9      2.826      4.750
REMARK  Name = NuBBE_2264
REMARK  11 active torsions:
REMARK  status: ('A' for Active; 'I' for Inactive)
REMARK    1  A    between atoms: C_1  and  C_2
REMARK    2  A    between atoms: C_5  and  C_6
REMARK    3  A    between atoms: C_9  and  O_10
REMARK    4  A    between atoms: O_10  and  C_11
REMARK    5  A    between atoms: C_11  and  C_12
REMARK    6  A    between atoms: C_14  and  C_15
REMARK    7  A    between atoms: C_15  and  C_16
REMARK    8  A    between atoms: C_15  and  O_17
REMARK    9  A    between atoms: C_15  and  C_21
REMARK   10  A    between atoms: O_17  and  C_18
REMARK   11  A    between atoms: C_18  and  C_19
REMARK                            x       y       z     vdW  Elec       q    Type
REMARK                         _______ _______ _______ _____ _____    ______ ____
ROOT
ATOM      1  C   LIG A   1      -4.319   2.517 127.061  0.00  0.00    +0.044 C 
ATOM      2  C   LIG A   1      -5.106   2.736 125.795  0.00  0.00    -0.043 A 
ATOM      3  C   LIG A   1      -5.094   4.012 125.218  0.00  0.00    +0.004 A 
ATOM      4  C   LIG A   1      -5.793   4.267 124.046  0.00  0.00    +0.004 A 
ATOM      5  C   LIG A   1      -6.519   3.250 123.413  0.00  0.00    -0.043 A 
ATOM      6  C   LIG A   1      -7.249   3.591 122.138  0.00  0.00    +0.044 C 
ATOM      7  C   LIG A   1      -6.538   1.943 123.972  0.00  0.00    -0.011 A 
ATOM      8  C   LIG A   1      -7.215   0.868 123.358  0.00  0.00    +0.055 A 
ATOM      9  C   LIG A   1      -7.180  -0.426 123.890  0.00  0.00    +0.139 A 
ATOM     10  C   LIG A   1      -6.528  -0.707 125.095  0.00  0.00    +0.038 A 
ATOM     11  C   LIG A   1      -5.861   0.373 125.709  0.00  0.00    +0.020 A 
ATOM     12  C   LIG A   1      -5.833   1.686 125.175  0.00  0.00    -0.014 A 
ENDROOT
BRANCH  10  13
ATOM     13  C   LIG A   1      -6.397  -2.110 125.710  0.00  0.00    +0.136 C 
ATOM     14  C   LIG A   1      -5.473  -1.957 126.940  0.00  0.00    +0.061 C 
ATOM     15  C   LIG A   1      -5.800  -3.245 124.848  0.00  0.00    +0.061 C 
BRANCH  13  16
ATOM     16  O   LIG A   1      -7.674  -2.583 126.250  0.00  0.00    -0.454 OA
BRANCH  16  17
ATOM     17  C   LIG A   1      -8.006  -2.277 127.535  0.00  0.00    +0.305 C 
ATOM     18  C   LIG A   1      -8.388  -3.519 128.279  0.00  0.00    +0.136 C 
ATOM     19  O   LIG A   1      -8.031  -1.161 128.034  0.00  0.00    -0.251 OA
ENDBRANCH  16  17
ENDBRANCH  13  16
ENDBRANCH  10  13
BRANCH   9  20
ATOM     20  O   LIG A   1      -7.810  -1.510 123.232  0.00  0.00    -0.426 OA
BRANCH  20  21
ATOM     21  C   LIG A   1      -9.169  -1.764 123.041  0.00  0.00    +0.309 C 
ATOM     22  C   LIG A   1      -9.410  -3.199 123.386  0.00  0.00    +0.136 C 
ATOM     23  O   LIG A   1     -10.031  -0.975 122.668  0.00  0.00    -0.251 OA
ENDBRANCH  20  21
ENDBRANCH   9  20
TORSDOF 5
ENDMDL
MODEL 3
REMARK VINA RESULT:      -6.8      3.726      7.738
REMARK  Name = NuBBE_2264
REMARK  11 active torsions:
REMARK  status: ('A' for Active; 'I' for Inactive)
REMARK    1  A    between atoms: C_1  and  C_2
REMARK    2  A    between atoms: C_5  and  C_6
REMARK    3  A    between atoms: C_9  and  O_10
REMARK    4  A    between atoms: O_10  and  C_11
REMARK    5  A    between atoms: C_11  and  C_12
REMARK    6  A    between atoms: C_14  and  C_15
REMARK    7  A    between atoms: C_15  and  C_16
REMARK    8  A    between atoms: C_15  and  O_17
REMARK    9  A    between atoms: C_15  and  C_21
REMARK   10  A    between atoms: O_17  and  C_18
REMARK   11  A    between atoms: C_18  and  C_19
REMARK                            x       y       z     vdW  Elec       q    Type
REMARK                         _______ _______ _______ _____ _____    ______ ____
ROOT
ATOM      1  C   LIG A   1      -7.470  -3.296 129.545  0.00  0.00    +0.044 C 
ATOM      2  C   LIG A   1      -7.734  -1.842 129.255  0.00  0.00    -0.043 A 
ATOM      3  C   LIG A   1      -7.739  -0.941 130.327  0.00  0.00    +0.004 A 
ATOM      4  C   LIG A   1      -7.966   0.412 130.114  0.00  0.00    +0.004 A 
ATOM      5  C   LIG A   1      -8.187   0.905 128.822  0.00  0.00    -0.043 A 
ATOM      6  C   LIG A   1      -8.419   2.386 128.659  0.00  0.00    +0.044 C 
ATOM      7  C   LIG A   1      -8.176   0.012 127.716  0.00  0.00    -0.011 A 
ATOM      8  C   LIG A   1      -8.349   0.454 126.387  0.00  0.00    +0.055 A 
ATOM      9  C   LIG A   1      -8.281  -0.427 125.302  0.00  0.00    +0.139 A 
ATOM     10  C   LIG A   1      -8.105  -1.802 125.483  0.00  0.00    +0.038 A 
ATOM     11  C   LIG A   1      -7.940  -2.240 126.814  0.00  0.00    +0.020 A 
ATOM     12  C   LIG A   1      -7.955  -1.371 127.934  0.00  0.00    -0.014 A 
ENDROOT
BRANCH  10  13
ATOM     13  C   LIG A   1      -7.961  -2.822 124.341  0.00  0.00    +0.136 C 
ATOM     14  C   LIG A   1      -9.251  -2.710 123.497  0.00  0.00    +0.061 C 
ATOM     15  C   LIG A   1      -7.794  -4.316 124.697  0.00  0.00    +0.061 C 
BRANCH  13  16
ATOM     16  O   LIG A   1      -6.876  -2.457 123.427  0.00  0.00    -0.454 OA
BRANCH  16  17
ATOM     17  C   LIG A   1      -5.600  -2.402 123.900  0.00  0.00    +0.305 C 
ATOM     18  C   LIG A   1      -4.781  -3.507 123.307  0.00  0.00    +0.136 C 
ATOM     19  O   LIG A   1      -5.159  -1.603 124.712  0.00  0.00    -0.251 OA
ENDBRANCH  16  17
ENDBRANCH  13  16
ENDBRANCH  10  13
BRANCH   9  20
ATOM     20  O   LIG A   1      -8.393   0.037 123.968  0.00  0.00    -0.426 OA
BRANCH  20  21
ATOM     21  C   LIG A   1      -9.364   0.857 123.393  0.00  0.00    +0.309 C 
ATOM     22  C   LIG A   1      -8.764   2.218 123.231  0.00  0.00    +0.136 C 
ATOM     23  O   LIG A   1     -10.504   0.547 123.062  0.00  0.00    -0.251 OA
ENDBRANCH  20  21
ENDBRANCH   9  20
TORSDOF 5
ENDMDL
MODEL 4
REMARK VINA RESULT:      -6.7      3.471      6.228
REMARK  Name = NuBBE_2264
REMARK  11 active torsions:
REMARK  status: ('A' for Active; 'I' for Inactive)
REMARK    1  A    between atoms: C_1  and  C_2
REMARK    2  A    between atoms: C_5  and  C_6
REMARK    3  A    between atoms: C_9  and  O_10
REMARK    4  A    between atoms: O_10  and  C_11
REMARK    5  A    between atoms: C_11  and  C_12
REMARK    6  A    between atoms: C_14  and  C_15
REMARK    7  A    between atoms: C_15  and  C_16
REMARK    8  A    between atoms: C_15  and  O_17
REMARK    9  A    between atoms: C_15  and  C_21
REMARK   10  A    between atoms: O_17  and  C_18
REMARK   11  A    between atoms: C_18  and  C_19
REMARK                            x       y       z     vdW  Elec       q    Type
REMARK                         _______ _______ _______ _____ _____    ______ ____
ROOT
ATOM      1  C   LIG A   1      -7.776   3.057 122.706  0.00  0.00    +0.044 C 
ATOM      2  C   LIG A   1      -6.765   2.957 123.819  0.00  0.00    -0.043 A 
ATOM      3  C   LIG A   1      -6.083   4.118 124.202  0.00  0.00    +0.004 A 
ATOM      4  C   LIG A   1      -5.149   4.084 125.229  0.00  0.00    +0.004 A 
ATOM      5  C   LIG A   1      -4.876   2.889 125.906  0.00  0.00    -0.043 A 
ATOM      6  C   LIG A   1      -3.856   2.922 127.018  0.00  0.00    +0.044 C 
ATOM      7  C   LIG A   1      -5.563   1.699 125.543  0.00  0.00    -0.011 A 
ATOM      8  C   LIG A   1      -5.363   0.475 126.216  0.00  0.00    +0.055 A 
ATOM      9  C   LIG A   1      -6.087  -0.676 125.885  0.00  0.00    +0.139 A 
ATOM     10  C   LIG A   1      -6.998  -0.690 124.824  0.00  0.00    +0.038 A 
ATOM     11  C   LIG A   1      -7.188   0.534 124.149  0.00  0.00    +0.020 A 
ATOM     12  C   LIG A   1      -6.509   1.731 124.487  0.00  0.00    -0.014 A 
ENDROOT
BRANCH  10  13
ATOM     13  C   LIG A   1      -7.871  -1.896 124.439  0.00  0.00    +0.136 C 
ATOM     14  C   LIG A   1      -8.722  -1.444 123.230  0.00  0.00    +0.061 C 
ATOM     15  C   LIG A   1      -8.857  -2.463 125.485  0.00  0.00    +0.061 C 
BRANCH  13  16
ATOM     16  O   LIG A   1      -7.061  -3.009 123.939  0.00  0.00    -0.454 OA
BRANCH  16  17
ATOM     17  C   LIG A   1      -5.981  -2.744 123.152  0.00  0.00    +0.305 C 
ATOM     18  C   LIG A   1      -4.759  -3.404 123.712  0.00  0.00    +0.136 C 
ATOM     19  O   LIG A   1      -5.966  -2.049 122.147  0.00  0.00    -0.251 OA
ENDBRANCH  16  17
ENDBRANCH  13  16
ENDBRANCH  10  13
BRANCH   9  20
ATOM     20  O   LIG A   1      -5.924  -1.883 126.608  0.00  0.00    -0.426 OA
BRANCH  20  21
ATOM     21  C   LIG A   1      -6.100  -2.132 127.970  0.00  0.00    +0.309 C 
ATOM     22  C   LIG A   1      -4.763  -2.488 128.537  0.00  0.00    +0.136 C 
ATOM     23  O   LIG A   1      -7.144  -2.070 128.612  0.00  0.00    -0.251 OA
ENDBRANCH  20  21
ENDBRANCH   9  20
TORSDOF 5
ENDMDL
MODEL 5
REMARK VINA RESULT:      -6.6      8.252     10.964
REMARK  Name = NuBBE_2264
REMARK  11 active torsions:
REMARK  status: ('A' for Active; 'I' for Inactive)
REMARK    1  A    between atoms: C_1  and  C_2
REMARK    2  A    between atoms: C_5  and  C_6
REMARK    3  A    between atoms: C_9  and  O_10
REMARK    4  A    between atoms: O_10  and  C_11
REMARK    5  A    between atoms: C_11  and  C_12
REMARK    6  A    between atoms: C_14  and  C_15
REMARK    7  A    between atoms: C_15  and  C_16
REMARK    8  A    between atoms: C_15  and  O_17
REMARK    9  A    between atoms: C_15  and  C_21
REMARK   10  A    between atoms: O_17  and  C_18
REMARK   11  A    between atoms: C_18  and  C_19
REMARK                            x       y       z     vdW  Elec       q    Type
REMARK                         _______ _______ _______ _____ _____    ______ ____
ROOT
ATOM      1  C   LIG A   1      -9.059   7.605 129.875  0.00  0.00    +0.044 C 
ATOM      2  C   LIG A   1      -8.837   6.741 131.089  0.00  0.00    -0.043 A 
ATOM      3  C   LIG A   1      -9.950   6.139 131.688  0.00  0.00    +0.004 A 
ATOM      4  C   LIG A   1      -9.802   5.325 132.803  0.00  0.00    +0.004 A 
ATOM      5  C   LIG A   1      -8.533   5.082 133.345  0.00  0.00    -0.043 A 
ATOM      6  C   LIG A   1      -8.440   4.181 134.551  0.00  0.00    +0.044 C 
ATOM      7  C   LIG A   1      -7.386   5.672 132.748  0.00  0.00    -0.011 A 
ATOM      8  C   LIG A   1      -6.079   5.431 133.222  0.00  0.00    +0.055 A 
ATOM      9  C   LIG A   1      -4.954   5.974 132.591  0.00  0.00    +0.139 A 
ATOM     10  C   LIG A   1      -5.071   6.839 131.499  0.00  0.00    +0.038 A 
ATOM     11  C   LIG A   1      -6.380   7.083 131.034  0.00  0.00    +0.020 A 
ATOM     12  C   LIG A   1      -7.540   6.513 131.617  0.00  0.00    -0.014 A 
ENDROOT
BRANCH  10  13
ATOM     13  C   LIG A   1      -3.882   7.426 130.719  0.00  0.00    +0.136 C 
ATOM     14  C   LIG A   1      -2.903   7.982 131.778  0.00  0.00    +0.061 C 
ATOM     15  C   LIG A   1      -4.146   8.572 129.717  0.00  0.00    +0.061 C 
BRANCH  13  16
ATOM     16  O   LIG A   1      -3.131   6.383 130.017  0.00  0.00    -0.454 OA
BRANCH  16  17
ATOM     17  C   LIG A   1      -3.784   5.570 129.141  0.00  0.00    +0.305 C 
ATOM     18  C   LIG A   1      -3.577   4.135 129.515  0.00  0.00    +0.136 C 
ATOM     19  O   LIG A   1      -4.428   5.922 128.164  0.00  0.00    -0.251 OA
ENDBRANCH  16  17
ENDBRANCH  13  16
ENDBRANCH  10  13
BRANCH   9  20
ATOM     20  O   LIG A   1      -3.643   5.675 133.037  0.00  0.00    -0.426 OA
BRANCH  20  21
ATOM     21  C   LIG A   1      -2.991   4.444 133.114  0.00  0.00    +0.309 C 
ATOM     22  C   LIG A   1      -1.583   4.652 132.654  0.00  0.00    +0.136 C 
ATOM     23  O   LIG A   1      -3.457   3.373 133.491  0.00  0.00    -0.251 OA
ENDBRANCH  20  21
ENDBRANCH   9  20
TORSDOF 5
ENDMDL
MODEL 6
REMARK VINA RESULT:      -6.4      3.318      7.158
REMARK  Name = NuBBE_2264
REMARK  11 active torsions:
REMARK  status: ('A' for Active; 'I' for Inactive)
REMARK    1  A    between atoms: C_1  and  C_2
REMARK    2  A    between atoms: C_5  and  C_6
REMARK    3  A    between atoms: C_9  and  O_10
REMARK    4  A    between atoms: O_10  and  C_11
REMARK    5  A    between atoms: C_11  and  C_12
REMARK    6  A    between atoms: C_14  and  C_15
REMARK    7  A    between atoms: C_15  and  C_16
REMARK    8  A    between atoms: C_15  and  O_17
REMARK    9  A    between atoms: C_15  and  C_21
REMARK   10  A    between atoms: O_17  and  C_18
REMARK   11  A    between atoms: C_18  and  C_19
REMARK                            x       y       z     vdW  Elec       q    Type
REMARK                         _______ _______ _______ _____ _____    ______ ____
ROOT
ATOM      1  C   LIG A   1      -7.276   2.139 129.493  0.00  0.00    +0.044 C 
ATOM      2  C   LIG A   1      -7.456   0.662 129.253  0.00  0.00    -0.043 A 
ATOM      3  C   LIG A   1      -7.225  -0.216 130.319  0.00  0.00    +0.004 A 
ATOM      4  C   LIG A   1      -7.386  -1.586 130.156  0.00  0.00    +0.004 A 
ATOM      5  C   LIG A   1      -7.790  -2.116 128.924  0.00  0.00    -0.043 A 
ATOM      6  C   LIG A   1      -7.954  -3.611 128.816  0.00  0.00    +0.044 C 
ATOM      7  C   LIG A   1      -8.041  -1.244 127.830  0.00  0.00    -0.011 A 
ATOM      8  C   LIG A   1      -8.491  -1.713 126.578  0.00  0.00    +0.055 A 
ATOM      9  C   LIG A   1      -8.789  -0.840 125.526  0.00  0.00    +0.139 A 
ATOM     10  C   LIG A   1      -8.589   0.540 125.639  0.00  0.00    +0.038 A 
ATOM     11  C   LIG A   1      -8.131   1.003 126.890  0.00  0.00    +0.020 A 
ATOM     12  C   LIG A   1      -7.866   0.153 127.993  0.00  0.00    -0.014 A 
ENDROOT
BRANCH  10  13
ATOM     13  C   LIG A   1      -8.947   1.566 124.551  0.00  0.00    +0.136 C 
ATOM     14  C   LIG A   1      -8.730   2.960 125.183  0.00  0.00    +0.061 C 
ATOM     15  C   LIG A   1     -10.379   1.563 123.970  0.00  0.00    +0.061 C 
BRANCH  13  16
ATOM     16  O   LIG A   1      -8.009   1.508 123.427  0.00  0.00    -0.454 OA
BRANCH  16  17
ATOM     17  C   LIG A   1      -7.808   2.624 122.672  0.00  0.00    +0.305 C 
ATOM     18  C   LIG A   1      -6.406   3.121 122.848  0.00  0.00    +0.136 C 
ATOM     19  O   LIG A   1      -8.634   3.183 121.966  0.00  0.00    -0.251 OA
ENDBRANCH  16  17
ENDBRANCH  13  16
ENDBRANCH  10  13
BRANCH   9  20
ATOM     20  O   LIG A   1      -9.300  -1.316 124.294  0.00  0.00    -0.426 OA
BRANCH  20  21
ATOM     21  C   LIG A   1      -8.728  -2.201 123.379  0.00  0.00    +0.309 C 
ATOM     22  C   LIG A   1      -9.560  -3.445 123.378  0.00  0.00    +0.136 C 
ATOM     23  O   LIG A   1      -7.735  -2.018 122.683  0.00  0.00    -0.251 OA
ENDBRANCH  20  21
ENDBRANCH   9  20
TORSDOF 5
ENDMDL
MODEL 7
REMARK VINA RESULT:      -6.4      2.803      6.408
REMARK  Name = NuBBE_2264
REMARK  11 active torsions:
REMARK  status: ('A' for Active; 'I' for Inactive)
REMARK    1  A    between atoms: C_1  and  C_2
REMARK    2  A    between atoms: C_5  and  C_6
REMARK    3  A    between atoms: C_9  and  O_10
REMARK    4  A    between atoms: O_10  and  C_11
REMARK    5  A    between atoms: C_11  and  C_12
REMARK    6  A    between atoms: C_14  and  C_15
REMARK    7  A    between atoms: C_15  and  C_16
REMARK    8  A    between atoms: C_15  and  O_17
REMARK    9  A    between atoms: C_15  and  C_21
REMARK   10  A    between atoms: O_17  and  C_18
REMARK   11  A    between atoms: C_18  and  C_19
REMARK                            x       y       z     vdW  Elec       q    Type
REMARK                         _______ _______ _______ _____ _____    ______ ____
ROOT
ATOM      1  C   LIG A   1      -5.873  -2.187 122.436  0.00  0.00    +0.044 C 
ATOM      2  C   LIG A   1      -6.755  -2.418 123.635  0.00  0.00    -0.043 A 
ATOM      3  C   LIG A   1      -7.052  -3.738 123.996  0.00  0.00    +0.004 A 
ATOM      4  C   LIG A   1      -7.852  -4.008 125.099  0.00  0.00    +0.004 A 
ATOM      5  C   LIG A   1      -8.370  -2.966 125.878  0.00  0.00    -0.043 A 
ATOM      6  C   LIG A   1      -9.223  -3.328 127.068  0.00  0.00    +0.044 C 
ATOM      7  C   LIG A   1      -8.072  -1.618 125.539  0.00  0.00    -0.011 A 
ATOM      8  C   LIG A   1      -8.529  -0.527 126.309  0.00  0.00    +0.055 A 
ATOM      9  C   LIG A   1      -8.183   0.793 125.997  0.00  0.00    +0.139 A 
ATOM     10  C   LIG A   1      -7.423   1.104 124.865  0.00  0.00    +0.038 A 
ATOM     11  C   LIG A   1      -6.977   0.011 124.094  0.00  0.00    +0.020 A 
ATOM     12  C   LIG A   1      -7.266  -1.341 124.406  0.00  0.00    -0.014 A 
ENDROOT
BRANCH  10  13
ATOM     13  C   LIG A   1      -6.956   2.520 124.489  0.00  0.00    +0.136 C 
ATOM     14  C   LIG A   1      -5.814   2.872 125.470  0.00  0.00    +0.061 C 
ATOM     15  C   LIG A   1      -7.973   3.681 124.562  0.00  0.00    +0.061 C 
BRANCH  13  16
ATOM     16  O   LIG A   1      -6.339   2.549 123.161  0.00  0.00    -0.454 OA
BRANCH  16  17
ATOM     17  C   LIG A   1      -6.145   3.748 122.545  0.00  0.00    +0.305 C 
ATOM     18  C   LIG A   1      -6.801   3.748 121.198  0.00  0.00    +0.136 C 
ATOM     19  O   LIG A   1      -5.509   4.696 122.981  0.00  0.00    -0.251 OA
ENDBRANCH  16  17
ENDBRANCH  13  16
ENDBRANCH  10  13
BRANCH   9  20
ATOM     20  O   LIG A   1      -8.595   1.875 126.812  0.00  0.00    -0.426 OA
BRANCH  20  21
ATOM     21  C   LIG A   1      -8.466   2.046 128.191  0.00  0.00    +0.309 C 
ATOM     22  C   LIG A   1      -7.100   1.574 128.576  0.00  0.00    +0.136 C 
ATOM     23  O   LIG A   1      -9.298   2.503 128.969  0.00  0.00    -0.251 OA
ENDBRANCH  20  21
ENDBRANCH   9  20
TORSDOF 5
ENDMDL
MODEL 8
REMARK VINA RESULT:      -6.3      3.203      7.687
REMARK  Name = NuBBE_2264
REMARK  11 active torsions:
REMARK  status: ('A' for Active; 'I' for Inactive)
REMARK    1  A    between atoms: C_1  and  C_2
REMARK    2  A    between atoms: C_5  and  C_6
REMARK    3  A    between atoms: C_9  and  O_10
REMARK    4  A    between atoms: O_10  and  C_11
REMARK    5  A    between atoms: C_11  and  C_12
REMARK    6  A    between atoms: C_14  and  C_15
REMARK    7  A    between atoms: C_15  and  C_16
REMARK    8  A    between atoms: C_15  and  O_17
REMARK    9  A    between atoms: C_15  and  C_21
REMARK   10  A    between atoms: O_17  and  C_18
REMARK   11  A    between atoms: C_18  and  C_19
REMARK                            x       y       z     vdW  Elec       q    Type
REMARK                         _______ _______ _______ _____ _____    ______ ____
ROOT
ATOM      1  C   LIG A   1      -9.056  -3.160 124.791  0.00  0.00    +0.044 C 
ATOM      2  C   LIG A   1      -8.707  -2.820 126.217  0.00  0.00    -0.043 A 
ATOM      3  C   LIG A   1      -8.736  -3.845 127.170  0.00  0.00    +0.004 A 
ATOM      4  C   LIG A   1      -8.413  -3.590 128.496  0.00  0.00    +0.004 A 
ATOM      5  C   LIG A   1      -8.044  -2.302 128.905  0.00  0.00    -0.043 A 
ATOM      6  C   LIG A   1      -7.696  -2.094 130.358  0.00  0.00    +0.044 C 
ATOM      7  C   LIG A   1      -7.995  -1.246 127.955  0.00  0.00    -0.011 A 
ATOM      8  C   LIG A   1      -7.590   0.061 128.297  0.00  0.00    +0.055 A 
ATOM      9  C   LIG A   1      -7.494   1.078 127.341  0.00  0.00    +0.139 A 
ATOM     10  C   LIG A   1      -7.860   0.869 126.007  0.00  0.00    +0.038 A 
ATOM     11  C   LIG A   1      -8.273  -0.438 125.672  0.00  0.00    +0.020 A 
ATOM     12  C   LIG A   1      -8.337  -1.505 126.603  0.00  0.00    -0.014 A 
ENDROOT
BRANCH  10  13
ATOM     13  C   LIG A   1      -7.727   1.917 124.890  0.00  0.00    +0.136 C 
ATOM     14  C   LIG A   1      -6.238   2.329 124.861  0.00  0.00    +0.061 C 
ATOM     15  C   LIG A   1      -8.544   3.224 124.997  0.00  0.00    +0.061 C 
BRANCH  13  16
ATOM     16  O   LIG A   1      -7.987   1.334 123.572  0.00  0.00    -0.454 OA
BRANCH  16  17
ATOM     17  C   LIG A   1      -8.989   1.846 122.805  0.00  0.00    +0.305 C 
ATOM     18  C   LIG A   1     -10.187   0.949 122.854  0.00  0.00    +0.136 C 
ATOM     19  O   LIG A   1      -8.945   2.869 122.137  0.00  0.00    -0.251 OA
ENDBRANCH  16  17
ENDBRANCH  13  16
ENDBRANCH  10  13
BRANCH   9  20
ATOM     20  O   LIG A   1      -7.026   2.370 127.683  0.00  0.00    -0.426 OA
BRANCH  20  21
ATOM     21  C   LIG A   1      -7.626   3.351 128.474  0.00  0.00    +0.309 C 
ATOM     22  C   LIG A   1      -6.536   4.230 129.001  0.00  0.00    +0.136 C 
ATOM     23  O   LIG A   1      -8.822   3.496 128.705  0.00  0.00    -0.251 OA
ENDBRANCH  20  21
ENDBRANCH   9  20
TORSDOF 5
ENDMDL
MODEL 9
REMARK VINA RESULT:      -6.3      3.789      6.551
REMARK  Name = NuBBE_2264
REMARK  11 active torsions:
REMARK  status: ('A' for Active; 'I' for Inactive)
REMARK    1  A    between atoms: C_1  and  C_2
REMARK    2  A    between atoms: C_5  and  C_6
REMARK    3  A    between atoms: C_9  and  O_10
REMARK    4  A    between atoms: O_10  and  C_11
REMARK    5  A    between atoms: C_11  and  C_12
REMARK    6  A    between atoms: C_14  and  C_15
REMARK    7  A    between atoms: C_15  and  C_16
REMARK    8  A    between atoms: C_15  and  O_17
REMARK    9  A    between atoms: C_15  and  C_21
REMARK   10  A    between atoms: O_17  and  C_18
REMARK   11  A    between atoms: C_18  and  C_19
REMARK                            x       y       z     vdW  Elec       q    Type
REMARK                         _______ _______ _______ _____ _____    ______ ____
ROOT
ATOM      1  C   LIG A   1      -8.090  -3.398 128.270  0.00  0.00    +0.044 C 
ATOM      2  C   LIG A   1      -8.354  -2.819 126.904  0.00  0.00    -0.043 A 
ATOM      3  C   LIG A   1      -8.594  -3.701 125.844  0.00  0.00    +0.004 A 
ATOM      4  C   LIG A   1      -8.852  -3.221 124.566  0.00  0.00    +0.004 A 
ATOM      5  C   LIG A   1      -8.887  -1.843 124.316  0.00  0.00    -0.043 A 
ATOM      6  C   LIG A   1      -9.182  -1.387 122.908  0.00  0.00    +0.044 C 
ATOM      7  C   LIG A   1      -8.658  -0.927 125.378  0.00  0.00    -0.011 A 
ATOM      8  C   LIG A   1      -8.722   0.471 125.197  0.00  0.00    +0.055 A 
ATOM      9  C   LIG A   1      -8.550   1.362 126.262  0.00  0.00    +0.139 A 
ATOM     10  C   LIG A   1      -8.238   0.914 127.550  0.00  0.00    +0.038 A 
ATOM     11  C   LIG A   1      -8.166  -0.484 127.724  0.00  0.00    +0.020 A 
ATOM     12  C   LIG A   1      -8.383  -1.418 126.679  0.00  0.00    -0.014 A 
ENDROOT
BRANCH  10  13
ATOM     13  C   LIG A   1      -8.092   1.825 128.780  0.00  0.00    +0.136 C 
ATOM     14  C   LIG A   1      -6.720   2.523 128.640  0.00  0.00    +0.061 C 
ATOM     15  C   LIG A   1      -8.120   1.185 130.186  0.00  0.00    +0.061 C 
BRANCH  13  16
ATOM     16  O   LIG A   1      -9.075   2.911 128.765  0.00  0.00    -0.454 OA
BRANCH  16  17
ATOM     17  C   LIG A   1      -9.233   3.680 129.878  0.00  0.00    +0.305 C 
ATOM     18  C   LIG A   1     -10.586   3.450 130.476  0.00  0.00    +0.136 C 
ATOM     19  O   LIG A   1      -8.425   4.475 130.334  0.00  0.00    -0.251 OA
ENDBRANCH  16  17
ENDBRANCH  13  16
ENDBRANCH  10  13
BRANCH   9  20
ATOM     20  O   LIG A   1      -8.679   2.761 126.082  0.00  0.00    -0.426 OA
BRANCH  20  21
ATOM     21  C   LIG A   1      -8.238   3.564 125.030  0.00  0.00    +0.309 C 
ATOM     22  C   LIG A   1      -7.326   4.599 125.607  0.00  0.00    +0.136 C 
ATOM     23  O   LIG A   1      -8.522   3.460 123.840  0.00  0.00    -0.251 OA
ENDBRANCH  20  21
ENDBRANCH   9  20
TORSDOF 5
ENDMDL
