MODEL 1
REMARK VINA RESULT:      -7.4      0.000      0.000
REMARK  Name = NuBBE_1899
REMARK  6 active torsions:
REMARK  status: ('A' for Active; 'I' for Inactive)
REMARK    1  A    between atoms: O_1  and  C_2
REMARK    2  A    between atoms: C_11  and  C_12
REMARK    3  A    between atoms: C_15  and  C_16
REMARK    4  A    between atoms: C_16  and  C_17
REMARK    5  A    between atoms: C_16  and  O_18
REMARK    6  A    between atoms: C_16  and  C_19
REMARK                            x       y       z     vdW  Elec       q    Type
REMARK                         _______ _______ _______ _____ _____    ______ ____
ROOT
ATOM      1  C   LIG A   1      -9.301   4.581 130.199  0.00  0.00    +0.188 C 
ATOM      2  C   LIG A   1      -9.191   5.844 129.326  0.00  0.00    +0.241 C 
ATOM      3  C   LIG A   1     -10.409   6.648 129.501  0.00  0.00    +0.017 A 
ATOM      4  C   LIG A   1     -10.855   7.119 128.298  0.00  0.00    +0.066 A 
ATOM      5  C   LIG A   1     -10.039   6.490 127.264  0.00  0.00    +0.340 C 
ATOM      6  O   LIG A   1      -9.172   5.627 127.901  0.00  0.00    -0.450 OA
ATOM      7  O   LIG A   1     -10.153   6.636 126.064  0.00  0.00    -0.245 OA
ATOM      8  C   LIG A   1     -11.980   7.911 128.220  0.00  0.00    +0.015 A 
ATOM      9  C   LIG A   1     -12.652   8.192 129.419  0.00  0.00    +0.005 A 
ATOM     10  C   LIG A   1     -12.229   7.637 130.659  0.00  0.00    -0.043 A 
ATOM     11  C   LIG A   1     -13.046   7.894 131.895  0.00  0.00    +0.044 C 
ATOM     12  C   LIG A   1     -11.099   6.807 130.686  0.00  0.00    -0.014 A 
ATOM     13  C   LIG A   1     -10.606   6.003 131.817  0.00  0.00    +0.013 C 
ATOM     14  C   LIG A   1      -9.787   4.935 131.617  0.00  0.00    -0.006 C 
ENDROOT
BRANCH  14  15
ATOM     15  C   LIG A   1      -9.264   4.036 132.732  0.00  0.00    +0.084 C 
ATOM     16  C   LIG A   1      -7.768   4.257 132.988  0.00  0.00    +0.046 C 
ATOM     17  C   LIG A   1      -9.511   2.533 132.521  0.00  0.00    +0.046 C 
BRANCH  15  18
ATOM     18  O   LIG A   1      -9.987   4.407 133.913  0.00  0.00    -0.385 OA
ATOM     19  H   LIG A   1      -9.748   5.325 134.125  0.00  0.00    +0.211 HD
ENDBRANCH  15  18
ENDBRANCH  14  15
BRANCH   1  20
ATOM     20  O   LIG A   1     -10.229   3.642 129.639  0.00  0.00    -0.383 OA
ATOM     21  H   LIG A   1     -10.975   3.591 130.263  0.00  0.00    +0.210 HD
ENDBRANCH   1  20
TORSDOF 3
ENDMDL
MODEL 2
REMARK VINA RESULT:      -7.2      6.595      8.983
REMARK  Name = NuBBE_1899
REMARK  6 active torsions:
REMARK  status: ('A' for Active; 'I' for Inactive)
REMARK    1  A    between atoms: O_1  and  C_2
REMARK    2  A    between atoms: C_11  and  C_12
REMARK    3  A    between atoms: C_15  and  C_16
REMARK    4  A    between atoms: C_16  and  C_17
REMARK    5  A    between atoms: C_16  and  O_18
REMARK    6  A    between atoms: C_16  and  C_19
REMARK                            x       y       z     vdW  Elec       q    Type
REMARK                         _______ _______ _______ _____ _____    ______ ____
ROOT
ATOM      1  C   LIG A   1      -9.002   0.199 125.151  0.00  0.00    +0.188 C 
ATOM      2  C   LIG A   1      -8.091   0.927 126.156  0.00  0.00    +0.241 C 
ATOM      3  C   LIG A   1      -7.973   0.106 127.369  0.00  0.00    +0.017 A 
ATOM      4  C   LIG A   1      -8.076   0.880 128.491  0.00  0.00    +0.066 A 
ATOM      5  C   LIG A   1      -8.444   2.222 128.050  0.00  0.00    +0.340 C 
ATOM      6  O   LIG A   1      -8.595   2.172 126.679  0.00  0.00    -0.450 OA
ATOM      7  O   LIG A   1      -8.656   3.184 128.759  0.00  0.00    -0.245 OA
ATOM      8  C   LIG A   1      -7.982   0.324 129.747  0.00  0.00    +0.015 A 
ATOM      9  C   LIG A   1      -7.797  -1.065 129.823  0.00  0.00    +0.005 A 
ATOM     10  C   LIG A   1      -7.767  -1.878 128.657  0.00  0.00    -0.043 A 
ATOM     11  C   LIG A   1      -7.664  -3.371 128.805  0.00  0.00    +0.044 C 
ATOM     12  C   LIG A   1      -7.902  -1.273 127.398  0.00  0.00    -0.014 A 
ATOM     13  C   LIG A   1      -8.072  -1.942 126.097  0.00  0.00    +0.013 C 
ATOM     14  C   LIG A   1      -8.613  -1.287 125.035  0.00  0.00    -0.006 C 
ENDROOT
BRANCH  14  15
ATOM     15  C   LIG A   1      -8.852  -1.920 123.669  0.00  0.00    +0.084 C 
ATOM     16  C   LIG A   1      -9.420  -3.340 123.790  0.00  0.00    +0.046 C 
ATOM     17  C   LIG A   1      -7.620  -1.960 122.749  0.00  0.00    +0.046 C 
BRANCH  15  18
ATOM     18  O   LIG A   1      -9.824  -1.095 123.013  0.00  0.00    -0.385 OA
ATOM     19  H   LIG A   1     -10.521  -1.681 122.673  0.00  0.00    +0.211 HD
ENDBRANCH  15  18
ENDBRANCH  14  15
BRANCH   1  20
ATOM     20  O   LIG A   1     -10.376   0.263 125.556  0.00  0.00    -0.383 OA
ATOM     21  H   LIG A   1     -10.430   0.970 126.224  0.00  0.00    +0.210 HD
ENDBRANCH   1  20
TORSDOF 3
ENDMDL
MODEL 3
REMARK VINA RESULT:      -7.1      8.617     10.340
REMARK  Name = NuBBE_1899
REMARK  6 active torsions:
REMARK  status: ('A' for Active; 'I' for Inactive)
REMARK    1  A    between atoms: O_1  and  C_2
REMARK    2  A    between atoms: C_11  and  C_12
REMARK    3  A    between atoms: C_15  and  C_16
REMARK    4  A    between atoms: C_16  and  C_17
REMARK    5  A    between atoms: C_16  and  O_18
REMARK    6  A    between atoms: C_16  and  C_19
REMARK                            x       y       z     vdW  Elec       q    Type
REMARK                         _______ _______ _______ _____ _____    ______ ____
ROOT
ATOM      1  C   LIG A   1      -7.156  -0.998 125.372  0.00  0.00    +0.188 C 
ATOM      2  C   LIG A   1      -6.147  -1.495 126.423  0.00  0.00    +0.241 C 
ATOM      3  C   LIG A   1      -6.883  -2.153 127.512  0.00  0.00    +0.017 A 
ATOM      4  C   LIG A   1      -6.385  -1.780 128.729  0.00  0.00    +0.066 A 
ATOM      5  C   LIG A   1      -5.411  -0.720 128.484  0.00  0.00    +0.340 C 
ATOM      6  O   LIG A   1      -5.413  -0.473 127.126  0.00  0.00    -0.450 OA
ATOM      7  O   LIG A   1      -4.777  -0.114 129.323  0.00  0.00    -0.245 OA
ATOM      8  C   LIG A   1      -6.914  -2.285 129.896  0.00  0.00    +0.015 A 
ATOM      9  C   LIG A   1      -7.992  -3.175 129.780  0.00  0.00    +0.005 A 
ATOM     10  C   LIG A   1      -8.558  -3.502 128.517  0.00  0.00    -0.043 A 
ATOM     11  C   LIG A   1      -9.774  -4.385 128.463  0.00  0.00    +0.044 C 
ATOM     12  C   LIG A   1      -8.010  -2.937 127.356  0.00  0.00    -0.014 A 
ATOM     13  C   LIG A   1      -8.548  -3.004 125.987  0.00  0.00    +0.013 C 
ATOM     14  C   LIG A   1      -8.190  -2.091 125.044  0.00  0.00    -0.006 C 
ENDROOT
BRANCH  14  15
ATOM     15  C   LIG A   1      -8.730  -2.075 123.619  0.00  0.00    +0.084 C 
ATOM     16  C   LIG A   1      -9.589  -3.310 123.320  0.00  0.00    +0.046 C 
ATOM     17  C   LIG A   1      -7.660  -1.943 122.523  0.00  0.00    +0.046 C 
BRANCH  15  18
ATOM     18  O   LIG A   1      -9.559  -0.909 123.521  0.00  0.00    -0.385 OA
ATOM     19  H   LIG A   1      -9.286  -0.422 122.725  0.00  0.00    +0.211 HD
ENDBRANCH  15  18
ENDBRANCH  14  15
BRANCH   1  20
ATOM     20  O   LIG A   1      -7.868   0.155 125.841  0.00  0.00    -0.383 OA
ATOM     21  H   LIG A   1      -8.005   0.726 125.064  0.00  0.00    +0.210 HD
ENDBRANCH   1  20
TORSDOF 3
ENDMDL
MODEL 4
REMARK VINA RESULT:      -7.0      6.830      9.563
REMARK  Name = NuBBE_1899
REMARK  6 active torsions:
REMARK  status: ('A' for Active; 'I' for Inactive)
REMARK    1  A    between atoms: O_1  and  C_2
REMARK    2  A    between atoms: C_11  and  C_12
REMARK    3  A    between atoms: C_15  and  C_16
REMARK    4  A    between atoms: C_16  and  C_17
REMARK    5  A    between atoms: C_16  and  O_18
REMARK    6  A    between atoms: C_16  and  C_19
REMARK                            x       y       z     vdW  Elec       q    Type
REMARK                         _______ _______ _______ _____ _____    ______ ____
ROOT
ATOM      1  C   LIG A   1      -8.070   1.344 126.277  0.00  0.00    +0.188 C 
ATOM      2  C   LIG A   1      -7.265   0.167 126.856  0.00  0.00    +0.241 C 
ATOM      3  C   LIG A   1      -7.831  -1.090 126.346  0.00  0.00    +0.017 A 
ATOM      4  C   LIG A   1      -7.925  -2.019 127.344  0.00  0.00    +0.066 A 
ATOM      5  C   LIG A   1      -7.585  -1.341 128.591  0.00  0.00    +0.340 C 
ATOM      6  O   LIG A   1      -7.352  -0.016 128.283  0.00  0.00    -0.450 OA
ATOM      7  O   LIG A   1      -7.583  -1.830 129.702  0.00  0.00    -0.245 OA
ATOM      8  C   LIG A   1      -8.417  -3.281 127.093  0.00  0.00    +0.015 A 
ATOM      9  C   LIG A   1      -8.834  -3.559 125.782  0.00  0.00    +0.005 A 
ATOM     10  C   LIG A   1      -8.807  -2.567 124.764  0.00  0.00    -0.043 A 
ATOM     11  C   LIG A   1      -9.357  -2.895 123.404  0.00  0.00    +0.044 C 
ATOM     12  C   LIG A   1      -8.330  -1.284 125.073  0.00  0.00    -0.014 A 
ATOM     13  C   LIG A   1      -8.382  -0.081 124.224  0.00  0.00    +0.013 C 
ATOM     14  C   LIG A   1      -8.294   1.165 124.763  0.00  0.00    -0.006 C 
ENDROOT
BRANCH  14  15
ATOM     15  C   LIG A   1      -8.373   2.455 123.956  0.00  0.00    +0.084 C 
ATOM     16  C   LIG A   1      -9.125   2.255 122.633  0.00  0.00    +0.046 C 
ATOM     17  C   LIG A   1      -7.018   3.115 123.655  0.00  0.00    +0.046 C 
BRANCH  15  18
ATOM     18  O   LIG A   1      -9.109   3.384 124.762  0.00  0.00    -0.385 OA
ATOM     19  H   LIG A   1      -8.523   3.674 125.481  0.00  0.00    +0.211 HD
ENDBRANCH  15  18
ENDBRANCH  14  15
BRANCH   1  20
ATOM     20  O   LIG A   1      -9.356   1.450 126.901  0.00  0.00    -0.383 OA
ATOM     21  H   LIG A   1     -10.010   1.207 126.221  0.00  0.00    +0.210 HD
ENDBRANCH   1  20
TORSDOF 3
ENDMDL
MODEL 5
REMARK VINA RESULT:      -6.9      8.364     10.120
REMARK  Name = NuBBE_1899
REMARK  6 active torsions:
REMARK  status: ('A' for Active; 'I' for Inactive)
REMARK    1  A    between atoms: O_1  and  C_2
REMARK    2  A    between atoms: C_11  and  C_12
REMARK    3  A    between atoms: C_15  and  C_16
REMARK    4  A    between atoms: C_16  and  C_17
REMARK    5  A    between atoms: C_16  and  O_18
REMARK    6  A    between atoms: C_16  and  C_19
REMARK                            x       y       z     vdW  Elec       q    Type
REMARK                         _______ _______ _______ _____ _____    ______ ____
ROOT
ATOM      1  C   LIG A   1      -5.905  -0.509 127.362  0.00  0.00    +0.188 C 
ATOM      2  C   LIG A   1      -7.007  -0.513 126.288  0.00  0.00    +0.241 C 
ATOM      3  C   LIG A   1      -6.534  -1.276 125.125  0.00  0.00    +0.017 A 
ATOM      4  C   LIG A   1      -6.850  -0.632 123.961  0.00  0.00    +0.066 A 
ATOM      5  C   LIG A   1      -7.392   0.672 124.329  0.00  0.00    +0.340 C 
ATOM      6  O   LIG A   1      -7.325   0.767 125.704  0.00  0.00    -0.450 OA
ATOM      7  O   LIG A   1      -7.760   1.543 123.568  0.00  0.00    -0.245 OA
ATOM      8  C   LIG A   1      -6.514  -1.172 122.739  0.00  0.00    +0.015 A 
ATOM      9  C   LIG A   1      -5.820  -2.391 122.744  0.00  0.00    +0.005 A 
ATOM     10  C   LIG A   1      -5.425  -3.020 123.957  0.00  0.00    -0.043 A 
ATOM     11  C   LIG A   1      -4.598  -4.275 123.898  0.00  0.00    +0.044 C 
ATOM     12  C   LIG A   1      -5.757  -2.417 125.179  0.00  0.00    -0.014 A 
ATOM     13  C   LIG A   1      -5.298  -2.805 126.523  0.00  0.00    +0.013 C 
ATOM     14  C   LIG A   1      -5.326  -1.923 127.559  0.00  0.00    -0.006 C 
ENDROOT
BRANCH  14  15
ATOM     15  C   LIG A   1      -4.837  -2.240 128.967  0.00  0.00    +0.084 C 
ATOM     16  C   LIG A   1      -3.911  -3.463 128.988  0.00  0.00    +0.046 C 
ATOM     17  C   LIG A   1      -5.950  -2.447 130.008  0.00  0.00    +0.046 C 
BRANCH  15  18
ATOM     18  O   LIG A   1      -4.088  -1.094 129.394  0.00  0.00    -0.385 OA
ATOM     19  H   LIG A   1      -4.720  -0.450 129.755  0.00  0.00    +0.211 HD
ENDBRANCH  15  18
ENDBRANCH  14  15
BRANCH   1  20
ATOM     20  O   LIG A   1      -4.825   0.360 126.994  0.00  0.00    -0.383 OA
ATOM     21  H   LIG A   1      -4.086   0.143 127.590  0.00  0.00    +0.210 HD
ENDBRANCH   1  20
TORSDOF 3
ENDMDL
MODEL 6
REMARK VINA RESULT:      -6.8      1.945      5.646
REMARK  Name = NuBBE_1899
REMARK  6 active torsions:
REMARK  status: ('A' for Active; 'I' for Inactive)
REMARK    1  A    between atoms: O_1  and  C_2
REMARK    2  A    between atoms: C_11  and  C_12
REMARK    3  A    between atoms: C_15  and  C_16
REMARK    4  A    between atoms: C_16  and  C_17
REMARK    5  A    between atoms: C_16  and  O_18
REMARK    6  A    between atoms: C_16  and  C_19
REMARK                            x       y       z     vdW  Elec       q    Type
REMARK                         _______ _______ _______ _____ _____    ______ ____
ROOT
ATOM      1  C   LIG A   1     -10.458   5.287 130.867  0.00  0.00    +0.188 C 
ATOM      2  C   LIG A   1      -9.765   5.063 132.222  0.00  0.00    +0.241 C 
ATOM      3  C   LIG A   1      -8.336   5.372 132.081  0.00  0.00    +0.017 A 
ATOM      4  C   LIG A   1      -7.571   4.431 132.712  0.00  0.00    +0.066 A 
ATOM      5  C   LIG A   1      -8.474   3.368 133.143  0.00  0.00    +0.340 C 
ATOM      6  O   LIG A   1      -9.737   3.703 132.700  0.00  0.00    -0.450 OA
ATOM      7  O   LIG A   1      -8.164   2.342 133.714  0.00  0.00    -0.245 OA
ATOM      8  C   LIG A   1      -6.197   4.524 132.722  0.00  0.00    +0.015 A 
ATOM      9  C   LIG A   1      -5.622   5.608 132.042  0.00  0.00    +0.005 A 
ATOM     10  C   LIG A   1      -6.415   6.544 131.322  0.00  0.00    -0.043 A 
ATOM     11  C   LIG A   1      -5.737   7.628 130.532  0.00  0.00    +0.044 C 
ATOM     12  C   LIG A   1      -7.810   6.390 131.310  0.00  0.00    -0.014 A 
ATOM     13  C   LIG A   1      -8.785   7.132 130.494  0.00  0.00    +0.013 C 
ATOM     14  C   LIG A   1     -10.023   6.627 130.243  0.00  0.00    -0.006 C 
ENDROOT
BRANCH  14  15
ATOM     15  C   LIG A   1     -11.073   7.320 129.382  0.00  0.00    +0.084 C 
ATOM     16  C   LIG A   1     -10.448   8.373 128.458  0.00  0.00    +0.046 C 
ATOM     17  C   LIG A   1     -12.224   7.972 130.164  0.00  0.00    +0.046 C 
BRANCH  15  18
ATOM     18  O   LIG A   1     -11.660   6.294 128.570  0.00  0.00    -0.385 OA
ATOM     19  H   LIG A   1     -12.438   5.956 129.046  0.00  0.00    +0.211 HD
ENDBRANCH  15  18
ENDBRANCH  14  15
BRANCH   1  20
ATOM     20  O   LIG A   1     -10.131   4.245 129.938  0.00  0.00    -0.383 OA
ATOM     21  H   LIG A   1     -10.967   3.993 129.505  0.00  0.00    +0.210 HD
ENDBRANCH   1  20
TORSDOF 3
ENDMDL
MODEL 7
REMARK VINA RESULT:      -6.6      7.298      9.177
REMARK  Name = NuBBE_1899
REMARK  6 active torsions:
REMARK  status: ('A' for Active; 'I' for Inactive)
REMARK    1  A    between atoms: O_1  and  C_2
REMARK    2  A    between atoms: C_11  and  C_12
REMARK    3  A    between atoms: C_15  and  C_16
REMARK    4  A    between atoms: C_16  and  C_17
REMARK    5  A    between atoms: C_16  and  O_18
REMARK    6  A    between atoms: C_16  and  C_19
REMARK                            x       y       z     vdW  Elec       q    Type
REMARK                         _______ _______ _______ _____ _____    ______ ____
ROOT
ATOM      1  C   LIG A   1      -6.699   0.089 125.736  0.00  0.00    +0.188 C 
ATOM      2  C   LIG A   1      -8.128  -0.484 125.726  0.00  0.00    +0.241 C 
ATOM      3  C   LIG A   1      -8.230  -1.521 126.762  0.00  0.00    +0.017 A 
ATOM      4  C   LIG A   1      -8.907  -2.612 126.292  0.00  0.00    +0.066 A 
ATOM      5  C   LIG A   1      -9.122  -2.397 124.864  0.00  0.00    +0.340 C 
ATOM      6  O   LIG A   1      -8.512  -1.203 124.537  0.00  0.00    -0.450 OA
ATOM      7  O   LIG A   1      -9.664  -3.161 124.092  0.00  0.00    -0.245 OA
ATOM      8  C   LIG A   1      -9.135  -3.706 127.098  0.00  0.00    +0.015 A 
ATOM      9  C   LIG A   1      -8.626  -3.658 128.404  0.00  0.00    +0.005 A 
ATOM     10  C   LIG A   1      -7.856  -2.555 128.866  0.00  0.00    -0.043 A 
ATOM     11  C   LIG A   1      -7.255  -2.604 130.244  0.00  0.00    +0.044 C 
ATOM     12  C   LIG A   1      -7.619  -1.478 128.000  0.00  0.00    -0.014 A 
ATOM     13  C   LIG A   1      -6.714  -0.337 128.218  0.00  0.00    +0.013 C 
ATOM     14  C   LIG A   1      -6.242   0.397 127.174  0.00  0.00    -0.006 C 
ENDROOT
BRANCH  14  15
ATOM     15  C   LIG A   1      -5.277   1.568 127.316  0.00  0.00    +0.084 C 
ATOM     16  C   LIG A   1      -4.689   1.655 128.731  0.00  0.00    +0.046 C 
ATOM     17  C   LIG A   1      -5.863   2.939 126.943  0.00  0.00    +0.046 C 
BRANCH  15  18
ATOM     18  O   LIG A   1      -4.208   1.317 126.395  0.00  0.00    -0.385 OA
ATOM     19  H   LIG A   1      -4.299   0.399 126.086  0.00  0.00    +0.211 HD
ENDBRANCH  15  18
ENDBRANCH  14  15
BRANCH   1  20
ATOM     20  O   LIG A   1      -5.765  -0.839 125.167  0.00  0.00    -0.383 OA
ATOM     21  H   LIG A   1      -5.113  -0.303 124.680  0.00  0.00    +0.210 HD
ENDBRANCH   1  20
TORSDOF 3
ENDMDL
MODEL 8
REMARK VINA RESULT:      -6.5      5.932      7.673
REMARK  Name = NuBBE_1899
REMARK  6 active torsions:
REMARK  status: ('A' for Active; 'I' for Inactive)
REMARK    1  A    between atoms: O_1  and  C_2
REMARK    2  A    between atoms: C_11  and  C_12
REMARK    3  A    between atoms: C_15  and  C_16
REMARK    4  A    between atoms: C_16  and  C_17
REMARK    5  A    between atoms: C_16  and  O_18
REMARK    6  A    between atoms: C_16  and  C_19
REMARK                            x       y       z     vdW  Elec       q    Type
REMARK                         _______ _______ _______ _____ _____    ______ ____
ROOT
ATOM      1  C   LIG A   1      -8.975  -0.382 125.301  0.00  0.00    +0.188 C 
ATOM      2  C   LIG A   1      -8.048   0.847 125.323  0.00  0.00    +0.241 C 
ATOM      3  C   LIG A   1      -7.864   1.278 126.716  0.00  0.00    +0.017 A 
ATOM      4  C   LIG A   1      -7.947   2.638 126.818  0.00  0.00    +0.066 A 
ATOM      5  C   LIG A   1      -8.367   3.139 125.512  0.00  0.00    +0.340 C 
ATOM      6  O   LIG A   1      -8.565   2.040 124.701  0.00  0.00    -0.450 OA
ATOM      7  O   LIG A   1      -8.578   4.296 125.215  0.00  0.00    -0.245 OA
ATOM      8  C   LIG A   1      -7.793   3.269 128.033  0.00  0.00    +0.015 A 
ATOM      9  C   LIG A   1      -7.569   2.456 129.154  0.00  0.00    +0.005 A 
ATOM     10  C   LIG A   1      -7.559   1.037 129.058  0.00  0.00    -0.043 A 
ATOM     11  C   LIG A   1      -7.412   0.217 130.309  0.00  0.00    +0.044 C 
ATOM     12  C   LIG A   1      -7.756   0.436 127.806  0.00  0.00    -0.014 A 
ATOM     13  C   LIG A   1      -7.955  -0.995 127.521  0.00  0.00    +0.013 C 
ATOM     14  C   LIG A   1      -8.551  -1.407 126.370  0.00  0.00    -0.006 C 
ENDROOT
BRANCH  14  15
ATOM     15  C   LIG A   1      -8.822  -2.866 126.020  0.00  0.00    +0.084 C 
ATOM     16  C   LIG A   1      -8.818  -3.762 127.266  0.00  0.00    +0.046 C 
ATOM     17  C   LIG A   1      -7.868  -3.470 124.977  0.00  0.00    +0.046 C 
BRANCH  15  18
ATOM     18  O   LIG A   1     -10.134  -2.899 125.441  0.00  0.00    -0.385 OA
ATOM     19  H   LIG A   1     -10.429  -3.825 125.440  0.00  0.00    +0.211 HD
ENDBRANCH  15  18
ENDBRANCH  14  15
BRANCH   1  20
ATOM     20  O   LIG A   1     -10.334  -0.010 125.564  0.00  0.00    -0.383 OA
ATOM     21  H   LIG A   1     -10.834  -0.843 125.643  0.00  0.00    +0.210 HD
ENDBRANCH   1  20
TORSDOF 3
ENDMDL
MODEL 9
REMARK VINA RESULT:      -6.5      7.718     10.471
REMARK  Name = NuBBE_1899
REMARK  6 active torsions:
REMARK  status: ('A' for Active; 'I' for Inactive)
REMARK    1  A    between atoms: O_1  and  C_2
REMARK    2  A    between atoms: C_11  and  C_12
REMARK    3  A    between atoms: C_15  and  C_16
REMARK    4  A    between atoms: C_16  and  C_17
REMARK    5  A    between atoms: C_16  and  O_18
REMARK    6  A    between atoms: C_16  and  C_19
REMARK                            x       y       z     vdW  Elec       q    Type
REMARK                         _______ _______ _______ _____ _____    ______ ____
ROOT
ATOM      1  C   LIG A   1      -8.787   0.295 125.593  0.00  0.00    +0.188 C 
ATOM      2  C   LIG A   1      -7.485  -0.024 126.348  0.00  0.00    +0.241 C 
ATOM      3  C   LIG A   1      -6.727  -1.025 125.583  0.00  0.00    +0.017 A 
ATOM      4  C   LIG A   1      -6.217  -1.985 126.411  0.00  0.00    +0.066 A 
ATOM      5  C   LIG A   1      -6.775  -1.743 127.738  0.00  0.00    +0.340 C 
ATOM      6  O   LIG A   1      -7.638  -0.672 127.627  0.00  0.00    -0.450 OA
ATOM      7  O   LIG A   1      -6.580  -2.405 128.737  0.00  0.00    -0.245 OA
ATOM      8  C   LIG A   1      -5.458  -3.021 125.913  0.00  0.00    +0.015 A 
ATOM      9  C   LIG A   1      -5.252  -3.056 124.526  0.00  0.00    +0.005 A 
ATOM     10  C   LIG A   1      -5.847  -2.099 123.657  0.00  0.00    -0.043 A 
ATOM     11  C   LIG A   1      -5.670  -2.245 122.172  0.00  0.00    +0.044 C 
ATOM     12  C   LIG A   1      -6.642  -1.082 124.205  0.00  0.00    -0.014 A 
ATOM     13  C   LIG A   1      -7.479  -0.111 123.480  0.00  0.00    +0.013 C 
ATOM     14  C   LIG A   1      -8.511   0.526 124.095  0.00  0.00    -0.006 C 
ENDROOT
BRANCH  14  15
ATOM     15  C   LIG A   1      -9.442   1.516 123.403  0.00  0.00    +0.084 C 
ATOM     16  C   LIG A   1     -10.356   0.823 122.385  0.00  0.00    +0.046 C 
ATOM     17  C   LIG A   1      -8.736   2.692 122.710  0.00  0.00    +0.046 C 
BRANCH  15  18
ATOM     18  O   LIG A   1     -10.258   2.082 124.437  0.00  0.00    -0.385 OA
ATOM     19  H   LIG A   1     -10.988   1.462 124.605  0.00  0.00    +0.211 HD
ENDBRANCH  15  18
ENDBRANCH  14  15
BRANCH   1  20
ATOM     20  O   LIG A   1      -9.729  -0.780 125.705  0.00  0.00    -0.383 OA
ATOM     21  H   LIG A   1      -9.360  -1.520 125.190  0.00  0.00    +0.210 HD
ENDBRANCH   1  20
TORSDOF 3
ENDMDL
