MODEL 1
REMARK VINA RESULT:      -6.4      0.000      0.000
REMARK  Name = NuBBE_1905
REMARK  16 active torsions:
REMARK  status: ('A' for Active; 'I' for Inactive)
REMARK    1  A    between atoms: C_2  and  C_3
REMARK    2  A    between atoms: C_2  and  O_4
REMARK    3  A    between atoms: O_4  and  C_5
REMARK    4  A    between atoms: C_5  and  C_6
REMARK    5  A    between atoms: C_9  and  C_10
REMARK    6  A    between atoms: C_10  and  O_11
REMARK    7  A    between atoms: O_11  and  C_12
REMARK    8  A    between atoms: C_16  and  C_18
REMARK    9  A    between atoms: C_18  and  C_19
REMARK   10  A    between atoms: C_18  and  C_20
REMARK   11  A    between atoms: C_18  and  O_21
REMARK   12  A    between atoms: O_21  and  C_22
REMARK   13  A    between atoms: C_22  and  C_23
REMARK   14  A    between atoms: C_25  and  O_27
REMARK   15  A    between atoms: O_27  and  C_28
REMARK   16  A    between atoms: C_28  and  C_29
REMARK                            x       y       z     vdW  Elec       q    Type
REMARK                         _______ _______ _______ _____ _____    ______ ____
ROOT
ATOM      1  C   LIG A   1      -9.053   5.778 131.037  0.00  0.00    -0.006 A 
ATOM      2  C   LIG A   1      -8.215   6.857 131.348  0.00  0.00    +0.007 A 
ATOM      3  C   LIG A   1      -6.858   6.822 131.045  0.00  0.00    +0.007 A 
ATOM      4  C   LIG A   1      -6.276   5.709 130.410  0.00  0.00    -0.011 A 
ATOM      5  C   LIG A   1      -7.108   4.607 130.106  0.00  0.00    +0.030 A 
ATOM      6  C   LIG A   1      -8.483   4.613 130.461  0.00  0.00    -0.029 A 
ATOM      7  C   LIG A   1      -9.372   3.399 130.241  0.00  0.00    +0.047 C 
ATOM      8  C   LIG A   1      -8.699   2.096 129.746  0.00  0.00    +0.085 C 
ATOM      9  C   LIG A   1      -7.595   2.477 128.747  0.00  0.00    +0.254 C 
ATOM     10  C   LIG A   1      -6.578   3.380 129.413  0.00  0.00    +0.204 C 
ATOM     11  O   LIG A   1      -5.392   3.146 129.332  0.00  0.00    -0.288 OA
ENDROOT
BRANCH   8  12
ATOM     12  C   LIG A   1      -8.334   1.103 130.925  0.00  0.00    +0.115 C 
ATOM     13  C   LIG A   1      -9.605   0.765 131.741  0.00  0.00    +0.056 C 
ATOM     14  C   LIG A   1      -7.857  -0.278 130.406  0.00  0.00    +0.056 C 
BRANCH  12  15
ATOM     15  O   LIG A   1      -7.229   1.641 131.721  0.00  0.00    -0.458 OA
BRANCH  15  16
ATOM     16  C   LIG A   1      -7.238   1.675 133.102  0.00  0.00    +0.304 C 
ATOM     17  C   LIG A   1      -7.633   2.988 133.654  0.00  0.00    +0.136 C 
ATOM     18  O   LIG A   1      -6.976   0.736 133.846  0.00  0.00    -0.251 OA
ENDBRANCH  15  16
ENDBRANCH  12  15
ENDBRANCH   8  12
BRANCH   1  19
ATOM     19  C   LIG A   1     -10.533   5.940 131.340  0.00  0.00    +0.268 C 
BRANCH  19  20
ATOM     20  O   LIG A   1     -11.066   7.090 130.673  0.00  0.00    -0.460 OA
BRANCH  20  22
ATOM     21  O   LIG A   1     -11.896   6.059 128.793  0.00  0.00    -0.251 OA
ATOM     22  C   LIG A   1     -11.266   6.947 129.330  0.00  0.00    +0.304 C 
ATOM     23  C   LIG A   1     -10.570   8.054 128.577  0.00  0.00    +0.136 C 
ENDBRANCH  20  22
ENDBRANCH  19  20
ENDBRANCH   1  19
BRANCH   4  24
ATOM     24  C   LIG A   1      -4.794   5.798 130.109  0.00  0.00    +0.195 C 
BRANCH  24  25
ATOM     25  O   LIG A   1      -4.543   6.636 128.981  0.00  0.00    -0.378 OA
ATOM     26  C   LIG A   1      -3.629   6.007 128.083  0.00  0.00    +0.194 C 
ENDBRANCH  24  25
ENDBRANCH   4  24
BRANCH   9  27
ATOM     27  O   LIG A   1      -8.125   3.264 127.646  0.00  0.00    -0.453 OA
BRANCH  27  28
ATOM     28  C   LIG A   1      -8.040   2.737 126.417  0.00  0.00    +0.305 C 
ATOM     29  C   LIG A   1      -6.685   2.953 125.784  0.00  0.00    +0.136 C 
ATOM     30  O   LIG A   1      -8.960   2.163 125.833  0.00  0.00    -0.251 OA
ENDBRANCH  27  28
ENDBRANCH   9  27
TORSDOF 10
ENDMDL
MODEL 2
REMARK VINA RESULT:      -6.3      3.377      7.160
REMARK  Name = NuBBE_1905
REMARK  16 active torsions:
REMARK  status: ('A' for Active; 'I' for Inactive)
REMARK    1  A    between atoms: C_2  and  C_3
REMARK    2  A    between atoms: C_2  and  O_4
REMARK    3  A    between atoms: O_4  and  C_5
REMARK    4  A    between atoms: C_5  and  C_6
REMARK    5  A    between atoms: C_9  and  C_10
REMARK    6  A    between atoms: C_10  and  O_11
REMARK    7  A    between atoms: O_11  and  C_12
REMARK    8  A    between atoms: C_16  and  C_18
REMARK    9  A    between atoms: C_18  and  C_19
REMARK   10  A    between atoms: C_18  and  C_20
REMARK   11  A    between atoms: C_18  and  O_21
REMARK   12  A    between atoms: O_21  and  C_22
REMARK   13  A    between atoms: C_22  and  C_23
REMARK   14  A    between atoms: C_25  and  O_27
REMARK   15  A    between atoms: O_27  and  C_28
REMARK   16  A    between atoms: C_28  and  C_29
REMARK                            x       y       z     vdW  Elec       q    Type
REMARK                         _______ _______ _______ _____ _____    ______ ____
ROOT
ATOM      1  C   LIG A   1      -6.502  -0.328 125.016  0.00  0.00    -0.006 A 
ATOM      2  C   LIG A   1      -7.033  -0.148 123.732  0.00  0.00    +0.007 A 
ATOM      3  C   LIG A   1      -7.120   1.118 123.163  0.00  0.00    +0.007 A 
ATOM      4  C   LIG A   1      -6.673   2.264 123.849  0.00  0.00    -0.011 A 
ATOM      5  C   LIG A   1      -6.150   2.096 125.152  0.00  0.00    +0.030 A 
ATOM      6  C   LIG A   1      -6.108   0.814 125.761  0.00  0.00    -0.029 A 
ATOM      7  C   LIG A   1      -5.650   0.625 127.198  0.00  0.00    +0.047 C 
ATOM      8  C   LIG A   1      -5.363   1.895 128.034  0.00  0.00    +0.085 C 
ATOM      9  C   LIG A   1      -4.711   2.938 127.112  0.00  0.00    +0.254 C 
ATOM     10  C   LIG A   1      -5.633   3.260 125.955  0.00  0.00    +0.204 C 
ATOM     11  O   LIG A   1      -5.886   4.409 125.663  0.00  0.00    -0.288 OA
ENDROOT
BRANCH   8  12
ATOM     12  C   LIG A   1      -6.597   2.344 128.919  0.00  0.00    +0.115 C 
ATOM     13  C   LIG A   1      -7.872   1.590 128.468  0.00  0.00    +0.056 C 
ATOM     14  C   LIG A   1      -6.437   1.931 130.406  0.00  0.00    +0.056 C 
BRANCH  12  15
ATOM     15  O   LIG A   1      -6.723   3.803 128.915  0.00  0.00    -0.458 OA
BRANCH  15  16
ATOM     16  C   LIG A   1      -7.928   4.457 128.743  0.00  0.00    +0.304 C 
ATOM     17  C   LIG A   1      -8.613   4.771 130.015  0.00  0.00    +0.136 C 
ATOM     18  O   LIG A   1      -8.419   4.790 127.670  0.00  0.00    -0.251 OA
ENDBRANCH  15  16
ENDBRANCH  12  15
ENDBRANCH   8  12
BRANCH   1  19
ATOM     19  C   LIG A   1      -6.380  -1.757 125.521  0.00  0.00    +0.268 C 
BRANCH  19  20
ATOM     20  O   LIG A   1      -7.536  -2.127 126.282  0.00  0.00    -0.460 OA
BRANCH  20  22
ATOM     21  O   LIG A   1      -9.723  -2.366 125.611  0.00  0.00    -0.251 OA
ATOM     22  C   LIG A   1      -8.553  -2.689 125.564  0.00  0.00    +0.304 C 
ATOM     23  C   LIG A   1      -8.027  -3.805 124.696  0.00  0.00    +0.136 C 
ENDBRANCH  20  22
ENDBRANCH  19  20
ENDBRANCH   1  19
BRANCH   4  24
ATOM     24  C   LIG A   1      -6.798   3.584 123.117  0.00  0.00    +0.195 C 
BRANCH  24  25
ATOM     25  O   LIG A   1      -5.607   3.887 122.389  0.00  0.00    -0.378 OA
ATOM     26  C   LIG A   1      -5.870   3.915 120.986  0.00  0.00    +0.194 C 
ENDBRANCH  24  25
ENDBRANCH   4  24
BRANCH   9  27
ATOM     27  O   LIG A   1      -3.505   2.415 126.491  0.00  0.00    -0.453 OA
BRANCH  27  28
ATOM     28  C   LIG A   1      -2.350   3.031 126.777  0.00  0.00    +0.305 C 
ATOM     29  C   LIG A   1      -2.549   4.292 127.586  0.00  0.00    +0.136 C 
ATOM     30  O   LIG A   1      -1.239   2.650 126.405  0.00  0.00    -0.251 OA
ENDBRANCH  27  28
ENDBRANCH   9  27
TORSDOF 10
ENDMDL
MODEL 3
REMARK VINA RESULT:      -6.1      3.512      8.011
REMARK  Name = NuBBE_1905
REMARK  16 active torsions:
REMARK  status: ('A' for Active; 'I' for Inactive)
REMARK    1  A    between atoms: C_2  and  C_3
REMARK    2  A    between atoms: C_2  and  O_4
REMARK    3  A    between atoms: O_4  and  C_5
REMARK    4  A    between atoms: C_5  and  C_6
REMARK    5  A    between atoms: C_9  and  C_10
REMARK    6  A    between atoms: C_10  and  O_11
REMARK    7  A    between atoms: O_11  and  C_12
REMARK    8  A    between atoms: C_16  and  C_18
REMARK    9  A    between atoms: C_18  and  C_19
REMARK   10  A    between atoms: C_18  and  C_20
REMARK   11  A    between atoms: C_18  and  O_21
REMARK   12  A    between atoms: O_21  and  C_22
REMARK   13  A    between atoms: C_22  and  C_23
REMARK   14  A    between atoms: C_25  and  O_27
REMARK   15  A    between atoms: O_27  and  C_28
REMARK   16  A    between atoms: C_28  and  C_29
REMARK                            x       y       z     vdW  Elec       q    Type
REMARK                         _______ _______ _______ _____ _____    ______ ____
ROOT
ATOM      1  C   LIG A   1      -8.469  -2.673 127.368  0.00  0.00    -0.006 A 
ATOM      2  C   LIG A   1      -8.124  -3.672 128.286  0.00  0.00    +0.007 A 
ATOM      3  C   LIG A   1      -7.295  -3.396 129.370  0.00  0.00    +0.007 A 
ATOM      4  C   LIG A   1      -6.780  -2.105 129.589  0.00  0.00    -0.011 A 
ATOM      5  C   LIG A   1      -7.110  -1.091 128.660  0.00  0.00    +0.030 A 
ATOM      6  C   LIG A   1      -7.909  -1.377 127.522  0.00  0.00    -0.029 A 
ATOM      7  C   LIG A   1      -8.187  -0.332 126.455  0.00  0.00    +0.047 C 
ATOM      8  C   LIG A   1      -7.452   1.025 126.570  0.00  0.00    +0.085 C 
ATOM      9  C   LIG A   1      -7.364   1.398 128.058  0.00  0.00    +0.254 C 
ATOM     10  C   LIG A   1      -6.619   0.323 128.821  0.00  0.00    +0.204 C 
ATOM     11  O   LIG A   1      -5.710   0.610 129.571  0.00  0.00    -0.288 OA
ENDROOT
BRANCH   8  12
ATOM     12  C   LIG A   1      -6.128   1.086 125.702  0.00  0.00    +0.115 C 
ATOM     13  C   LIG A   1      -5.091   2.009 126.385  0.00  0.00    +0.056 C 
ATOM     14  C   LIG A   1      -5.406  -0.285 125.632  0.00  0.00    +0.056 C 
BRANCH  12  15
ATOM     15  O   LIG A   1      -6.443   1.449 124.318  0.00  0.00    -0.458 OA
BRANCH  15  16
ATOM     16  C   LIG A   1      -7.008   2.659 123.964  0.00  0.00    +0.304 C 
ATOM     17  C   LIG A   1      -6.048   3.595 123.341  0.00  0.00    +0.136 C 
ATOM     18  O   LIG A   1      -8.184   2.973 124.108  0.00  0.00    -0.251 OA
ENDBRANCH  15  16
ENDBRANCH  12  15
ENDBRANCH   8  12
BRANCH   1  19
ATOM     19  C   LIG A   1      -9.438  -3.054 126.260  0.00  0.00    +0.268 C 
BRANCH  19  20
ATOM     20  O   LIG A   1      -8.750  -3.706 125.186  0.00  0.00    -0.460 OA
BRANCH  20  22
ATOM     21  O   LIG A   1      -9.952  -3.154 123.304  0.00  0.00    -0.251 OA
ATOM     22  C   LIG A   1      -8.925  -3.145 123.954  0.00  0.00    +0.304 C 
ATOM     23  C   LIG A   1      -7.641  -2.510 123.480  0.00  0.00    +0.136 C 
ENDBRANCH  20  22
ENDBRANCH  19  20
ENDBRANCH   1  19
BRANCH   4  24
ATOM     24  C   LIG A   1      -5.911  -1.921 130.816  0.00  0.00    +0.195 C 
BRANCH  24  25
ATOM     25  O   LIG A   1      -4.802  -2.821 130.805  0.00  0.00    -0.378 OA
ATOM     26  C   LIG A   1      -3.703  -2.255 130.092  0.00  0.00    +0.194 C 
ENDBRANCH  24  25
ENDBRANCH   4  24
BRANCH   9  27
ATOM     27  O   LIG A   1      -8.681   1.443 128.672  0.00  0.00    -0.453 OA
BRANCH  27  28
ATOM     28  C   LIG A   1      -8.949   2.480 129.476  0.00  0.00    +0.305 C 
ATOM     29  C   LIG A   1      -9.071   2.075 130.927  0.00  0.00    +0.136 C 
ATOM     30  O   LIG A   1      -9.114   3.640 129.096  0.00  0.00    -0.251 OA
ENDBRANCH  27  28
ENDBRANCH   9  27
TORSDOF 10
ENDMDL
MODEL 4
REMARK VINA RESULT:      -6.1      1.770      5.730
REMARK  Name = NuBBE_1905
REMARK  16 active torsions:
REMARK  status: ('A' for Active; 'I' for Inactive)
REMARK    1  A    between atoms: C_2  and  C_3
REMARK    2  A    between atoms: C_2  and  O_4
REMARK    3  A    between atoms: O_4  and  C_5
REMARK    4  A    between atoms: C_5  and  C_6
REMARK    5  A    between atoms: C_9  and  C_10
REMARK    6  A    between atoms: C_10  and  O_11
REMARK    7  A    between atoms: O_11  and  C_12
REMARK    8  A    between atoms: C_16  and  C_18
REMARK    9  A    between atoms: C_18  and  C_19
REMARK   10  A    between atoms: C_18  and  C_20
REMARK   11  A    between atoms: C_18  and  O_21
REMARK   12  A    between atoms: O_21  and  C_22
REMARK   13  A    between atoms: C_22  and  C_23
REMARK   14  A    between atoms: C_25  and  O_27
REMARK   15  A    between atoms: O_27  and  C_28
REMARK   16  A    between atoms: C_28  and  C_29
REMARK                            x       y       z     vdW  Elec       q    Type
REMARK                         _______ _______ _______ _____ _____    ______ ____
ROOT
ATOM      1  C   LIG A   1      -7.484   2.782 127.247  0.00  0.00    -0.006 A 
ATOM      2  C   LIG A   1      -6.254   2.921 126.590  0.00  0.00    +0.007 A 
ATOM      3  C   LIG A   1      -5.254   3.739 127.106  0.00  0.00    +0.007 A 
ATOM      4  C   LIG A   1      -5.434   4.450 128.308  0.00  0.00    -0.011 A 
ATOM      5  C   LIG A   1      -6.676   4.329 128.971  0.00  0.00    +0.030 A 
ATOM      6  C   LIG A   1      -7.722   3.540 128.423  0.00  0.00    -0.029 A 
ATOM      7  C   LIG A   1      -9.100   3.481 129.061  0.00  0.00    +0.047 C 
ATOM      8  C   LIG A   1      -9.379   4.424 130.256  0.00  0.00    +0.085 C 
ATOM      9  C   LIG A   1      -8.102   4.512 131.106  0.00  0.00    +0.254 C 
ATOM     10  C   LIG A   1      -6.955   5.039 130.270  0.00  0.00    +0.204 C 
ATOM     11  O   LIG A   1      -6.263   5.951 130.668  0.00  0.00    -0.288 OA
ENDROOT
BRANCH   8  12
ATOM     12  C   LIG A   1     -10.088   5.773 129.826  0.00  0.00    +0.115 C 
ATOM     13  C   LIG A   1     -11.625   5.617 129.924  0.00  0.00    +0.056 C 
ATOM     14  C   LIG A   1      -9.778   6.940 130.801  0.00  0.00    +0.056 C 
BRANCH  12  15
ATOM     15  O   LIG A   1      -9.606   6.205 128.512  0.00  0.00    -0.458 OA
BRANCH  15  16
ATOM     16  C   LIG A   1     -10.376   6.935 127.626  0.00  0.00    +0.304 C 
ATOM     17  C   LIG A   1     -10.525   8.355 128.010  0.00  0.00    +0.136 C 
ATOM     18  O   LIG A   1     -10.890   6.507 126.599  0.00  0.00    -0.251 OA
ENDBRANCH  15  16
ENDBRANCH  12  15
ENDBRANCH   8  12
BRANCH   1  19
ATOM     19  C   LIG A   1      -8.484   1.810 126.644  0.00  0.00    +0.268 C 
BRANCH  19  20
ATOM     20  O   LIG A   1      -9.151   2.397 125.521  0.00  0.00    -0.460 OA
BRANCH  20  22
ATOM     21  O   LIG A   1     -10.667   1.226 124.248  0.00  0.00    -0.251 OA
ATOM     22  C   LIG A   1      -9.526   1.524 124.541  0.00  0.00    +0.304 C 
ATOM     23  C   LIG A   1      -8.309   0.947 123.860  0.00  0.00    +0.136 C 
ENDBRANCH  20  22
ENDBRANCH  19  20
ENDBRANCH   1  19
BRANCH   4  24
ATOM     24  C   LIG A   1      -4.264   5.288 128.782  0.00  0.00    +0.195 C 
BRANCH  24  25
ATOM     25  O   LIG A   1      -4.175   6.513 128.053  0.00  0.00    -0.378 OA
ATOM     26  C   LIG A   1      -3.531   7.517 128.838  0.00  0.00    +0.194 C 
ENDBRANCH  24  25
ENDBRANCH   4  24
BRANCH   9  27
ATOM     27  O   LIG A   1      -7.666   3.196 131.546  0.00  0.00    -0.453 OA
BRANCH  27  28
ATOM     28  C   LIG A   1      -8.058   2.794 132.762  0.00  0.00    +0.305 C 
ATOM     29  C   LIG A   1      -8.386   3.949 133.679  0.00  0.00    +0.136 C 
ATOM     30  O   LIG A   1      -8.120   1.619 133.128  0.00  0.00    -0.251 OA
ENDBRANCH  27  28
ENDBRANCH   9  27
TORSDOF 10
ENDMDL
MODEL 5
REMARK VINA RESULT:      -6.0      2.554      6.472
REMARK  Name = NuBBE_1905
REMARK  16 active torsions:
REMARK  status: ('A' for Active; 'I' for Inactive)
REMARK    1  A    between atoms: C_2  and  C_3
REMARK    2  A    between atoms: C_2  and  O_4
REMARK    3  A    between atoms: O_4  and  C_5
REMARK    4  A    between atoms: C_5  and  C_6
REMARK    5  A    between atoms: C_9  and  C_10
REMARK    6  A    between atoms: C_10  and  O_11
REMARK    7  A    between atoms: O_11  and  C_12
REMARK    8  A    between atoms: C_16  and  C_18
REMARK    9  A    between atoms: C_18  and  C_19
REMARK   10  A    between atoms: C_18  and  C_20
REMARK   11  A    between atoms: C_18  and  O_21
REMARK   12  A    between atoms: O_21  and  C_22
REMARK   13  A    between atoms: C_22  and  C_23
REMARK   14  A    between atoms: C_25  and  O_27
REMARK   15  A    between atoms: O_27  and  C_28
REMARK   16  A    between atoms: C_28  and  C_29
REMARK                            x       y       z     vdW  Elec       q    Type
REMARK                         _______ _______ _______ _____ _____    ______ ____
ROOT
ATOM      1  C   LIG A   1      -7.059   0.361 129.248  0.00  0.00    -0.006 A 
ATOM      2  C   LIG A   1      -8.059   0.551 130.210  0.00  0.00    +0.007 A 
ATOM      3  C   LIG A   1      -8.740   1.761 130.308  0.00  0.00    +0.007 A 
ATOM      4  C   LIG A   1      -8.456   2.835 129.444  0.00  0.00    -0.011 A 
ATOM      5  C   LIG A   1      -7.437   2.661 128.480  0.00  0.00    +0.030 A 
ATOM      6  C   LIG A   1      -6.701   1.449 128.409  0.00  0.00    -0.029 A 
ATOM      7  C   LIG A   1      -5.531   1.277 127.453  0.00  0.00    +0.047 C 
ATOM      8  C   LIG A   1      -5.069   2.518 126.652  0.00  0.00    +0.085 C 
ATOM      9  C   LIG A   1      -6.316   3.327 126.261  0.00  0.00    +0.254 C 
ATOM     10  C   LIG A   1      -7.075   3.747 127.502  0.00  0.00    +0.204 C 
ATOM     11  O   LIG A   1      -7.422   4.898 127.658  0.00  0.00    -0.288 OA
ENDROOT
BRANCH   8  12
ATOM     12  C   LIG A   1      -3.864   3.282 127.339  0.00  0.00    +0.115 C 
ATOM     13  C   LIG A   1      -3.752   2.864 128.825  0.00  0.00    +0.056 C 
ATOM     14  C   LIG A   1      -2.491   2.876 126.742  0.00  0.00    +0.056 C 
BRANCH  12  15
ATOM     15  O   LIG A   1      -3.988   4.726 127.124  0.00  0.00    -0.458 OA
BRANCH  15  16
ATOM     16  C   LIG A   1      -3.813   5.658 128.129  0.00  0.00    +0.304 C 
ATOM     17  C   LIG A   1      -2.432   6.178 128.213  0.00  0.00    +0.136 C 
ATOM     18  O   LIG A   1      -4.684   6.066 128.890  0.00  0.00    -0.251 OA
ENDBRANCH  15  16
ENDBRANCH  12  15
ENDBRANCH   8  12
BRANCH   1  19
ATOM     19  C   LIG A   1      -6.425  -1.018 129.171  0.00  0.00    +0.268 C 
BRANCH  19  20
ATOM     20  O   LIG A   1      -7.236  -1.908 128.396  0.00  0.00    -0.460 OA
BRANCH  20  22
ATOM     21  O   LIG A   1      -7.658  -3.167 130.274  0.00  0.00    -0.251 OA
ATOM     22  C   LIG A   1      -7.820  -2.925 129.095  0.00  0.00    +0.304 C 
ATOM     23  C   LIG A   1      -8.704  -3.744 128.186  0.00  0.00    +0.136 C 
ENDBRANCH  20  22
ENDBRANCH  19  20
ENDBRANCH   1  19
BRANCH   4  24
ATOM     24  C   LIG A   1      -9.280   4.092 129.632  0.00  0.00    +0.195 C 
BRANCH  24  25
ATOM     25  O   LIG A   1     -10.614   3.783 130.038  0.00  0.00    -0.378 OA
ATOM     26  C   LIG A   1     -11.318   4.972 130.395  0.00  0.00    +0.194 C 
ENDBRANCH  24  25
ENDBRANCH   4  24
BRANCH   9  27
ATOM     27  O   LIG A   1      -7.258   2.516 125.507  0.00  0.00    -0.453 OA
BRANCH  27  28
ATOM     28  C   LIG A   1      -7.733   3.029 124.363  0.00  0.00    +0.305 C 
ATOM     29  C   LIG A   1      -6.634   3.462 123.421  0.00  0.00    +0.136 C 
ATOM     30  O   LIG A   1      -8.927   3.174 124.100  0.00  0.00    -0.251 OA
ENDBRANCH  27  28
ENDBRANCH   9  27
TORSDOF 10
ENDMDL
MODEL 6
REMARK VINA RESULT:      -6.0      1.674      5.881
REMARK  Name = NuBBE_1905
REMARK  16 active torsions:
REMARK  status: ('A' for Active; 'I' for Inactive)
REMARK    1  A    between atoms: C_2  and  C_3
REMARK    2  A    between atoms: C_2  and  O_4
REMARK    3  A    between atoms: O_4  and  C_5
REMARK    4  A    between atoms: C_5  and  C_6
REMARK    5  A    between atoms: C_9  and  C_10
REMARK    6  A    between atoms: C_10  and  O_11
REMARK    7  A    between atoms: O_11  and  C_12
REMARK    8  A    between atoms: C_16  and  C_18
REMARK    9  A    between atoms: C_18  and  C_19
REMARK   10  A    between atoms: C_18  and  C_20
REMARK   11  A    between atoms: C_18  and  O_21
REMARK   12  A    between atoms: O_21  and  C_22
REMARK   13  A    between atoms: C_22  and  C_23
REMARK   14  A    between atoms: C_25  and  O_27
REMARK   15  A    between atoms: O_27  and  C_28
REMARK   16  A    between atoms: C_28  and  C_29
REMARK                            x       y       z     vdW  Elec       q    Type
REMARK                         _______ _______ _______ _____ _____    ______ ____
ROOT
ATOM      1  C   LIG A   1      -5.584   5.350 130.377  0.00  0.00    -0.006 A 
ATOM      2  C   LIG A   1      -5.944   6.640 130.788  0.00  0.00    +0.007 A 
ATOM      3  C   LIG A   1      -7.280   7.009 130.906  0.00  0.00    +0.007 A 
ATOM      4  C   LIG A   1      -8.319   6.101 130.627  0.00  0.00    -0.011 A 
ATOM      5  C   LIG A   1      -7.968   4.801 130.196  0.00  0.00    +0.030 A 
ATOM      6  C   LIG A   1      -6.608   4.434 130.020  0.00  0.00    -0.029 A 
ATOM      7  C   LIG A   1      -6.210   3.080 129.458  0.00  0.00    +0.047 C 
ATOM      8  C   LIG A   1      -7.340   2.155 128.943  0.00  0.00    +0.085 C 
ATOM      9  C   LIG A   1      -8.551   2.315 129.875  0.00  0.00    +0.254 C 
ATOM     10  C   LIG A   1      -9.010   3.758 129.890  0.00  0.00    +0.204 C 
ATOM     11  O   LIG A   1     -10.176   4.041 129.722  0.00  0.00    -0.288 OA
ENDROOT
BRANCH   8  12
ATOM     12  C   LIG A   1      -7.573   2.276 127.381  0.00  0.00    +0.115 C 
ATOM     13  C   LIG A   1      -6.317   1.788 126.621  0.00  0.00    +0.056 C 
ATOM     14  C   LIG A   1      -8.695   1.330 126.878  0.00  0.00    +0.056 C 
BRANCH  12  15
ATOM     15  O   LIG A   1      -8.002   3.633 127.034  0.00  0.00    -0.458 OA
BRANCH  15  16
ATOM     16  C   LIG A   1      -7.973   4.128 125.744  0.00  0.00    +0.304 C 
ATOM     17  C   LIG A   1      -6.795   4.980 125.469  0.00  0.00    +0.136 C 
ATOM     18  O   LIG A   1      -8.799   3.900 124.868  0.00  0.00    -0.251 OA
ENDBRANCH  15  16
ENDBRANCH  12  15
ENDBRANCH   8  12
BRANCH   1  19
ATOM     19  C   LIG A   1      -4.100   5.021 130.350  0.00  0.00    +0.268 C 
BRANCH  19  20
ATOM     20  O   LIG A   1      -3.386   5.811 131.307  0.00  0.00    -0.460 OA
BRANCH  20  22
ATOM     21  O   LIG A   1      -1.321   6.791 131.557  0.00  0.00    -0.251 OA
ATOM     22  C   LIG A   1      -2.215   6.354 130.861  0.00  0.00    +0.304 C 
ATOM     23  C   LIG A   1      -2.181   6.358 129.353  0.00  0.00    +0.136 C 
ENDBRANCH  20  22
ENDBRANCH  19  20
ENDBRANCH   1  19
BRANCH   4  24
ATOM     24  C   LIG A   1      -9.734   6.611 130.815  0.00  0.00    +0.195 C 
BRANCH  24  25
ATOM     25  O   LIG A   1     -10.005   7.717 129.954  0.00  0.00    -0.378 OA
ATOM     26  C   LIG A   1     -10.614   7.272 128.743  0.00  0.00    +0.194 C 
ENDBRANCH  24  25
ENDBRANCH   4  24
BRANCH   9  27
ATOM     27  O   LIG A   1      -8.200   2.023 131.255  0.00  0.00    -0.453 OA
BRANCH  27  28
ATOM     28  C   LIG A   1      -9.206   1.809 132.113  0.00  0.00    +0.305 C 
ATOM     29  C   LIG A   1      -9.231   2.812 133.243  0.00  0.00    +0.136 C 
ATOM     30  O   LIG A   1     -10.016   0.884 132.030  0.00  0.00    -0.251 OA
ENDBRANCH  27  28
ENDBRANCH   9  27
TORSDOF 10
ENDMDL
MODEL 7
REMARK VINA RESULT:      -5.9      1.878      5.675
REMARK  Name = NuBBE_1905
REMARK  16 active torsions:
REMARK  status: ('A' for Active; 'I' for Inactive)
REMARK    1  A    between atoms: C_2  and  C_3
REMARK    2  A    between atoms: C_2  and  O_4
REMARK    3  A    between atoms: O_4  and  C_5
REMARK    4  A    between atoms: C_5  and  C_6
REMARK    5  A    between atoms: C_9  and  C_10
REMARK    6  A    between atoms: C_10  and  O_11
REMARK    7  A    between atoms: O_11  and  C_12
REMARK    8  A    between atoms: C_16  and  C_18
REMARK    9  A    between atoms: C_18  and  C_19
REMARK   10  A    between atoms: C_18  and  C_20
REMARK   11  A    between atoms: C_18  and  O_21
REMARK   12  A    between atoms: O_21  and  C_22
REMARK   13  A    between atoms: C_22  and  C_23
REMARK   14  A    between atoms: C_25  and  O_27
REMARK   15  A    between atoms: O_27  and  C_28
REMARK   16  A    between atoms: C_28  and  C_29
REMARK                            x       y       z     vdW  Elec       q    Type
REMARK                         _______ _______ _______ _____ _____    ______ ____
ROOT
ATOM      1  C   LIG A   1      -7.533   2.280 128.283  0.00  0.00    -0.006 A 
ATOM      2  C   LIG A   1      -7.436   0.882 128.298  0.00  0.00    +0.007 A 
ATOM      3  C   LIG A   1      -7.839   0.147 129.409  0.00  0.00    +0.007 A 
ATOM      4  C   LIG A   1      -8.366   0.775 130.553  0.00  0.00    -0.011 A 
ATOM      5  C   LIG A   1      -8.453   2.186 130.556  0.00  0.00    +0.030 A 
ATOM      6  C   LIG A   1      -7.993   2.947 129.449  0.00  0.00    -0.029 A 
ATOM      7  C   LIG A   1      -7.978   4.466 129.472  0.00  0.00    +0.047 C 
ATOM      8  C   LIG A   1      -8.348   5.168 130.801  0.00  0.00    +0.085 C 
ATOM      9  C   LIG A   1      -9.474   4.365 131.470  0.00  0.00    +0.254 C 
ATOM     10  C   LIG A   1      -9.017   2.944 131.728  0.00  0.00    +0.204 C 
ATOM     11  O   LIG A   1      -9.161   2.434 132.818  0.00  0.00    -0.288 OA
ENDROOT
BRANCH   8  12
ATOM     12  C   LIG A   1      -7.081   5.552 131.670  0.00  0.00    +0.115 C 
ATOM     13  C   LIG A   1      -6.498   6.901 131.185  0.00  0.00    +0.056 C 
ATOM     14  C   LIG A   1      -7.444   5.824 133.154  0.00  0.00    +0.056 C 
BRANCH  12  15
ATOM     15  O   LIG A   1      -6.120   4.447 131.685  0.00  0.00    -0.458 OA
BRANCH  15  16
ATOM     16  C   LIG A   1      -4.766   4.620 131.468  0.00  0.00    +0.304 C 
ATOM     17  C   LIG A   1      -4.321   4.155 130.137  0.00  0.00    +0.136 C 
ATOM     18  O   LIG A   1      -3.971   5.122 132.254  0.00  0.00    -0.251 OA
ENDBRANCH  15  16
ENDBRANCH  12  15
ENDBRANCH   8  12
BRANCH   1  19
ATOM     19  C   LIG A   1      -7.136   2.988 126.998  0.00  0.00    +0.268 C 
BRANCH  19  20
ATOM     20  O   LIG A   1      -8.286   3.538 126.346  0.00  0.00    -0.460 OA
BRANCH  20  22
ATOM     21  O   LIG A   1      -8.964   5.690 125.900  0.00  0.00    -0.251 OA
ATOM     22  C   LIG A   1      -8.133   4.806 125.861  0.00  0.00    +0.304 C 
ATOM     23  C   LIG A   1      -6.768   4.967 125.237  0.00  0.00    +0.136 C 
ENDBRANCH  20  22
ENDBRANCH  19  20
ENDBRANCH   1  19
BRANCH   4  24
ATOM     24  C   LIG A   1      -8.793  -0.132 131.689  0.00  0.00    +0.195 C 
BRANCH  24  25
ATOM     25  O   LIG A   1      -8.023  -1.335 131.709  0.00  0.00    -0.378 OA
ATOM     26  C   LIG A   1      -7.831  -1.785 133.050  0.00  0.00    +0.194 C 
ENDBRANCH  24  25
ENDBRANCH   4  24
BRANCH   9  27
ATOM     27  O   LIG A   1     -10.624   4.230 130.591  0.00  0.00    -0.453 OA
BRANCH  27  28
ATOM     28  C   LIG A   1     -11.353   5.330 130.359  0.00  0.00    +0.305 C 
ATOM     29  C   LIG A   1     -11.540   6.175 131.599  0.00  0.00    +0.136 C 
ATOM     30  O   LIG A   1     -11.853   5.627 129.274  0.00  0.00    -0.251 OA
ENDBRANCH  27  28
ENDBRANCH   9  27
TORSDOF 10
ENDMDL
MODEL 8
REMARK VINA RESULT:      -5.9      2.390      6.274
REMARK  Name = NuBBE_1905
REMARK  16 active torsions:
REMARK  status: ('A' for Active; 'I' for Inactive)
REMARK    1  A    between atoms: C_2  and  C_3
REMARK    2  A    between atoms: C_2  and  O_4
REMARK    3  A    between atoms: O_4  and  C_5
REMARK    4  A    between atoms: C_5  and  C_6
REMARK    5  A    between atoms: C_9  and  C_10
REMARK    6  A    between atoms: C_10  and  O_11
REMARK    7  A    between atoms: O_11  and  C_12
REMARK    8  A    between atoms: C_16  and  C_18
REMARK    9  A    between atoms: C_18  and  C_19
REMARK   10  A    between atoms: C_18  and  C_20
REMARK   11  A    between atoms: C_18  and  O_21
REMARK   12  A    between atoms: O_21  and  C_22
REMARK   13  A    between atoms: C_22  and  C_23
REMARK   14  A    between atoms: C_25  and  O_27
REMARK   15  A    between atoms: O_27  and  C_28
REMARK   16  A    between atoms: C_28  and  C_29
REMARK                            x       y       z     vdW  Elec       q    Type
REMARK                         _______ _______ _______ _____ _____    ______ ____
ROOT
ATOM      1  C   LIG A   1      -8.257   0.439 130.594  0.00  0.00    -0.006 A 
ATOM      2  C   LIG A   1      -9.224   0.708 131.571  0.00  0.00    +0.007 A 
ATOM      3  C   LIG A   1      -9.807   1.966 131.678  0.00  0.00    +0.007 A 
ATOM      4  C   LIG A   1      -9.456   3.014 130.806  0.00  0.00    -0.011 A 
ATOM      5  C   LIG A   1      -8.470   2.760 129.825  0.00  0.00    +0.030 A 
ATOM      6  C   LIG A   1      -7.831   1.495 129.745  0.00  0.00    -0.029 A 
ATOM      7  C   LIG A   1      -6.694   1.232 128.771  0.00  0.00    +0.047 C 
ATOM      8  C   LIG A   1      -6.152   2.432 127.959  0.00  0.00    +0.085 C 
ATOM      9  C   LIG A   1      -7.338   3.334 127.586  0.00  0.00    +0.254 C 
ATOM     10  C   LIG A   1      -8.042   3.814 128.839  0.00  0.00    +0.204 C 
ATOM     11  O   LIG A   1      -8.296   4.988 128.998  0.00  0.00    -0.288 OA
ENDROOT
BRANCH   8  12
ATOM     12  C   LIG A   1      -4.879   3.102 128.623  0.00  0.00    +0.115 C 
ATOM     13  C   LIG A   1      -5.019   4.643 128.594  0.00  0.00    +0.056 C 
ATOM     14  C   LIG A   1      -4.763   2.775 130.135  0.00  0.00    +0.056 C 
BRANCH  12  15
ATOM     15  O   LIG A   1      -3.654   2.593 128.003  0.00  0.00    -0.458 OA
BRANCH  15  16
ATOM     16  C   LIG A   1      -3.139   3.095 126.823  0.00  0.00    +0.304 C 
ATOM     17  C   LIG A   1      -1.665   3.016 126.745  0.00  0.00    +0.136 C 
ATOM     18  O   LIG A   1      -3.792   3.550 125.890  0.00  0.00    -0.251 OA
ENDBRANCH  15  16
ENDBRANCH  12  15
ENDBRANCH   8  12
BRANCH   1  19
ATOM     19  C   LIG A   1      -7.734  -0.985 130.509  0.00  0.00    +0.268 C 
BRANCH  19  20
ATOM     20  O   LIG A   1      -8.272  -1.658 129.366  0.00  0.00    -0.460 OA
BRANCH  20  22
ATOM     21  O   LIG A   1      -8.626  -3.798 128.601  0.00  0.00    -0.251 OA
ATOM     22  C   LIG A   1      -8.058  -3.006 129.325  0.00  0.00    +0.304 C 
ATOM     23  C   LIG A   1      -7.007  -3.399 130.336  0.00  0.00    +0.136 C 
ENDBRANCH  20  22
ENDBRANCH  19  20
ENDBRANCH   1  19
BRANCH   4  24
ATOM     24  C   LIG A   1     -10.177   4.332 131.005  0.00  0.00    +0.195 C 
BRANCH  24  25
ATOM     25  O   LIG A   1     -11.315   4.434 130.149  0.00  0.00    -0.378 OA
ATOM     26  C   LIG A   1     -11.677   5.801 129.957  0.00  0.00    +0.194 C 
ENDBRANCH  24  25
ENDBRANCH   4  24
BRANCH   9  27
ATOM     27  O   LIG A   1      -8.353   2.598 126.850  0.00  0.00    -0.453 OA
BRANCH  27  28
ATOM     28  C   LIG A   1      -8.426   2.807 125.529  0.00  0.00    +0.305 C 
ATOM     29  C   LIG A   1      -7.942   1.623 124.725  0.00  0.00    +0.136 C 
ATOM     30  O   LIG A   1      -8.811   3.852 125.002  0.00  0.00    -0.251 OA
ENDBRANCH  27  28
ENDBRANCH   9  27
TORSDOF 10
ENDMDL
MODEL 9
REMARK VINA RESULT:      -5.9      2.190      5.832
REMARK  Name = NuBBE_1905
REMARK  16 active torsions:
REMARK  status: ('A' for Active; 'I' for Inactive)
REMARK    1  A    between atoms: C_2  and  C_3
REMARK    2  A    between atoms: C_2  and  O_4
REMARK    3  A    between atoms: O_4  and  C_5
REMARK    4  A    between atoms: C_5  and  C_6
REMARK    5  A    between atoms: C_9  and  C_10
REMARK    6  A    between atoms: C_10  and  O_11
REMARK    7  A    between atoms: O_11  and  C_12
REMARK    8  A    between atoms: C_16  and  C_18
REMARK    9  A    between atoms: C_18  and  C_19
REMARK   10  A    between atoms: C_18  and  C_20
REMARK   11  A    between atoms: C_18  and  O_21
REMARK   12  A    between atoms: O_21  and  C_22
REMARK   13  A    between atoms: C_22  and  C_23
REMARK   14  A    between atoms: C_25  and  O_27
REMARK   15  A    between atoms: O_27  and  C_28
REMARK   16  A    between atoms: C_28  and  C_29
REMARK                            x       y       z     vdW  Elec       q    Type
REMARK                         _______ _______ _______ _____ _____    ______ ____
ROOT
ATOM      1  C   LIG A   1      -9.303   5.765 130.462  0.00  0.00    -0.006 A 
ATOM      2  C   LIG A   1     -10.053   4.607 130.219  0.00  0.00    +0.007 A 
ATOM      3  C   LIG A   1      -9.565   3.351 130.564  0.00  0.00    +0.007 A 
ATOM      4  C   LIG A   1      -8.307   3.194 131.175  0.00  0.00    -0.011 A 
ATOM      5  C   LIG A   1      -7.534   4.355 131.411  0.00  0.00    +0.030 A 
ATOM      6  C   LIG A   1      -8.001   5.635 131.012  0.00  0.00    -0.029 A 
ATOM      7  C   LIG A   1      -7.143   6.881 131.158  0.00  0.00    +0.047 C 
ATOM      8  C   LIG A   1      -5.680   6.696 131.626  0.00  0.00    +0.085 C 
ATOM      9  C   LIG A   1      -5.650   5.572 132.673  0.00  0.00    +0.254 C 
ATOM     10  C   LIG A   1      -6.184   4.287 132.074  0.00  0.00    +0.204 C 
ATOM     11  O   LIG A   1      -5.570   3.248 132.185  0.00  0.00    -0.288 OA
ENDROOT
BRANCH   8  12
ATOM     12  C   LIG A   1      -4.651   6.628 130.423  0.00  0.00    +0.115 C 
ATOM     13  C   LIG A   1      -4.262   8.059 129.981  0.00  0.00    +0.056 C 
ATOM     14  C   LIG A   1      -3.298   5.994 130.840  0.00  0.00    +0.056 C 
BRANCH  12  15
ATOM     15  O   LIG A   1      -5.179   5.784 129.348  0.00  0.00    -0.458 OA
BRANCH  15  16
ATOM     16  C   LIG A   1      -4.442   5.428 128.236  0.00  0.00    +0.304 C 
ATOM     17  C   LIG A   1      -4.197   3.973 128.136  0.00  0.00    +0.136 C 
ATOM     18  O   LIG A   1      -4.026   6.193 127.373  0.00  0.00    -0.251 OA
ENDBRANCH  15  16
ENDBRANCH  12  15
ENDBRANCH   8  12
BRANCH   1  19
ATOM     19  C   LIG A   1      -9.952   7.096 130.117  0.00  0.00    +0.268 C 
BRANCH  19  20
ATOM     20  O   LIG A   1      -9.760   7.412 128.734  0.00  0.00    -0.460 OA
BRANCH  20  22
ATOM     21  O   LIG A   1     -10.835   8.438 126.978  0.00  0.00    -0.251 OA
ATOM     22  C   LIG A   1     -10.783   8.096 128.143  0.00  0.00    +0.304 C 
ATOM     23  C   LIG A   1     -11.863   8.398 129.153  0.00  0.00    +0.136 C 
ENDBRANCH  20  22
ENDBRANCH  19  20
ENDBRANCH   1  19
BRANCH   4  24
ATOM     24  C   LIG A   1      -7.895   1.780 131.527  0.00  0.00    +0.195 C 
BRANCH  24  25
ATOM     25  O   LIG A   1      -7.946   0.926 130.383  0.00  0.00    -0.378 OA
ATOM     26  C   LIG A   1      -6.696   0.937 129.694  0.00  0.00    +0.194 C 
ENDBRANCH  24  25
ENDBRANCH   4  24
BRANCH   9  27
ATOM     27  O   LIG A   1      -6.541   5.861 133.786  0.00  0.00    -0.453 OA
BRANCH  27  28
ATOM     28  C   LIG A   1      -6.142   5.480 135.007  0.00  0.00    +0.305 C 
ATOM     29  C   LIG A   1      -7.234   5.615 136.043  0.00  0.00    +0.136 C 
ATOM     30  O   LIG A   1      -5.008   5.090 135.286  0.00  0.00    -0.251 OA
ENDBRANCH  27  28
ENDBRANCH   9  27
TORSDOF 10
ENDMDL
