MODEL 1
REMARK VINA RESULT:      -6.2      0.000      0.000
REMARK  Name = NuBBE_672
REMARK  3 active torsions:
REMARK  status: ('A' for Active; 'I' for Inactive)
REMARK    1  A    between atoms: C_1  and  C_2
REMARK    2  A    between atoms: C_9  and  O_10
REMARK    3  A    between atoms: O_10  and  C_11
REMARK                            x       y       z     vdW  Elec       q    Type
REMARK                         _______ _______ _______ _____ _____    ______ ____
ROOT
ATOM      1  C   LIG A   1     -13.522  10.002 128.843  0.00  0.00    +0.052 C 
ATOM      2  C   LIG A   1     -12.366   9.053 129.127  0.00  0.00    +0.178 C 
ATOM      3  O   LIG A   1     -12.079   8.340 127.909  0.00  0.00    -0.458 OA
ATOM      4  C   LIG A   1     -12.721   8.067 130.230  0.00  0.00    +0.080 C 
ATOM      5  C   LIG A   1     -11.558   7.132 130.392  0.00  0.00    -0.026 A 
ATOM      6  C   LIG A   1     -11.251   6.590 131.647  0.00  0.00    +0.005 A 
ATOM      7  C   LIG A   1     -10.188   5.701 131.785  0.00  0.00    +0.004 A 
ATOM      8  C   LIG A   1      -9.429   5.346 130.671  0.00  0.00    +0.046 A 
ATOM      9  C   LIG A   1      -9.724   5.888 129.416  0.00  0.00    +0.134 A 
ATOM     10  C   LIG A   1     -10.805   6.768 129.257  0.00  0.00    +0.104 A 
ATOM     11  C   LIG A   1     -11.204   7.294 127.914  0.00  0.00    +0.343 C 
ATOM     12  O   LIG A   1     -10.798   6.823 126.863  0.00  0.00    -0.245 OA
ENDROOT
BRANCH   9  13
ATOM     13  O   LIG A   1      -8.959   5.447 128.370  0.00  0.00    -0.494 OA
ATOM     14  C   LIG A   1      -8.156   4.334 128.765  0.00  0.00    +0.277 C 
ENDBRANCH   9  13
TORSDOF 1
ENDMDL
MODEL 2
REMARK VINA RESULT:      -6.0      1.293      4.128
REMARK  Name = NuBBE_672
REMARK  3 active torsions:
REMARK  status: ('A' for Active; 'I' for Inactive)
REMARK    1  A    between atoms: C_1  and  C_2
REMARK    2  A    between atoms: C_9  and  O_10
REMARK    3  A    between atoms: O_10  and  C_11
REMARK                            x       y       z     vdW  Elec       q    Type
REMARK                         _______ _______ _______ _____ _____    ______ ____
ROOT
ATOM      1  C   LIG A   1      -8.856   4.125 132.891  0.00  0.00    +0.052 C 
ATOM      2  C   LIG A   1      -9.809   4.686 131.845  0.00  0.00    +0.178 C 
ATOM      3  O   LIG A   1      -9.057   4.883 130.633  0.00  0.00    -0.458 OA
ATOM      4  C   LIG A   1     -10.409   6.008 132.300  0.00  0.00    +0.080 C 
ATOM      5  C   LIG A   1     -11.274   6.520 131.184  0.00  0.00    -0.026 A 
ATOM      6  C   LIG A   1     -12.423   7.271 131.463  0.00  0.00    +0.005 A 
ATOM      7  C   LIG A   1     -13.205   7.768 130.422  0.00  0.00    +0.004 A 
ATOM      8  C   LIG A   1     -12.841   7.519 129.100  0.00  0.00    +0.046 A 
ATOM      9  C   LIG A   1     -11.700   6.764 128.813  0.00  0.00    +0.134 A 
ATOM     10  C   LIG A   1     -10.890   6.275 129.850  0.00  0.00    +0.104 A 
ATOM     11  C   LIG A   1      -9.614   5.543 129.577  0.00  0.00    +0.343 C 
ATOM     12  O   LIG A   1      -9.069   5.532 128.484  0.00  0.00    -0.245 OA
ENDROOT
BRANCH   9  13
ATOM     13  O   LIG A   1     -11.391   6.611 127.488  0.00  0.00    -0.494 OA
ATOM     14  C   LIG A   1     -11.033   7.864 126.905  0.00  0.00    +0.277 C 
ENDBRANCH   9  13
TORSDOF 1
ENDMDL
MODEL 3
REMARK VINA RESULT:      -5.9      2.055      4.955
REMARK  Name = NuBBE_672
REMARK  3 active torsions:
REMARK  status: ('A' for Active; 'I' for Inactive)
REMARK    1  A    between atoms: C_1  and  C_2
REMARK    2  A    between atoms: C_9  and  O_10
REMARK    3  A    between atoms: O_10  and  C_11
REMARK                            x       y       z     vdW  Elec       q    Type
REMARK                         _______ _______ _______ _____ _____    ______ ____
ROOT
ATOM      1  C   LIG A   1      -9.415   4.464 132.339  0.00  0.00    +0.052 C 
ATOM      2  C   LIG A   1      -9.943   5.671 131.574  0.00  0.00    +0.178 C 
ATOM      3  O   LIG A   1     -11.252   5.974 132.091  0.00  0.00    -0.458 OA
ATOM      4  C   LIG A   1     -10.031   5.383 130.084  0.00  0.00    +0.080 C 
ATOM      5  C   LIG A   1     -10.625   6.594 129.424  0.00  0.00    -0.026 A 
ATOM      6  C   LIG A   1     -10.253   6.947 128.119  0.00  0.00    +0.005 A 
ATOM      7  C   LIG A   1     -10.829   8.055 127.502  0.00  0.00    +0.004 A 
ATOM      8  C   LIG A   1     -11.780   8.812 128.183  0.00  0.00    +0.046 A 
ATOM      9  C   LIG A   1     -12.152   8.472 129.487  0.00  0.00    +0.134 A 
ATOM     10  C   LIG A   1     -11.597   7.345 130.114  0.00  0.00    +0.104 A 
ATOM     11  C   LIG A   1     -12.039   6.900 131.472  0.00  0.00    +0.343 C 
ATOM     12  O   LIG A   1     -13.052   7.313 132.015  0.00  0.00    -0.245 OA
ENDROOT
BRANCH   9  13
ATOM     13  O   LIG A   1     -13.129   9.241 130.060  0.00  0.00    -0.494 OA
ATOM     14  C   LIG A   1     -13.390  10.399 129.267  0.00  0.00    +0.277 C 
ENDBRANCH   9  13
TORSDOF 1
ENDMDL
MODEL 4
REMARK VINA RESULT:      -5.8      8.480     10.559
REMARK  Name = NuBBE_672
REMARK  3 active torsions:
REMARK  status: ('A' for Active; 'I' for Inactive)
REMARK    1  A    between atoms: C_1  and  C_2
REMARK    2  A    between atoms: C_9  and  O_10
REMARK    3  A    between atoms: O_10  and  C_11
REMARK                            x       y       z     vdW  Elec       q    Type
REMARK                         _______ _______ _______ _____ _____    ______ ____
ROOT
ATOM      1  C   LIG A   1      -7.811  -3.303 129.141  0.00  0.00    +0.052 C 
ATOM      2  C   LIG A   1      -7.837  -2.793 127.707  0.00  0.00    +0.178 C 
ATOM      3  O   LIG A   1      -8.038  -1.368 127.755  0.00  0.00    -0.458 OA
ATOM      4  C   LIG A   1      -8.957  -3.445 126.910  0.00  0.00    +0.080 C 
ATOM      5  C   LIG A   1      -8.952  -2.833 125.539  0.00  0.00    -0.026 A 
ATOM      6  C   LIG A   1      -9.334  -3.589 124.422  0.00  0.00    +0.005 A 
ATOM      7  C   LIG A   1      -9.355  -3.007 123.157  0.00  0.00    +0.004 A 
ATOM      8  C   LIG A   1      -8.997  -1.669 123.001  0.00  0.00    +0.046 A 
ATOM      9  C   LIG A   1      -8.607  -0.910 124.109  0.00  0.00    +0.134 A 
ATOM     10  C   LIG A   1      -8.603  -1.475 125.394  0.00  0.00    +0.104 A 
ATOM     11  C   LIG A   1      -8.280  -0.668 126.610  0.00  0.00    +0.343 C 
ATOM     12  O   LIG A   1      -8.243   0.553 126.613  0.00  0.00    -0.245 OA
ENDROOT
BRANCH   9  13
ATOM     13  O   LIG A   1      -8.321   0.408 123.871  0.00  0.00    -0.494 OA
ATOM     14  C   LIG A   1      -9.429   1.061 123.251  0.00  0.00    +0.277 C 
ENDBRANCH   9  13
TORSDOF 1
ENDMDL
MODEL 5
REMARK VINA RESULT:      -5.7      1.563      2.777
REMARK  Name = NuBBE_672
REMARK  3 active torsions:
REMARK  status: ('A' for Active; 'I' for Inactive)
REMARK    1  A    between atoms: C_1  and  C_2
REMARK    2  A    between atoms: C_9  and  O_10
REMARK    3  A    between atoms: O_10  and  C_11
REMARK                            x       y       z     vdW  Elec       q    Type
REMARK                         _______ _______ _______ _____ _____    ______ ____
ROOT
ATOM      1  C   LIG A   1     -11.038   7.957 125.577  0.00  0.00    +0.052 C 
ATOM      2  C   LIG A   1     -10.859   7.707 127.068  0.00  0.00    +0.178 C 
ATOM      3  O   LIG A   1      -9.984   6.573 127.217  0.00  0.00    -0.458 OA
ATOM      4  C   LIG A   1     -12.192   7.422 127.743  0.00  0.00    +0.080 C 
ATOM      5  C   LIG A   1     -11.912   7.119 129.186  0.00  0.00    -0.026 A 
ATOM      6  C   LIG A   1     -12.841   7.462 130.178  0.00  0.00    +0.005 A 
ATOM      7  C   LIG A   1     -12.589   7.152 131.512  0.00  0.00    +0.004 A 
ATOM      8  C   LIG A   1     -11.410   6.496 131.861  0.00  0.00    +0.046 A 
ATOM      9  C   LIG A   1     -10.473   6.156 130.880  0.00  0.00    +0.134 A 
ATOM     10  C   LIG A   1     -10.724   6.442 129.529  0.00  0.00    +0.104 A 
ATOM     11  C   LIG A   1      -9.787   6.012 128.444  0.00  0.00    +0.343 C 
ATOM     12  O   LIG A   1      -8.897   5.194 128.614  0.00  0.00    -0.245 OA
ENDROOT
BRANCH   9  13
ATOM     13  O   LIG A   1      -9.368   5.471 131.306  0.00  0.00    -0.494 OA
ATOM     14  C   LIG A   1      -8.795   6.099 132.453  0.00  0.00    +0.277 C 
ENDBRANCH   9  13
TORSDOF 1
ENDMDL
MODEL 6
REMARK VINA RESULT:      -5.5      6.452      8.304
REMARK  Name = NuBBE_672
REMARK  3 active torsions:
REMARK  status: ('A' for Active; 'I' for Inactive)
REMARK    1  A    between atoms: C_1  and  C_2
REMARK    2  A    between atoms: C_9  and  O_10
REMARK    3  A    between atoms: O_10  and  C_11
REMARK                            x       y       z     vdW  Elec       q    Type
REMARK                         _______ _______ _______ _____ _____    ______ ____
ROOT
ATOM      1  C   LIG A   1     -10.659   1.160 123.617  0.00  0.00    +0.052 C 
ATOM      2  C   LIG A   1      -9.280   1.795 123.721  0.00  0.00    +0.178 C 
ATOM      3  O   LIG A   1      -9.299   2.697 124.843  0.00  0.00    -0.458 OA
ATOM      4  C   LIG A   1      -8.927   2.557 122.453  0.00  0.00    +0.080 C 
ATOM      5  C   LIG A   1      -7.591   3.205 122.671  0.00  0.00    -0.026 A 
ATOM      6  C   LIG A   1      -6.706   3.388 121.599  0.00  0.00    +0.005 A 
ATOM      7  C   LIG A   1      -5.479   4.016 121.803  0.00  0.00    +0.004 A 
ATOM      8  C   LIG A   1      -5.132   4.465 123.076  0.00  0.00    +0.046 A 
ATOM      9  C   LIG A   1      -6.006   4.280 124.152  0.00  0.00    +0.134 A 
ATOM     10  C   LIG A   1      -7.255   3.670 123.958  0.00  0.00    +0.104 A 
ATOM     11  C   LIG A   1      -8.250   3.538 125.067  0.00  0.00    +0.343 C 
ATOM     12  O   LIG A   1      -8.162   4.150 126.121  0.00  0.00    -0.245 OA
ENDROOT
BRANCH   9  13
ATOM     13  O   LIG A   1      -5.605   4.797 125.355  0.00  0.00    -0.494 OA
ATOM     14  C   LIG A   1      -4.554   4.012 125.917  0.00  0.00    +0.277 C 
ENDBRANCH   9  13
TORSDOF 1
ENDMDL
MODEL 7
REMARK VINA RESULT:      -5.4      7.655     10.024
REMARK  Name = NuBBE_672
REMARK  3 active torsions:
REMARK  status: ('A' for Active; 'I' for Inactive)
REMARK    1  A    between atoms: C_1  and  C_2
REMARK    2  A    between atoms: C_9  and  O_10
REMARK    3  A    between atoms: O_10  and  C_11
REMARK                            x       y       z     vdW  Elec       q    Type
REMARK                         _______ _______ _______ _____ _____    ______ ____
ROOT
ATOM      1  C   LIG A   1      -9.410  -3.163 123.409  0.00  0.00    +0.052 C 
ATOM      2  C   LIG A   1      -9.150  -2.592 124.797  0.00  0.00    +0.178 C 
ATOM      3  O   LIG A   1      -8.163  -1.553 124.662  0.00  0.00    -0.458 OA
ATOM      4  C   LIG A   1      -8.642  -3.665 125.747  0.00  0.00    +0.080 C 
ATOM      5  C   LIG A   1      -8.347  -3.003 127.062  0.00  0.00    -0.026 A 
ATOM      6  C   LIG A   1      -8.514  -3.703 128.264  0.00  0.00    +0.005 A 
ATOM      7  C   LIG A   1      -8.211  -3.091 129.479  0.00  0.00    +0.004 A 
ATOM      8  C   LIG A   1      -7.738  -1.781 129.497  0.00  0.00    +0.046 A 
ATOM      9  C   LIG A   1      -7.576  -1.072 128.303  0.00  0.00    +0.134 A 
ATOM     10  C   LIG A   1      -7.855  -1.682 127.070  0.00  0.00    +0.104 A 
ATOM     11  C   LIG A   1      -7.607  -0.985 125.770  0.00  0.00    +0.343 C 
ATOM     12  O   LIG A   1      -6.933   0.030 125.672  0.00  0.00    -0.245 OA
ENDROOT
BRANCH   9  13
ATOM     13  O   LIG A   1      -7.060   0.191 128.412  0.00  0.00    -0.494 OA
ATOM     14  C   LIG A   1      -7.322   0.734 129.706  0.00  0.00    +0.277 C 
ENDBRANCH   9  13
TORSDOF 1
ENDMDL
MODEL 8
REMARK VINA RESULT:      -5.4      1.451      1.895
REMARK  Name = NuBBE_672
REMARK  3 active torsions:
REMARK  status: ('A' for Active; 'I' for Inactive)
REMARK    1  A    between atoms: C_1  and  C_2
REMARK    2  A    between atoms: C_9  and  O_10
REMARK    3  A    between atoms: O_10  and  C_11
REMARK                            x       y       z     vdW  Elec       q    Type
REMARK                         _______ _______ _______ _____ _____    ______ ____
ROOT
ATOM      1  C   LIG A   1     -13.325   7.950 129.316  0.00  0.00    +0.052 C 
ATOM      2  C   LIG A   1     -11.915   7.625 129.790  0.00  0.00    +0.178 C 
ATOM      3  O   LIG A   1     -11.234   6.964 128.707  0.00  0.00    -0.458 OA
ATOM      4  C   LIG A   1     -11.940   6.720 131.012  0.00  0.00    +0.080 C 
ATOM      5  C   LIG A   1     -10.517   6.396 131.363  0.00  0.00    -0.026 A 
ATOM      6  C   LIG A   1     -10.144   6.189 132.698  0.00  0.00    +0.005 A 
ATOM      7  C   LIG A   1      -8.827   5.860 133.015  0.00  0.00    +0.004 A 
ATOM      8  C   LIG A   1      -7.880   5.734 132.001  0.00  0.00    +0.046 A 
ATOM      9  C   LIG A   1      -8.242   5.946 130.666  0.00  0.00    +0.134 A 
ATOM     10  C   LIG A   1      -9.568   6.256 130.330  0.00  0.00    +0.104 A 
ATOM     11  C   LIG A   1     -10.009   6.399 128.907  0.00  0.00    +0.343 C 
ATOM     12  O   LIG A   1      -9.338   6.026 127.958  0.00  0.00    -0.245 OA
ENDROOT
BRANCH   9  13
ATOM     13  O   LIG A   1      -7.259   5.752 129.733  0.00  0.00    -0.494 OA
ATOM     14  C   LIG A   1      -6.357   4.729 130.154  0.00  0.00    +0.277 C 
ENDBRANCH   9  13
TORSDOF 1
ENDMDL
MODEL 9
REMARK VINA RESULT:      -5.3      9.388     10.630
REMARK  Name = NuBBE_672
REMARK  3 active torsions:
REMARK  status: ('A' for Active; 'I' for Inactive)
REMARK    1  A    between atoms: C_1  and  C_2
REMARK    2  A    between atoms: C_9  and  O_10
REMARK    3  A    between atoms: O_10  and  C_11
REMARK                            x       y       z     vdW  Elec       q    Type
REMARK                         _______ _______ _______ _____ _____    ______ ____
ROOT
ATOM      1  C   LIG A   1      -8.655  -4.009 128.068  0.00  0.00    +0.052 C 
ATOM      2  C   LIG A   1      -8.690  -2.895 127.032  0.00  0.00    +0.178 C 
ATOM      3  O   LIG A   1      -9.226  -3.449 125.816  0.00  0.00    -0.458 OA
ATOM      4  C   LIG A   1      -7.298  -2.338 126.775  0.00  0.00    +0.080 C 
ATOM      5  C   LIG A   1      -7.418  -1.302 125.695  0.00  0.00    -0.026 A 
ATOM      6  C   LIG A   1      -6.566  -0.189 125.680  0.00  0.00    +0.005 A 
ATOM      7  C   LIG A   1      -6.663   0.753 124.659  0.00  0.00    +0.004 A 
ATOM      8  C   LIG A   1      -7.609   0.588 123.649  0.00  0.00    +0.046 A 
ATOM      9  C   LIG A   1      -8.468  -0.515 123.660  0.00  0.00    +0.134 A 
ATOM     10  C   LIG A   1      -8.368  -1.485 124.669  0.00  0.00    +0.104 A 
ATOM     11  C   LIG A   1      -9.208  -2.722 124.662  0.00  0.00    +0.343 C 
ATOM     12  O   LIG A   1      -9.842  -3.095 123.686  0.00  0.00    -0.245 OA
ENDROOT
BRANCH   9  13
ATOM     13  O   LIG A   1      -9.331  -0.623 122.603  0.00  0.00    -0.494 OA
ATOM     14  C   LIG A   1     -10.180   0.523 122.525  0.00  0.00    +0.277 C 
ENDBRANCH   9  13
TORSDOF 1
ENDMDL
