MODEL 1
REMARK VINA RESULT:      -7.2      0.000      0.000
REMARK  Name = NuBBE_1964
REMARK  5 active torsions:
REMARK  status: ('A' for Active; 'I' for Inactive)
REMARK    1  A    between atoms: C_1  and  O_2
REMARK    2  A    between atoms: C_1  and  C_3
REMARK    3  A    between atoms: C_9  and  C_16
REMARK    4  A    between atoms: N_14  and  C_15
REMARK    5  A    between atoms: C_16  and  C_17
REMARK                            x       y       z     vdW  Elec       q    Type
REMARK                         _______ _______ _______ _____ _____    ______ ____
ROOT
ATOM      1  C   LIG A   1      -6.957   1.137 125.396  0.00  0.00    +0.065 C 
ATOM      2  C   LIG A   1      -7.257   0.095 126.508  0.00  0.00    +0.027 A 
ATOM      3  C   LIG A   1      -7.733  -1.202 126.276  0.00  0.00    -0.001 A 
ATOM      4  C   LIG A   1      -7.962  -1.541 124.834  0.00  0.00    +0.092 C 
ATOM      5  C   LIG A   1      -6.733  -0.995 124.026  0.00  0.00    +0.014 C 
ATOM      6  C   LIG A   1      -7.112   0.496 123.891  0.00  0.00    +0.006 C 
ATOM      7  C   LIG A   1      -8.545   0.568 123.202  0.00  0.00    +0.020 C 
ATOM      8  C   LIG A   1      -9.324  -0.811 122.985  0.00  0.00    +0.085 C 
ATOM      9  N   LIG A   1      -9.192  -1.817 124.086  0.00  0.00    -0.298 NA
ATOM     10  C   LIG A   1      -9.305  -3.193 123.650  0.00  0.00    +0.105 C 
ATOM     11  C   LIG A   1      -7.872  -1.852 127.518  0.00  0.00    +0.005 A 
ATOM     12  C   LIG A   1      -7.469  -0.928 128.495  0.00  0.00    +0.047 A 
ATOM     13  N   LIG A   1      -7.116   0.246 127.854  0.00  0.00    -0.357 N 
ATOM     14  H   LIG A   1      -6.826   1.100 128.320  0.00  0.00    +0.166 HD
ATOM     15  C   LIG A   1      -7.476  -1.235 129.860  0.00  0.00    +0.026 A 
ATOM     16  C   LIG A   1      -7.905  -2.512 130.239  0.00  0.00    +0.002 A 
ATOM     17  C   LIG A   1      -8.315  -3.444 129.288  0.00  0.00    +0.001 A 
ATOM     18  C   LIG A   1      -8.304  -3.128 127.925  0.00  0.00    +0.010 A 
ENDROOT
BRANCH   5  19
ATOM     19  C   LIG A   1      -6.327  -1.757 122.754  0.00  0.00    +0.002 C 
ATOM     20  C   LIG A   1      -5.319  -2.867 123.028  0.00  0.00    +0.004 C 
ENDBRANCH   5  19
BRANCH   1  21
ATOM     21  C   LIG A   1      -7.752   2.432 125.602  0.00  0.00    +0.165 C 
BRANCH  21  22
ATOM     22  O   LIG A   1      -8.913   2.198 126.405  0.00  0.00    -0.394 OA
ATOM     23  H   LIG A   1      -9.217   3.060 126.735  0.00  0.00    +0.209 HD
ENDBRANCH  21  22
ENDBRANCH   1  21
TORSDOF 3
ENDMDL
MODEL 2
REMARK VINA RESULT:      -7.0      2.081      4.654
REMARK  Name = NuBBE_1964
REMARK  5 active torsions:
REMARK  status: ('A' for Active; 'I' for Inactive)
REMARK    1  A    between atoms: C_1  and  O_2
REMARK    2  A    between atoms: C_1  and  C_3
REMARK    3  A    between atoms: C_9  and  C_16
REMARK    4  A    between atoms: N_14  and  C_15
REMARK    5  A    between atoms: C_16  and  C_17
REMARK                            x       y       z     vdW  Elec       q    Type
REMARK                         _______ _______ _______ _____ _____    ______ ____
ROOT
ATOM      1  C   LIG A   1      -8.252  -0.995 122.819  0.00  0.00    +0.065 C 
ATOM      2  C   LIG A   1      -7.492   0.162 123.522  0.00  0.00    +0.027 A 
ATOM      3  C   LIG A   1      -6.715   0.017 124.679  0.00  0.00    -0.001 A 
ATOM      4  C   LIG A   1      -6.666  -1.374 125.235  0.00  0.00    +0.092 C 
ATOM      5  C   LIG A   1      -6.470  -2.354 124.024  0.00  0.00    +0.014 C 
ATOM      6  C   LIG A   1      -7.917  -2.455 123.495  0.00  0.00    +0.006 C 
ATOM      7  C   LIG A   1      -8.837  -2.939 124.700  0.00  0.00    +0.020 C 
ATOM      8  C   LIG A   1      -8.164  -3.025 126.147  0.00  0.00    +0.085 C 
ATOM      9  N   LIG A   1      -7.190  -1.940 126.482  0.00  0.00    -0.298 NA
ATOM     10  C   LIG A   1      -6.155  -2.336 127.414  0.00  0.00    +0.105 C 
ATOM     11  C   LIG A   1      -6.176   1.275 125.012  0.00  0.00    +0.005 A 
ATOM     12  C   LIG A   1      -6.639   2.173 124.037  0.00  0.00    +0.047 A 
ATOM     13  N   LIG A   1      -7.444   1.473 123.156  0.00  0.00    -0.357 N 
ATOM     14  H   LIG A   1      -7.948   1.882 122.376  0.00  0.00    +0.166 HD
ATOM     15  C   LIG A   1      -6.298   3.531 124.051  0.00  0.00    +0.026 A 
ATOM     16  C   LIG A   1      -5.469   3.984 125.083  0.00  0.00    +0.002 A 
ATOM     17  C   LIG A   1      -5.003   3.112 126.065  0.00  0.00    +0.001 A 
ATOM     18  C   LIG A   1      -5.349   1.757 126.042  0.00  0.00    +0.010 A 
ENDROOT
BRANCH   5  19
ATOM     19  C   LIG A   1      -5.702  -3.658 124.287  0.00  0.00    +0.002 C 
ATOM     20  C   LIG A   1      -4.397  -3.743 123.503  0.00  0.00    +0.004 C 
ENDBRANCH   5  19
BRANCH   1  21
ATOM     21  C   LIG A   1      -9.752  -0.700 122.697  0.00  0.00    +0.165 C 
BRANCH  21  22
ATOM     22  O   LIG A   1     -10.151   0.312 123.628  0.00  0.00    -0.394 OA
ATOM     23  H   LIG A   1      -9.346   0.644 124.059  0.00  0.00    +0.209 HD
ENDBRANCH  21  22
ENDBRANCH   1  21
TORSDOF 3
ENDMDL
MODEL 3
REMARK VINA RESULT:      -7.0      1.198      1.516
REMARK  Name = NuBBE_1964
REMARK  5 active torsions:
REMARK  status: ('A' for Active; 'I' for Inactive)
REMARK    1  A    between atoms: C_1  and  O_2
REMARK    2  A    between atoms: C_1  and  C_3
REMARK    3  A    between atoms: C_9  and  C_16
REMARK    4  A    between atoms: N_14  and  C_15
REMARK    5  A    between atoms: C_16  and  C_17
REMARK                            x       y       z     vdW  Elec       q    Type
REMARK                         _______ _______ _______ _____ _____    ______ ____
ROOT
ATOM      1  C   LIG A   1      -8.130   1.066 124.387  0.00  0.00    +0.065 C 
ATOM      2  C   LIG A   1      -8.032   0.562 125.853  0.00  0.00    +0.027 A 
ATOM      3  C   LIG A   1      -7.887  -0.780 126.226  0.00  0.00    -0.001 A 
ATOM      4  C   LIG A   1      -7.843  -1.750 125.085  0.00  0.00    +0.092 C 
ATOM      5  C   LIG A   1      -6.912  -1.132 123.982  0.00  0.00    +0.014 C 
ATOM      6  C   LIG A   1      -7.884  -0.143 123.301  0.00  0.00    +0.006 C 
ATOM      7  C   LIG A   1      -9.154  -0.973 122.821  0.00  0.00    +0.020 C 
ATOM      8  C   LIG A   1      -9.247  -2.502 123.277  0.00  0.00    +0.085 C 
ATOM      9  N   LIG A   1      -8.777  -2.800 124.666  0.00  0.00    -0.298 NA
ATOM     10  C   LIG A   1      -8.255  -4.139 124.843  0.00  0.00    +0.105 C 
ATOM     11  C   LIG A   1      -7.823  -0.845 127.631  0.00  0.00    +0.005 A 
ATOM     12  C   LIG A   1      -7.929   0.476 128.093  0.00  0.00    +0.047 A 
ATOM     13  N   LIG A   1      -8.069   1.305 126.994  0.00  0.00    -0.357 N 
ATOM     14  H   LIG A   1      -8.208   2.309 127.036  0.00  0.00    +0.166 HD
ATOM     15  C   LIG A   1      -7.902   0.795 129.456  0.00  0.00    +0.026 A 
ATOM     16  C   LIG A   1      -7.767  -0.257 130.369  0.00  0.00    +0.002 A 
ATOM     17  C   LIG A   1      -7.666  -1.577 129.934  0.00  0.00    +0.001 A 
ATOM     18  C   LIG A   1      -7.694  -1.886 128.570  0.00  0.00    +0.010 A 
ENDROOT
BRANCH   5  19
ATOM     19  C   LIG A   1      -6.128  -2.106 123.090  0.00  0.00    +0.002 C 
ATOM     20  C   LIG A   1      -5.011  -2.823 123.840  0.00  0.00    +0.004 C 
ENDBRANCH   5  19
BRANCH   1  21
ATOM     21  C   LIG A   1      -9.417   1.863 124.143  0.00  0.00    +0.165 C 
BRANCH  21  22
ATOM     22  O   LIG A   1      -9.385   3.111 124.843  0.00  0.00    -0.394 OA
ATOM     23  H   LIG A   1      -9.278   2.912 125.788  0.00  0.00    +0.209 HD
ENDBRANCH  21  22
ENDBRANCH   1  21
TORSDOF 3
ENDMDL
MODEL 4
REMARK VINA RESULT:      -6.6      6.332      9.049
REMARK  Name = NuBBE_1964
REMARK  5 active torsions:
REMARK  status: ('A' for Active; 'I' for Inactive)
REMARK    1  A    between atoms: C_1  and  O_2
REMARK    2  A    between atoms: C_1  and  C_3
REMARK    3  A    between atoms: C_9  and  C_16
REMARK    4  A    between atoms: N_14  and  C_15
REMARK    5  A    between atoms: C_16  and  C_17
REMARK                            x       y       z     vdW  Elec       q    Type
REMARK                         _______ _______ _______ _____ _____    ______ ____
ROOT
ATOM      1  C   LIG A   1      -9.133   3.809 133.160  0.00  0.00    +0.065 C 
ATOM      2  C   LIG A   1      -9.925   4.809 132.273  0.00  0.00    +0.027 A 
ATOM      3  C   LIG A   1      -9.745   4.965 130.893  0.00  0.00    -0.001 A 
ATOM      4  C   LIG A   1      -8.691   4.085 130.292  0.00  0.00    +0.092 C 
ATOM      5  C   LIG A   1      -8.870   2.653 130.908  0.00  0.00    +0.014 C 
ATOM      6  C   LIG A   1      -8.160   2.831 132.268  0.00  0.00    +0.006 C 
ATOM      7  C   LIG A   1      -6.678   3.332 131.975  0.00  0.00    +0.020 C 
ATOM      8  C   LIG A   1      -6.317   3.708 130.463  0.00  0.00    +0.085 C 
ATOM      9  N   LIG A   1      -7.393   4.401 129.687  0.00  0.00    -0.298 NA
ATOM     10  C   LIG A   1      -7.347   4.156 128.260  0.00  0.00    +0.105 C 
ATOM     11  C   LIG A   1     -10.643   5.949 130.437  0.00  0.00    +0.005 A 
ATOM     12  C   LIG A   1     -11.364   6.378 131.562  0.00  0.00    +0.047 A 
ATOM     13  N   LIG A   1     -10.898   5.679 132.662  0.00  0.00    -0.357 N 
ATOM     14  H   LIG A   1     -11.212   5.819 133.617  0.00  0.00    +0.166 HD
ATOM     15  C   LIG A   1     -12.357   7.361 131.482  0.00  0.00    +0.026 A 
ATOM     16  C   LIG A   1     -12.619   7.923 130.227  0.00  0.00    +0.002 A 
ATOM     17  C   LIG A   1     -11.911   7.518 129.097  0.00  0.00    +0.001 A 
ATOM     18  C   LIG A   1     -10.922   6.533 129.187  0.00  0.00    +0.010 A 
ENDROOT
BRANCH   5  19
ATOM     19  C   LIG A   1      -8.474   1.452 130.035  0.00  0.00    +0.002 C 
ATOM     20  C   LIG A   1      -8.352   0.159 130.832  0.00  0.00    +0.004 C 
ENDBRANCH   5  19
BRANCH   1  21
ATOM     21  C   LIG A   1      -8.410   4.519 134.311  0.00  0.00    +0.165 C 
BRANCH  21  22
ATOM     22  O   LIG A   1      -8.600   5.935 134.238  0.00  0.00    -0.394 OA
ATOM     23  H   LIG A   1      -7.722   6.350 134.288  0.00  0.00    +0.209 HD
ENDBRANCH  21  22
ENDBRANCH   1  21
TORSDOF 3
ENDMDL
MODEL 5
REMARK VINA RESULT:      -6.6      8.159     10.084
REMARK  Name = NuBBE_1964
REMARK  5 active torsions:
REMARK  status: ('A' for Active; 'I' for Inactive)
REMARK    1  A    between atoms: C_1  and  O_2
REMARK    2  A    between atoms: C_1  and  C_3
REMARK    3  A    between atoms: C_9  and  C_16
REMARK    4  A    between atoms: N_14  and  C_15
REMARK    5  A    between atoms: C_16  and  C_17
REMARK                            x       y       z     vdW  Elec       q    Type
REMARK                         _______ _______ _______ _____ _____    ______ ____
ROOT
ATOM      1  C   LIG A   1      -6.599   6.719 131.701  0.00  0.00    +0.065 C 
ATOM      2  C   LIG A   1      -8.013   6.741 131.058  0.00  0.00    +0.027 A 
ATOM      3  C   LIG A   1      -9.018   5.799 131.312  0.00  0.00    -0.001 A 
ATOM      4  C   LIG A   1      -8.635   4.711 132.269  0.00  0.00    +0.092 C 
ATOM      5  C   LIG A   1      -7.866   5.386 133.460  0.00  0.00    +0.014 C 
ATOM      6  C   LIG A   1      -6.459   5.547 132.844  0.00  0.00    +0.006 C 
ATOM      7  C   LIG A   1      -5.975   4.107 132.370  0.00  0.00    +0.020 C 
ATOM      8  C   LIG A   1      -7.038   2.915 132.442  0.00  0.00    +0.085 C 
ATOM      9  N   LIG A   1      -8.445   3.270 132.075  0.00  0.00    -0.298 NA
ATOM     10  C   LIG A   1      -9.452   2.463 132.732  0.00  0.00    +0.105 C 
ATOM     11  C   LIG A   1     -10.156   6.152 130.562  0.00  0.00    +0.005 A 
ATOM     12  C   LIG A   1      -9.819   7.319 129.858  0.00  0.00    +0.047 A 
ATOM     13  N   LIG A   1      -8.510   7.643 130.168  0.00  0.00    -0.357 N 
ATOM     14  H   LIG A   1      -7.992   8.419 129.768  0.00  0.00    +0.166 HD
ATOM     15  C   LIG A   1     -10.722   7.960 129.001  0.00  0.00    +0.026 A 
ATOM     16  C   LIG A   1     -11.995   7.398 128.856  0.00  0.00    +0.002 A 
ATOM     17  C   LIG A   1     -12.349   6.236 129.539  0.00  0.00    +0.001 A 
ATOM     18  C   LIG A   1     -11.441   5.603 130.393  0.00  0.00    +0.010 A 
ENDROOT
BRANCH   5  19
ATOM     19  C   LIG A   1      -7.981   4.725 134.842  0.00  0.00    +0.002 C 
ATOM     20  C   LIG A   1      -7.607   5.667 135.980  0.00  0.00    +0.004 C 
ENDBRANCH   5  19
BRANCH   1  21
ATOM     21  C   LIG A   1      -5.492   6.683 130.640  0.00  0.00    +0.165 C 
BRANCH  21  22
ATOM     22  O   LIG A   1      -5.371   7.950 129.985  0.00  0.00    -0.394 OA
ATOM     23  H   LIG A   1      -4.740   8.483 130.497  0.00  0.00    +0.209 HD
ENDBRANCH  21  22
ENDBRANCH   1  21
TORSDOF 3
ENDMDL
MODEL 6
REMARK VINA RESULT:      -6.5      2.236      2.447
REMARK  Name = NuBBE_1964
REMARK  5 active torsions:
REMARK  status: ('A' for Active; 'I' for Inactive)
REMARK    1  A    between atoms: C_1  and  O_2
REMARK    2  A    between atoms: C_1  and  C_3
REMARK    3  A    between atoms: C_9  and  C_16
REMARK    4  A    between atoms: N_14  and  C_15
REMARK    5  A    between atoms: C_16  and  C_17
REMARK                            x       y       z     vdW  Elec       q    Type
REMARK                         _______ _______ _______ _____ _____    ______ ____
ROOT
ATOM      1  C   LIG A   1      -5.222   0.038 126.169  0.00  0.00    +0.065 C 
ATOM      2  C   LIG A   1      -5.375  -0.926 127.378  0.00  0.00    +0.027 A 
ATOM      3  C   LIG A   1      -6.346  -1.930 127.478  0.00  0.00    -0.001 A 
ATOM      4  C   LIG A   1      -7.281  -2.021 126.311  0.00  0.00    +0.092 C 
ATOM      5  C   LIG A   1      -6.415  -1.887 125.008  0.00  0.00    +0.014 C 
ATOM      6  C   LIG A   1      -6.235  -0.355 124.936  0.00  0.00    +0.006 C 
ATOM      7  C   LIG A   1      -7.685   0.301 124.934  0.00  0.00    +0.020 C 
ATOM      8  C   LIG A   1      -8.929  -0.671 125.186  0.00  0.00    +0.085 C 
ATOM      9  N   LIG A   1      -8.718  -1.756 126.195  0.00  0.00    -0.298 NA
ATOM     10  C   LIG A   1      -9.507  -2.948 125.960  0.00  0.00    +0.105 C 
ATOM     11  C   LIG A   1      -6.165  -2.601 128.703  0.00  0.00    +0.005 A 
ATOM     12  C   LIG A   1      -5.072  -1.985 129.333  0.00  0.00    +0.047 A 
ATOM     13  N   LIG A   1      -4.623  -0.966 128.513  0.00  0.00    -0.357 N 
ATOM     14  H   LIG A   1      -3.868  -0.326 128.739  0.00  0.00    +0.166 HD
ATOM     15  C   LIG A   1      -4.602  -2.399 130.585  0.00  0.00    +0.026 A 
ATOM     16  C   LIG A   1      -5.264  -3.462 131.211  0.00  0.00    +0.002 A 
ATOM     17  C   LIG A   1      -6.356  -4.083 130.609  0.00  0.00    +0.001 A 
ATOM     18  C   LIG A   1      -6.817  -3.663 129.357  0.00  0.00    +0.010 A 
ENDROOT
BRANCH   5  19
ATOM     19  C   LIG A   1      -6.911  -2.618 123.751  0.00  0.00    +0.002 C 
ATOM     20  C   LIG A   1      -6.320  -2.049 122.466  0.00  0.00    +0.004 C 
ENDBRANCH   5  19
BRANCH   1  21
ATOM     21  C   LIG A   1      -5.310   1.507 126.597  0.00  0.00    +0.165 C 
BRANCH  21  22
ATOM     22  O   LIG A   1      -4.175   1.878 127.388  0.00  0.00    -0.394 OA
ATOM     23  H   LIG A   1      -3.678   1.066 127.582  0.00  0.00    +0.209 HD
ENDBRANCH  21  22
ENDBRANCH   1  21
TORSDOF 3
ENDMDL
MODEL 7
REMARK VINA RESULT:      -6.4      3.129      4.673
REMARK  Name = NuBBE_1964
REMARK  5 active torsions:
REMARK  status: ('A' for Active; 'I' for Inactive)
REMARK    1  A    between atoms: C_1  and  O_2
REMARK    2  A    between atoms: C_1  and  C_3
REMARK    3  A    between atoms: C_9  and  C_16
REMARK    4  A    between atoms: N_14  and  C_15
REMARK    5  A    between atoms: C_16  and  C_17
REMARK                            x       y       z     vdW  Elec       q    Type
REMARK                         _______ _______ _______ _____ _____    ______ ____
ROOT
ATOM      1  C   LIG A   1      -4.956   2.199 126.507  0.00  0.00    +0.065 C 
ATOM      2  C   LIG A   1      -5.427   0.877 125.841  0.00  0.00    +0.027 A 
ATOM      3  C   LIG A   1      -6.368   0.799 124.806  0.00  0.00    -0.001 A 
ATOM      4  C   LIG A   1      -6.931   2.116 124.364  0.00  0.00    +0.092 C 
ATOM      5  C   LIG A   1      -5.734   3.126 124.268  0.00  0.00    +0.014 C 
ATOM      6  C   LIG A   1      -5.569   3.524 125.752  0.00  0.00    +0.006 C 
ATOM      7  C   LIG A   1      -6.971   4.080 126.259  0.00  0.00    +0.020 C 
ATOM      8  C   LIG A   1      -8.217   3.942 125.267  0.00  0.00    +0.085 C 
ATOM      9  N   LIG A   1      -8.281   2.678 124.468  0.00  0.00    -0.298 NA
ATOM     10  C   LIG A   1      -8.948   2.816 123.191  0.00  0.00    +0.105 C 
ATOM     11  C   LIG A   1      -6.530  -0.556 124.456  0.00  0.00    +0.005 A 
ATOM     12  C   LIG A   1      -5.672  -1.285 125.294  0.00  0.00    +0.047 A 
ATOM     13  N   LIG A   1      -5.028  -0.391 126.131  0.00  0.00    -0.357 N 
ATOM     14  H   LIG A   1      -4.380  -0.647 126.870  0.00  0.00    +0.166 HD
ATOM     15  C   LIG A   1      -5.569  -2.680 125.225  0.00  0.00    +0.026 A 
ATOM     16  C   LIG A   1      -6.361  -3.346 124.283  0.00  0.00    +0.002 A 
ATOM     17  C   LIG A   1      -7.225  -2.643 123.446  0.00  0.00    +0.001 A 
ATOM     18  C   LIG A   1      -7.320  -1.250 123.521  0.00  0.00    +0.010 A 
ENDROOT
BRANCH   5  19
ATOM     19  C   LIG A   1      -5.838   4.250 123.225  0.00  0.00    +0.002 C 
ATOM     20  C   LIG A   1      -5.649   3.748 121.798  0.00  0.00    +0.004 C 
ENDBRANCH   5  19
BRANCH   1  21
ATOM     21  C   LIG A   1      -5.189   2.188 128.022  0.00  0.00    +0.165 C 
BRANCH  21  22
ATOM     22  O   LIG A   1      -4.332   1.238 128.665  0.00  0.00    -0.394 OA
ATOM     23  H   LIG A   1      -4.445   1.347 129.624  0.00  0.00    +0.209 HD
ENDBRANCH  21  22
ENDBRANCH   1  21
TORSDOF 3
ENDMDL
MODEL 8
REMARK VINA RESULT:      -6.3      7.071      9.471
REMARK  Name = NuBBE_1964
REMARK  5 active torsions:
REMARK  status: ('A' for Active; 'I' for Inactive)
REMARK    1  A    between atoms: C_1  and  O_2
REMARK    2  A    between atoms: C_1  and  C_3
REMARK    3  A    between atoms: C_9  and  C_16
REMARK    4  A    between atoms: N_14  and  C_15
REMARK    5  A    between atoms: C_16  and  C_17
REMARK                            x       y       z     vdW  Elec       q    Type
REMARK                         _______ _______ _______ _____ _____    ______ ____
ROOT
ATOM      1  C   LIG A   1      -8.860   3.240 131.854  0.00  0.00    +0.065 C 
ATOM      2  C   LIG A   1      -9.590   4.424 131.163  0.00  0.00    +0.027 A 
ATOM      3  C   LIG A   1      -8.952   5.555 130.639  0.00  0.00    -0.001 A 
ATOM      4  C   LIG A   1      -7.462   5.571 130.801  0.00  0.00    +0.092 C 
ATOM      5  C   LIG A   1      -6.939   4.134 130.445  0.00  0.00    +0.014 C 
ATOM      6  C   LIG A   1      -7.226   3.385 131.765  0.00  0.00    +0.006 C 
ATOM      7  C   LIG A   1      -6.490   4.174 132.935  0.00  0.00    +0.020 C 
ATOM      8  C   LIG A   1      -5.821   5.578 132.564  0.00  0.00    +0.085 C 
ATOM      9  N   LIG A   1      -6.581   6.430 131.597  0.00  0.00    -0.298 NA
ATOM     10  C   LIG A   1      -5.750   7.304 130.796  0.00  0.00    +0.105 C 
ATOM     11  C   LIG A   1      -9.933   6.401 130.085  0.00  0.00    +0.005 A 
ATOM     12  C   LIG A   1     -11.165   5.758 130.282  0.00  0.00    +0.047 A 
ATOM     13  N   LIG A   1     -10.927   4.570 130.949  0.00  0.00    -0.357 N 
ATOM     14  H   LIG A   1     -11.644   3.922 131.260  0.00  0.00    +0.166 HD
ATOM     15  C   LIG A   1     -12.375   6.316 129.851  0.00  0.00    +0.026 A 
ATOM     16  C   LIG A   1     -12.328   7.558 129.208  0.00  0.00    +0.002 A 
ATOM     17  C   LIG A   1     -11.117   8.217 129.008  0.00  0.00    +0.001 A 
ATOM     18  C   LIG A   1      -9.913   7.652 129.441  0.00  0.00    +0.010 A 
ENDROOT
BRANCH   5  19
ATOM     19  C   LIG A   1      -5.531   4.023 129.840  0.00  0.00    +0.002 C 
ATOM     20  C   LIG A   1      -4.950   2.619 129.953  0.00  0.00    +0.004 C 
ENDBRANCH   5  19
BRANCH   1  21
ATOM     21  C   LIG A   1      -9.383   3.001 133.276  0.00  0.00    +0.165 C 
BRANCH  21  22
ATOM     22  O   LIG A   1      -9.954   4.196 133.818  0.00  0.00    -0.394 OA
ATOM     23  H   LIG A   1     -10.803   3.954 134.224  0.00  0.00    +0.209 HD
ENDBRANCH  21  22
ENDBRANCH   1  21
TORSDOF 3
ENDMDL
MODEL 9
REMARK VINA RESULT:      -6.1      1.697      5.291
REMARK  Name = NuBBE_1964
REMARK  5 active torsions:
REMARK  status: ('A' for Active; 'I' for Inactive)
REMARK    1  A    between atoms: C_1  and  O_2
REMARK    2  A    between atoms: C_1  and  C_3
REMARK    3  A    between atoms: C_9  and  C_16
REMARK    4  A    between atoms: N_14  and  C_15
REMARK    5  A    between atoms: C_16  and  C_17
REMARK                            x       y       z     vdW  Elec       q    Type
REMARK                         _______ _______ _______ _____ _____    ______ ____
ROOT
ATOM      1  C   LIG A   1      -8.062   0.993 127.216  0.00  0.00    +0.065 C 
ATOM      2  C   LIG A   1      -7.423   0.089 126.127  0.00  0.00    +0.027 A 
ATOM      3  C   LIG A   1      -6.573  -0.993 126.388  0.00  0.00    -0.001 A 
ATOM      4  C   LIG A   1      -6.288  -1.235 127.840  0.00  0.00    +0.092 C 
ATOM      5  C   LIG A   1      -7.648  -1.095 128.611  0.00  0.00    +0.014 C 
ATOM      6  C   LIG A   1      -7.756   0.441 128.734  0.00  0.00    +0.006 C 
ATOM      7  C   LIG A   1      -6.436   0.960 129.456  0.00  0.00    +0.020 C 
ATOM      8  C   LIG A   1      -5.272  -0.106 129.710  0.00  0.00    +0.085 C 
ATOM      9  N   LIG A   1      -5.054  -1.109 128.621  0.00  0.00    -0.298 NA
ATOM     10  C   LIG A   1      -4.530  -2.379 129.079  0.00  0.00    +0.105 C 
ATOM     11  C   LIG A   1      -6.205  -1.575 125.160  0.00  0.00    +0.005 A 
ATOM     12  C   LIG A   1      -6.849  -0.828 124.160  0.00  0.00    +0.047 A 
ATOM     13  N   LIG A   1      -7.568   0.181 124.776  0.00  0.00    -0.357 N 
ATOM     14  H   LIG A   1      -8.097   0.899 124.291  0.00  0.00    +0.166 HD
ATOM     15  C   LIG A   1      -6.710  -1.126 122.800  0.00  0.00    +0.026 A 
ATOM     16  C   LIG A   1      -5.895  -2.208 122.449  0.00  0.00    +0.002 A 
ATOM     17  C   LIG A   1      -5.240  -2.960 123.423  0.00  0.00    +0.001 A 
ATOM     18  C   LIG A   1      -5.386  -2.654 124.780  0.00  0.00    +0.010 A 
ENDROOT
BRANCH   5  19
ATOM     19  C   LIG A   1      -7.830  -1.938 129.883  0.00  0.00    +0.002 C 
ATOM     20  C   LIG A   1      -8.048  -3.416 129.585  0.00  0.00    +0.004 C 
ENDBRANCH   5  19
BRANCH   1  21
ATOM     21  C   LIG A   1      -7.706   2.470 127.012  0.00  0.00    +0.165 C 
BRANCH  21  22
ATOM     22  O   LIG A   1      -6.506   2.604 126.243  0.00  0.00    -0.394 OA
ATOM     23  H   LIG A   1      -5.757   2.477 126.848  0.00  0.00    +0.209 HD
ENDBRANCH  21  22
ENDBRANCH   1  21
TORSDOF 3
ENDMDL
