MODEL 1
REMARK VINA RESULT:      -7.8      0.000      0.000
REMARK  Name = NuBBE_367
REMARK  15 active torsions:
REMARK  status: ('A' for Active; 'I' for Inactive)
REMARK    1  A    between atoms: O_1  and  C_2
REMARK    2  A    between atoms: C_8  and  O_40
REMARK    3  A    between atoms: C_9  and  C_10
REMARK    4  A    between atoms: C_13  and  C_36
REMARK    5  A    between atoms: C_15  and  O_35
REMARK    6  A    between atoms: C_17  and  O_34
REMARK    7  A    between atoms: C_19  and  O_21
REMARK    8  A    between atoms: O_21  and  C_22
REMARK    9  A    between atoms: C_22  and  C_23
REMARK   10  A    between atoms: C_24  and  C_25
REMARK   11  A    between atoms: C_27  and  O_28
REMARK   12  A    between atoms: C_29  and  O_32
REMARK   13  A    between atoms: C_36  and  O_37
REMARK   14  A    between atoms: C_38  and  O_39
REMARK   15  A    between atoms: C_46  and  O_47
REMARK                            x       y       z     vdW  Elec       q    Type
REMARK                         _______ _______ _______ _____ _____    ______ ____
ROOT
ATOM      1  C   LIG A   1      -7.177   0.725 125.206  0.00  0.00    +0.199 C 
ATOM      2  O   LIG A   1      -7.865   1.796 124.536  0.00  0.00    -0.360 OA
ATOM      3  C   LIG A   1      -8.277   1.422 123.211  0.00  0.00    +0.175 C 
ATOM      4  C   LIG A   1      -9.362   0.350 123.323  0.00  0.00    +0.177 C 
ATOM      5  C   LIG A   1      -8.715  -0.912 123.907  0.00  0.00    +0.189 C 
ATOM      6  C   LIG A   1      -7.971  -0.610 125.219  0.00  0.00    +0.241 C 
ENDROOT
BRANCH   1  14
ATOM      7  C   LIG A   1      -7.430   3.562 133.633  0.00  0.00    +0.162 A 
ATOM      8  C   LIG A   1      -6.483   3.109 132.712  0.00  0.00    +0.096 A 
ATOM      9  C   LIG A   1      -6.884   2.800 131.410  0.00  0.00    +0.143 A 
ATOM     10  O   LIG A   1      -5.904   2.366 130.550  0.00  0.00    -0.454 OA
ATOM     11  C   LIG A   1      -6.268   2.009 129.273  0.00  0.00    +0.146 A 
ATOM     12  C   LIG A   1      -5.245   1.556 128.440  0.00  0.00    +0.093 A 
ATOM     13  C   LIG A   1      -5.536   1.154 127.133  0.00  0.00    +0.130 A 
ATOM     14  C   LIG A   1      -6.847   1.179 126.626  0.00  0.00    +0.068 A 
ATOM     15  C   LIG A   1      -7.858   1.674 127.469  0.00  0.00    +0.141 A 
ATOM     16  C   LIG A   1      -7.569   2.080 128.783  0.00  0.00    +0.106 A 
ATOM     17  C   LIG A   1      -8.614   2.593 129.678  0.00  0.00    +0.204 A 
ATOM     18  O   LIG A   1      -9.771   2.713 129.285  0.00  0.00    -0.286 OA
ATOM     19  C   LIG A   1      -8.222   2.944 131.048  0.00  0.00    +0.068 A 
ATOM     20  C   LIG A   1      -9.174   3.402 131.963  0.00  0.00    +0.064 A 
ATOM     21  C   LIG A   1      -8.769   3.711 133.259  0.00  0.00    +0.159 A 
BRANCH   7  22
ATOM     22  O   LIG A   1      -7.061   3.864 134.913  0.00  0.00    -0.503 OA
ATOM     23  H   LIG A   1      -7.018   4.827 135.023  0.00  0.00    +0.292 HD
ENDBRANCH   7  22
BRANCH  15  24
ATOM     24  O   LIG A   1      -9.133   1.756 126.968  0.00  0.00    -0.505 OA
ATOM     25  H   LIG A   1      -9.106   1.573 126.001  0.00  0.00    +0.292 HD
ENDBRANCH  15  24
BRANCH  13  26
ATOM     26  O   LIG A   1      -4.514   0.743 126.320  0.00  0.00    -0.506 OA
ATOM     27  H   LIG A   1      -4.648  -0.187 126.071  0.00  0.00    +0.292 HD
ENDBRANCH  13  26
BRANCH  21  28
ATOM     28  O   LIG A   1      -9.675   4.160 134.177  0.00  0.00    -0.503 OA
ATOM     29  H   LIG A   1     -10.283   3.442 134.413  0.00  0.00    +0.292 HD
ENDBRANCH  21  28
ENDBRANCH   1  14
BRANCH   5  30
ATOM     30  O   LIG A   1      -9.749  -1.890 124.142  0.00  0.00    -0.385 OA
ATOM     31  H   LIG A   1     -10.588  -1.410 123.996  0.00  0.00    +0.210 HD
ENDBRANCH   5  30
BRANCH   4  32
ATOM     32  O   LIG A   1      -9.949   0.003 122.066  0.00  0.00    -0.387 OA
ATOM     33  H   LIG A   1     -10.232   0.827 121.631  0.00  0.00    +0.210 HD
ENDBRANCH   4  32
BRANCH   6  34
ATOM     34  O   LIG A   1      -7.124  -1.713 125.634  0.00  0.00    -0.453 OA
BRANCH  34  35
ATOM     35  C   LIG A   1      -7.664  -2.710 126.376  0.00  0.00    +0.332 C 
ATOM     36  O   LIG A   1      -8.031  -3.804 125.972  0.00  0.00    -0.246 OA
BRANCH  35  37
ATOM     37  C   LIG A   1      -7.779  -2.306 127.790  0.00  0.00    +0.092 C 
ATOM     38  C   LIG A   1      -6.701  -2.027 128.538  0.00  0.00    +0.015 C 
BRANCH  38  39
ATOM     39  C   LIG A   1      -6.813  -1.558 129.912  0.00  0.00    -0.021 A 
ATOM     40  C   LIG A   1      -8.057  -1.111 130.375  0.00  0.00    +0.057 A 
ATOM     41  C   LIG A   1      -8.161  -0.628 131.672  0.00  0.00    +0.159 A 
ATOM     42  C   LIG A   1      -7.043  -0.591 132.501  0.00  0.00    +0.158 A 
ATOM     43  C   LIG A   1      -5.806  -1.037 132.052  0.00  0.00    +0.050 A 
ATOM     44  C   LIG A   1      -5.691  -1.525 130.749  0.00  0.00    +0.012 A 
BRANCH  41  45
ATOM     45  O   LIG A   1      -9.347  -0.170 132.178  0.00  0.00    -0.503 OA
ATOM     46  H   LIG A   1      -9.353   0.801 132.100  0.00  0.00    +0.292 HD
ENDBRANCH  41  45
BRANCH  42  47
ATOM     47  O   LIG A   1      -7.156  -0.108 133.772  0.00  0.00    -0.503 OA
ATOM     48  H   LIG A   1      -7.845  -0.666 134.184  0.00  0.00    +0.292 HD
ENDBRANCH  42  47
ENDBRANCH  38  39
ENDBRANCH  35  37
ENDBRANCH  34  35
ENDBRANCH   6  34
BRANCH   3  49
ATOM     49  C   LIG A   1      -8.761   2.694 122.516  0.00  0.00    +0.190 C 
BRANCH  49  50
ATOM     50  O   LIG A   1      -8.321   3.836 123.255  0.00  0.00    -0.392 OA
ATOM     51  H   LIG A   1      -9.084   4.099 123.807  0.00  0.00    +0.209 HD
ENDBRANCH  49  50
ENDBRANCH   3  49
TORSDOF 15
ENDMDL
MODEL 2
REMARK VINA RESULT:      -7.8      3.555      9.199
REMARK  Name = NuBBE_367
REMARK  15 active torsions:
REMARK  status: ('A' for Active; 'I' for Inactive)
REMARK    1  A    between atoms: O_1  and  C_2
REMARK    2  A    between atoms: C_8  and  O_40
REMARK    3  A    between atoms: C_9  and  C_10
REMARK    4  A    between atoms: C_13  and  C_36
REMARK    5  A    between atoms: C_15  and  O_35
REMARK    6  A    between atoms: C_17  and  O_34
REMARK    7  A    between atoms: C_19  and  O_21
REMARK    8  A    between atoms: O_21  and  C_22
REMARK    9  A    between atoms: C_22  and  C_23
REMARK   10  A    between atoms: C_24  and  C_25
REMARK   11  A    between atoms: C_27  and  O_28
REMARK   12  A    between atoms: C_29  and  O_32
REMARK   13  A    between atoms: C_36  and  O_37
REMARK   14  A    between atoms: C_38  and  O_39
REMARK   15  A    between atoms: C_46  and  O_47
REMARK                            x       y       z     vdW  Elec       q    Type
REMARK                         _______ _______ _______ _____ _____    ______ ____
ROOT
ATOM      1  C   LIG A   1      -4.014   3.164 131.839  0.00  0.00    +0.199 C 
ATOM      2  O   LIG A   1      -4.375   2.025 132.641  0.00  0.00    -0.360 OA
ATOM      3  C   LIG A   1      -3.591   1.948 133.844  0.00  0.00    +0.175 C 
ATOM      4  C   LIG A   1      -3.970   3.123 134.747  0.00  0.00    +0.177 C 
ATOM      5  C   LIG A   1      -3.508   4.412 134.057  0.00  0.00    +0.189 C 
ATOM      6  C   LIG A   1      -4.046   4.507 132.618  0.00  0.00    +0.241 C 
ENDROOT
BRANCH   1  14
ATOM      7  C   LIG A   1      -7.546   3.655 123.690  0.00  0.00    +0.162 A 
ATOM      8  C   LIG A   1      -7.973   3.435 125.000  0.00  0.00    +0.096 A 
ATOM      9  C   LIG A   1      -7.047   3.498 126.045  0.00  0.00    +0.143 A 
ATOM     10  O   LIG A   1      -7.531   3.278 127.312  0.00  0.00    -0.454 OA
ATOM     11  C   LIG A   1      -6.642   3.287 128.360  0.00  0.00    +0.146 A 
ATOM     12  C   LIG A   1      -7.172   3.039 129.626  0.00  0.00    +0.093 A 
ATOM     13  C   LIG A   1      -6.331   3.010 130.743  0.00  0.00    +0.130 A 
ATOM     14  C   LIG A   1      -4.944   3.213 130.628  0.00  0.00    +0.068 A 
ATOM     15  C   LIG A   1      -4.434   3.496 129.349  0.00  0.00    +0.141 A 
ATOM     16  C   LIG A   1      -5.277   3.528 128.225  0.00  0.00    +0.106 A 
ATOM     17  C   LIG A   1      -4.760   3.816 126.882  0.00  0.00    +0.204 A 
ATOM     18  O   LIG A   1      -3.571   4.073 126.711  0.00  0.00    -0.286 OA
ATOM     19  C   LIG A   1      -5.710   3.776 125.765  0.00  0.00    +0.068 A 
ATOM     20  C   LIG A   1      -5.277   4.003 124.455  0.00  0.00    +0.064 A 
ATOM     21  C   LIG A   1      -6.204   3.942 123.419  0.00  0.00    +0.159 A 
BRANCH   7  22
ATOM     22  O   LIG A   1      -8.433   3.594 122.653  0.00  0.00    -0.503 OA
ATOM     23  H   LIG A   1      -7.994   3.854 121.829  0.00  0.00    +0.292 HD
ENDBRANCH   7  22
BRANCH  15  24
ATOM     24  O   LIG A   1      -3.090   3.750 129.232  0.00  0.00    -0.505 OA
ATOM     25  H   LIG A   1      -2.851   4.481 129.847  0.00  0.00    +0.292 HD
ENDBRANCH  15  24
BRANCH  13  26
ATOM     26  O   LIG A   1      -6.875   2.799 131.981  0.00  0.00    -0.506 OA
ATOM     27  H   LIG A   1      -7.125   1.864 132.072  0.00  0.00    +0.292 HD
ENDBRANCH  13  26
BRANCH  21  28
ATOM     28  O   LIG A   1      -5.813   4.159 122.129  0.00  0.00    -0.503 OA
ATOM     29  H   LIG A   1      -4.852   4.052 122.058  0.00  0.00    +0.292 HD
ENDBRANCH  21  28
ENDBRANCH   1  14
BRANCH   5  30
ATOM     30  O   LIG A   1      -3.971   5.538 134.831  0.00  0.00    -0.385 OA
ATOM     31  H   LIG A   1      -4.554   6.037 134.225  0.00  0.00    +0.210 HD
ENDBRANCH   5  30
BRANCH   4  32
ATOM     32  O   LIG A   1      -3.354   3.068 136.037  0.00  0.00    -0.387 OA
ATOM     33  H   LIG A   1      -4.044   3.228 136.704  0.00  0.00    +0.210 HD
ENDBRANCH   4  32
BRANCH   6  34
ATOM     34  O   LIG A   1      -3.399   5.562 131.861  0.00  0.00    -0.453 OA
BRANCH  34  35
ATOM     35  C   LIG A   1      -4.108   6.674 131.549  0.00  0.00    +0.332 C 
ATOM     36  O   LIG A   1      -3.663   7.720 131.101  0.00  0.00    -0.246 OA
BRANCH  35  37
ATOM     37  C   LIG A   1      -5.541   6.479 131.837  0.00  0.00    +0.092 C 
ATOM     38  C   LIG A   1      -6.498   6.945 131.021  0.00  0.00    +0.015 C 
BRANCH  38  39
ATOM     39  C   LIG A   1      -7.912   6.691 131.263  0.00  0.00    -0.021 A 
ATOM     40  C   LIG A   1      -8.280   5.898 132.357  0.00  0.00    +0.057 A 
ATOM     41  C   LIG A   1      -9.624   5.623 132.570  0.00  0.00    +0.159 A 
ATOM     42  C   LIG A   1     -10.591   6.131 131.707  0.00  0.00    +0.158 A 
ATOM     43  C   LIG A   1     -10.236   6.923 130.623  0.00  0.00    +0.050 A 
ATOM     44  C   LIG A   1      -8.887   7.206 130.400  0.00  0.00    +0.012 A 
BRANCH  41  45
ATOM     45  O   LIG A   1     -10.043   4.848 133.617  0.00  0.00    -0.503 OA
ATOM     46  H   LIG A   1      -9.278   4.688 134.198  0.00  0.00    +0.292 HD
ENDBRANCH  41  45
BRANCH  42  47
ATOM     47  O   LIG A   1     -11.908   5.848 131.923  0.00  0.00    -0.503 OA
ATOM     48  H   LIG A   1     -12.135   5.199 131.228  0.00  0.00    +0.292 HD
ENDBRANCH  42  47
ENDBRANCH  38  39
ENDBRANCH  35  37
ENDBRANCH  34  35
ENDBRANCH   6  34
BRANCH   3  49
ATOM     49  C   LIG A   1      -3.878   0.587 134.478  0.00  0.00    +0.190 C 
BRANCH  49  50
ATOM     50  O   LIG A   1      -3.000   0.387 135.589  0.00  0.00    -0.392 OA
ATOM     51  H   LIG A   1      -2.193   0.897 135.379  0.00  0.00    +0.209 HD
ENDBRANCH  49  50
ENDBRANCH   3  49
TORSDOF 15
ENDMDL
MODEL 3
REMARK VINA RESULT:      -7.8      2.577      4.018
REMARK  Name = NuBBE_367
REMARK  15 active torsions:
REMARK  status: ('A' for Active; 'I' for Inactive)
REMARK    1  A    between atoms: O_1  and  C_2
REMARK    2  A    between atoms: C_8  and  O_40
REMARK    3  A    between atoms: C_9  and  C_10
REMARK    4  A    between atoms: C_13  and  C_36
REMARK    5  A    between atoms: C_15  and  O_35
REMARK    6  A    between atoms: C_17  and  O_34
REMARK    7  A    between atoms: C_19  and  O_21
REMARK    8  A    between atoms: O_21  and  C_22
REMARK    9  A    between atoms: C_22  and  C_23
REMARK   10  A    between atoms: C_24  and  C_25
REMARK   11  A    between atoms: C_27  and  O_28
REMARK   12  A    between atoms: C_29  and  O_32
REMARK   13  A    between atoms: C_36  and  O_37
REMARK   14  A    between atoms: C_38  and  O_39
REMARK   15  A    between atoms: C_46  and  O_47
REMARK                            x       y       z     vdW  Elec       q    Type
REMARK                         _______ _______ _______ _____ _____    ______ ____
ROOT
ATOM      1  C   LIG A   1      -7.037   0.052 127.043  0.00  0.00    +0.199 C 
ATOM      2  O   LIG A   1      -7.452   1.318 126.501  0.00  0.00    -0.360 OA
ATOM      3  C   LIG A   1      -7.828   1.211 125.118  0.00  0.00    +0.175 C 
ATOM      4  C   LIG A   1      -9.106   0.376 125.025  0.00  0.00    +0.177 C 
ATOM      5  C   LIG A   1      -8.762  -1.056 125.453  0.00  0.00    +0.189 C 
ATOM      6  C   LIG A   1      -8.073  -1.085 126.828  0.00  0.00    +0.241 C 
ENDROOT
BRANCH   1  14
ATOM      7  C   LIG A   1      -3.437   0.067 135.177  0.00  0.00    +0.162 A 
ATOM      8  C   LIG A   1      -4.553   0.597 134.530  0.00  0.00    +0.096 A 
ATOM      9  C   LIG A   1      -4.780   0.288 133.186  0.00  0.00    +0.143 A 
ATOM     10  O   LIG A   1      -5.900   0.837 132.608  0.00  0.00    -0.454 OA
ATOM     11  C   LIG A   1      -6.131   0.593 131.275  0.00  0.00    +0.146 A 
ATOM     12  C   LIG A   1      -7.267   1.185 130.724  0.00  0.00    +0.093 A 
ATOM     13  C   LIG A   1      -7.563   1.003 129.369  0.00  0.00    +0.130 A 
ATOM     14  C   LIG A   1      -6.732   0.241 128.527  0.00  0.00    +0.068 A 
ATOM     15  C   LIG A   1      -5.612  -0.377 129.110  0.00  0.00    +0.141 A 
ATOM     16  C   LIG A   1      -5.313  -0.197 130.471  0.00  0.00    +0.106 A 
ATOM     17  C   LIG A   1      -4.144  -0.830 131.094  0.00  0.00    +0.204 A 
ATOM     18  O   LIG A   1      -3.410  -1.568 130.441  0.00  0.00    -0.286 OA
ATOM     19  C   LIG A   1      -3.887  -0.541 132.509  0.00  0.00    +0.068 A 
ATOM     20  C   LIG A   1      -2.770  -1.081 133.153  0.00  0.00    +0.064 A 
ATOM     21  C   LIG A   1      -2.551  -0.772 134.493  0.00  0.00    +0.159 A 
BRANCH   7  22
ATOM     22  O   LIG A   1      -3.193   0.359 136.489  0.00  0.00    -0.503 OA
ATOM     23  H   LIG A   1      -2.299   0.071 136.729  0.00  0.00    +0.292 HD
ENDBRANCH   7  22
BRANCH  15  24
ATOM     24  O   LIG A   1      -4.824  -1.168 128.312  0.00  0.00    -0.505 OA
ATOM     25  H   LIG A   1      -4.540  -0.645 127.528  0.00  0.00    +0.292 HD
ENDBRANCH  15  24
BRANCH  13  26
ATOM     26  O   LIG A   1      -8.700   1.565 128.854  0.00  0.00    -0.506 OA
ATOM     27  H   LIG A   1      -9.423   1.487 129.499  0.00  0.00    +0.292 HD
ENDBRANCH  13  26
BRANCH  21  28
ATOM     28  O   LIG A   1      -1.469  -1.282 135.151  0.00  0.00    -0.503 OA
ATOM     29  H   LIG A   1      -1.742  -1.609 136.022  0.00  0.00    +0.292 HD
ENDBRANCH  21  28
ENDBRANCH   1  14
BRANCH   5  30
ATOM     30  O   LIG A   1      -9.979  -1.827 125.496  0.00  0.00    -0.385 OA
ATOM     31  H   LIG A   1      -9.778  -2.584 126.082  0.00  0.00    +0.210 HD
ENDBRANCH   5  30
BRANCH   4  32
ATOM     32  O   LIG A   1      -9.653   0.322 123.704  0.00  0.00    -0.387 OA
ATOM     33  H   LIG A   1      -9.248   1.038 123.184  0.00  0.00    +0.210 HD
ENDBRANCH   4  32
BRANCH   6  34
ATOM     34  O   LIG A   1      -7.490  -2.381 127.121  0.00  0.00    -0.453 OA
BRANCH  34  35
ATOM     35  C   LIG A   1      -8.220  -3.287 127.815  0.00  0.00    +0.332 C 
ATOM     36  O   LIG A   1      -9.055  -4.054 127.359  0.00  0.00    -0.246 OA
BRANCH  35  37
ATOM     37  C   LIG A   1      -7.893  -3.232 129.252  0.00  0.00    +0.092 C 
ATOM     38  C   LIG A   1      -6.780  -3.796 129.747  0.00  0.00    +0.015 C 
BRANCH  38  39
ATOM     39  C   LIG A   1      -6.416  -3.682 131.153  0.00  0.00    -0.021 A 
ATOM     40  C   LIG A   1      -7.185  -2.861 131.987  0.00  0.00    +0.057 A 
ATOM     41  C   LIG A   1      -6.819  -2.719 133.319  0.00  0.00    +0.159 A 
ATOM     42  C   LIG A   1      -5.704  -3.388 133.817  0.00  0.00    +0.158 A 
ATOM     43  C   LIG A   1      -4.939  -4.209 132.998  0.00  0.00    +0.050 A 
ATOM     44  C   LIG A   1      -5.298  -4.358 131.657  0.00  0.00    +0.012 A 
BRANCH  41  45
ATOM     45  O   LIG A   1      -7.526  -1.925 134.179  0.00  0.00    -0.503 OA
ATOM     46  H   LIG A   1      -6.915  -1.262 134.548  0.00  0.00    +0.292 HD
ENDBRANCH  41  45
BRANCH  42  47
ATOM     47  O   LIG A   1      -5.351  -3.236 135.126  0.00  0.00    -0.503 OA
ATOM     48  H   LIG A   1      -4.522  -2.719 135.096  0.00  0.00    +0.292 HD
ENDBRANCH  42  47
ENDBRANCH  38  39
ENDBRANCH  35  37
ENDBRANCH  34  35
ENDBRANCH   6  34
BRANCH   3  49
ATOM     49  C   LIG A   1      -8.003   2.635 124.590  0.00  0.00    +0.190 C 
BRANCH  49  50
ATOM     50  O   LIG A   1      -9.377   3.014 124.691  0.00  0.00    -0.392 OA
ATOM     51  H   LIG A   1      -9.727   2.526 125.463  0.00  0.00    +0.209 HD
ENDBRANCH  49  50
ENDBRANCH   3  49
TORSDOF 15
ENDMDL
MODEL 4
REMARK VINA RESULT:      -7.7      3.447      7.060
REMARK  Name = NuBBE_367
REMARK  15 active torsions:
REMARK  status: ('A' for Active; 'I' for Inactive)
REMARK    1  A    between atoms: O_1  and  C_2
REMARK    2  A    between atoms: C_8  and  O_40
REMARK    3  A    between atoms: C_9  and  C_10
REMARK    4  A    between atoms: C_13  and  C_36
REMARK    5  A    between atoms: C_15  and  O_35
REMARK    6  A    between atoms: C_17  and  O_34
REMARK    7  A    between atoms: C_19  and  O_21
REMARK    8  A    between atoms: O_21  and  C_22
REMARK    9  A    between atoms: C_22  and  C_23
REMARK   10  A    between atoms: C_24  and  C_25
REMARK   11  A    between atoms: C_27  and  O_28
REMARK   12  A    between atoms: C_29  and  O_32
REMARK   13  A    between atoms: C_36  and  O_37
REMARK   14  A    between atoms: C_38  and  O_39
REMARK   15  A    between atoms: C_46  and  O_47
REMARK                            x       y       z     vdW  Elec       q    Type
REMARK                         _______ _______ _______ _____ _____    ______ ____
ROOT
ATOM      1  C   LIG A   1      -9.071   3.684 131.188  0.00  0.00    +0.199 C 
ATOM      2  O   LIG A   1     -10.248   3.953 130.406  0.00  0.00    -0.360 OA
ATOM      3  C   LIG A   1     -10.764   5.272 130.651  0.00  0.00    +0.175 C 
ATOM      4  C   LIG A   1      -9.764   6.294 130.109  0.00  0.00    +0.177 C 
ATOM      5  C   LIG A   1      -8.491   6.203 130.960  0.00  0.00    +0.189 C 
ATOM      6  C   LIG A   1      -7.962   4.760 131.032  0.00  0.00    +0.241 C 
ENDROOT
BRANCH   1  14
ATOM      7  C   LIG A   1      -6.008  -4.667 131.145  0.00  0.00    +0.162 A 
ATOM      8  C   LIG A   1      -6.410  -3.699 130.224  0.00  0.00    +0.096 A 
ATOM      9  C   LIG A   1      -6.790  -2.433 130.679  0.00  0.00    +0.143 A 
ATOM     10  O   LIG A   1      -7.169  -1.522 129.722  0.00  0.00    -0.454 OA
ATOM     11  C   LIG A   1      -7.593  -0.282 130.134  0.00  0.00    +0.146 A 
ATOM     12  C   LIG A   1      -7.987   0.604 129.132  0.00  0.00    +0.093 A 
ATOM     13  C   LIG A   1      -8.452   1.879 129.470  0.00  0.00    +0.130 A 
ATOM     14  C   LIG A   1      -8.548   2.300 130.809  0.00  0.00    +0.068 A 
ATOM     15  C   LIG A   1      -8.112   1.406 131.801  0.00  0.00    +0.141 A 
ATOM     16  C   LIG A   1      -7.643   0.124 131.466  0.00  0.00    +0.106 A 
ATOM     17  C   LIG A   1      -7.190  -0.824 132.491  0.00  0.00    +0.204 A 
ATOM     18  O   LIG A   1      -7.177  -0.505 133.676  0.00  0.00    -0.286 OA
ATOM     19  C   LIG A   1      -6.767  -2.156 132.044  0.00  0.00    +0.068 A 
ATOM     20  C   LIG A   1      -6.360  -3.120 132.972  0.00  0.00    +0.064 A 
ATOM     21  C   LIG A   1      -5.980  -4.378 132.512  0.00  0.00    +0.159 A 
BRANCH   7  22
ATOM     22  O   LIG A   1      -5.638  -5.913 130.723  0.00  0.00    -0.503 OA
ATOM     23  H   LIG A   1      -4.747  -6.118 131.048  0.00  0.00    +0.292 HD
ENDBRANCH   7  22
BRANCH  15  24
ATOM     24  O   LIG A   1      -8.148   1.824 133.108  0.00  0.00    -0.505 OA
ATOM     25  H   LIG A   1      -7.410   1.396 133.599  0.00  0.00    +0.292 HD
ENDBRANCH  15  24
BRANCH  13  26
ATOM     26  O   LIG A   1      -8.803   2.747 128.470  0.00  0.00    -0.506 OA
ATOM     27  H   LIG A   1      -9.768   2.745 128.361  0.00  0.00    +0.292 HD
ENDBRANCH  13  26
BRANCH  21  28
ATOM     28  O   LIG A   1      -5.578  -5.341 133.393  0.00  0.00    -0.503 OA
ATOM     29  H   LIG A   1      -6.331  -5.619 133.938  0.00  0.00    +0.292 HD
ENDBRANCH  21  28
ENDBRANCH   1  14
BRANCH   5  30
ATOM     30  O   LIG A   1      -7.491   7.066 130.384  0.00  0.00    -0.385 OA
ATOM     31  H   LIG A   1      -7.194   6.603 129.575  0.00  0.00    +0.210 HD
ENDBRANCH   5  30
BRANCH   4  32
ATOM     32  O   LIG A   1     -10.240   7.642 130.171  0.00  0.00    -0.387 OA
ATOM     33  H   LIG A   1     -10.041   7.988 131.059  0.00  0.00    +0.210 HD
ENDBRANCH   4  32
BRANCH   6  34
ATOM     34  O   LIG A   1      -6.939   4.603 132.049  0.00  0.00    -0.453 OA
BRANCH  34  35
ATOM     35  C   LIG A   1      -5.636   4.647 131.680  0.00  0.00    +0.332 C 
ATOM     36  O   LIG A   1      -4.939   5.647 131.584  0.00  0.00    -0.246 OA
BRANCH  35  37
ATOM     37  C   LIG A   1      -5.131   3.295 131.379  0.00  0.00    +0.092 C 
ATOM     38  C   LIG A   1      -4.558   2.527 132.317  0.00  0.00    +0.015 C 
BRANCH  38  39
ATOM     39  C   LIG A   1      -4.124   1.164 132.042  0.00  0.00    -0.021 A 
ATOM     40  C   LIG A   1      -4.230   0.670 130.736  0.00  0.00    +0.057 A 
ATOM     41  C   LIG A   1      -3.853  -0.641 130.476  0.00  0.00    +0.159 A 
ATOM     42  C   LIG A   1      -3.374  -1.450 131.502  0.00  0.00    +0.158 A 
ATOM     43  C   LIG A   1      -3.260  -0.968 132.800  0.00  0.00    +0.050 A 
ATOM     44  C   LIG A   1      -3.636   0.349 133.071  0.00  0.00    +0.012 A 
BRANCH  41  45
ATOM     45  O   LIG A   1      -3.942  -1.181 129.222  0.00  0.00    -0.503 OA
ATOM     46  H   LIG A   1      -4.090  -2.138 129.318  0.00  0.00    +0.292 HD
ENDBRANCH  41  45
BRANCH  42  47
ATOM     47  O   LIG A   1      -3.013  -2.739 131.236  0.00  0.00    -0.503 OA
ATOM     48  H   LIG A   1      -2.921  -2.770 130.263  0.00  0.00    +0.292 HD
ENDBRANCH  42  47
ENDBRANCH  38  39
ENDBRANCH  35  37
ENDBRANCH  34  35
ENDBRANCH   6  34
BRANCH   3  49
ATOM     49  C   LIG A   1     -12.131   5.352 129.972  0.00  0.00    +0.190 C 
BRANCH  49  50
ATOM     50  O   LIG A   1     -12.013   6.087 128.752  0.00  0.00    -0.392 OA
ATOM     51  H   LIG A   1     -11.308   6.746 128.911  0.00  0.00    +0.209 HD
ENDBRANCH  49  50
ENDBRANCH   3  49
TORSDOF 15
ENDMDL
MODEL 5
REMARK VINA RESULT:      -7.6      2.485      8.913
REMARK  Name = NuBBE_367
REMARK  15 active torsions:
REMARK  status: ('A' for Active; 'I' for Inactive)
REMARK    1  A    between atoms: O_1  and  C_2
REMARK    2  A    between atoms: C_8  and  O_40
REMARK    3  A    between atoms: C_9  and  C_10
REMARK    4  A    between atoms: C_13  and  C_36
REMARK    5  A    between atoms: C_15  and  O_35
REMARK    6  A    between atoms: C_17  and  O_34
REMARK    7  A    between atoms: C_19  and  O_21
REMARK    8  A    between atoms: O_21  and  C_22
REMARK    9  A    between atoms: C_22  and  C_23
REMARK   10  A    between atoms: C_24  and  C_25
REMARK   11  A    between atoms: C_27  and  O_28
REMARK   12  A    between atoms: C_29  and  O_32
REMARK   13  A    between atoms: C_36  and  O_37
REMARK   14  A    between atoms: C_38  and  O_39
REMARK   15  A    between atoms: C_46  and  O_47
REMARK                            x       y       z     vdW  Elec       q    Type
REMARK                         _______ _______ _______ _____ _____    ______ ____
ROOT
ATOM      1  C   LIG A   1      -4.445  -2.119 131.555  0.00  0.00    +0.199 C 
ATOM      2  O   LIG A   1      -4.331  -3.278 132.399  0.00  0.00    -0.360 OA
ATOM      3  C   LIG A   1      -3.377  -3.079 133.456  0.00  0.00    +0.175 C 
ATOM      4  C   LIG A   1      -3.928  -2.023 134.415  0.00  0.00    +0.177 C 
ATOM      5  C   LIG A   1      -3.972  -0.686 133.665  0.00  0.00    +0.189 C 
ATOM      6  C   LIG A   1      -4.736  -0.809 132.335  0.00  0.00    +0.241 C 
ENDROOT
BRANCH   1  14
ATOM      7  C   LIG A   1      -9.210  -3.024 124.098  0.00  0.00    +0.162 A 
ATOM      8  C   LIG A   1      -9.347  -3.287 125.461  0.00  0.00    +0.096 A 
ATOM      9  C   LIG A   1      -8.323  -2.920 126.339  0.00  0.00    +0.143 A 
ATOM     10  O   LIG A   1      -8.520  -3.200 127.669  0.00  0.00    -0.454 OA
ATOM     11  C   LIG A   1      -7.516  -2.896 128.557  0.00  0.00    +0.146 A 
ATOM     12  C   LIG A   1      -7.750  -3.215 129.893  0.00  0.00    +0.093 A 
ATOM     13  C   LIG A   1      -6.769  -2.957 130.856  0.00  0.00    +0.130 A 
ATOM     14  C   LIG A   1      -5.529  -2.388 130.513  0.00  0.00    +0.068 A 
ATOM     15  C   LIG A   1      -5.327  -2.041 129.166  0.00  0.00    +0.141 A 
ATOM     16  C   LIG A   1      -6.311  -2.298 128.197  0.00  0.00    +0.106 A 
ATOM     17  C   LIG A   1      -6.112  -1.947 126.785  0.00  0.00    +0.204 A 
ATOM     18  O   LIG A   1      -5.085  -1.383 126.419  0.00  0.00    -0.286 OA
ATOM     19  C   LIG A   1      -7.177  -2.302 125.840  0.00  0.00    +0.068 A 
ATOM     20  C   LIG A   1      -7.036  -2.030 124.476  0.00  0.00    +0.064 A 
ATOM     21  C   LIG A   1      -8.061  -2.396 123.608  0.00  0.00    +0.159 A 
BRANCH   7  22
ATOM     22  O   LIG A   1     -10.197  -3.379 123.222  0.00  0.00    -0.503 OA
ATOM     23  H   LIG A   1     -10.959  -3.728 123.710  0.00  0.00    +0.292 HD
ENDBRANCH   7  22
BRANCH  15  24
ATOM     24  O   LIG A   1      -4.142  -1.434 128.828  0.00  0.00    -0.505 OA
ATOM     25  H   LIG A   1      -4.057  -0.598 129.340  0.00  0.00    +0.292 HD
ENDBRANCH  15  24
BRANCH  13  26
ATOM     26  O   LIG A   1      -7.031  -3.247 132.168  0.00  0.00    -0.506 OA
ATOM     27  H   LIG A   1      -6.314  -2.904 132.728  0.00  0.00    +0.292 HD
ENDBRANCH  13  26
BRANCH  21  28
ATOM     28  O   LIG A   1      -7.954  -2.145 122.270  0.00  0.00    -0.503 OA
ATOM     29  H   LIG A   1      -8.573  -2.710 121.782  0.00  0.00    +0.292 HD
ENDBRANCH  21  28
ENDBRANCH   1  14
BRANCH   5  30
ATOM     30  O   LIG A   1      -4.609   0.294 134.510  0.00  0.00    -0.385 OA
ATOM     31  H   LIG A   1      -5.568   0.122 134.417  0.00  0.00    +0.210 HD
ENDBRANCH   5  30
BRANCH   4  32
ATOM     32  O   LIG A   1      -3.125  -1.845 135.585  0.00  0.00    -0.387 OA
ATOM     33  H   LIG A   1      -2.307  -2.361 135.467  0.00  0.00    +0.210 HD
ENDBRANCH   4  32
BRANCH   6  34
ATOM     34  O   LIG A   1      -4.548   0.354 131.487  0.00  0.00    -0.453 OA
BRANCH  34  35
ATOM     35  C   LIG A   1      -5.594   1.190 131.280  0.00  0.00    +0.332 C 
ATOM     36  O   LIG A   1      -6.240   1.775 132.137  0.00  0.00    -0.246 OA
BRANCH  35  37
ATOM     37  C   LIG A   1      -5.890   1.311 129.841  0.00  0.00    +0.092 C 
ATOM     38  C   LIG A   1      -7.104   1.033 129.341  0.00  0.00    +0.015 C 
BRANCH  38  39
ATOM     39  C   LIG A   1      -7.421   1.221 127.932  0.00  0.00    -0.021 A 
ATOM     40  C   LIG A   1      -8.637   0.730 127.441  0.00  0.00    +0.057 A 
ATOM     41  C   LIG A   1      -8.928   0.874 126.091  0.00  0.00    +0.159 A 
ATOM     42  C   LIG A   1      -8.022   1.500 125.239  0.00  0.00    +0.158 A 
ATOM     43  C   LIG A   1      -6.816   1.994 125.718  0.00  0.00    +0.050 A 
ATOM     44  C   LIG A   1      -6.514   1.855 127.074  0.00  0.00    +0.012 A 
BRANCH  41  45
ATOM     45  O   LIG A   1     -10.096   0.407 125.552  0.00  0.00    -0.503 OA
ATOM     46  H   LIG A   1      -9.897  -0.413 125.067  0.00  0.00    +0.292 HD
ENDBRANCH  41  45
BRANCH  42  47
ATOM     47  O   LIG A   1      -8.316   1.629 123.913  0.00  0.00    -0.503 OA
ATOM     48  H   LIG A   1      -7.789   0.930 123.478  0.00  0.00    +0.292 HD
ENDBRANCH  42  47
ENDBRANCH  38  39
ENDBRANCH  35  37
ENDBRANCH  34  35
ENDBRANCH   6  34
BRANCH   3  49
ATOM     49  C   LIG A   1      -3.156  -4.437 134.122  0.00  0.00    +0.190 C 
BRANCH  49  50
ATOM     50  O   LIG A   1      -1.888  -4.961 133.722  0.00  0.00    -0.392 OA
ATOM     51  H   LIG A   1      -2.087  -5.644 133.052  0.00  0.00    +0.209 HD
ENDBRANCH  49  50
ENDBRANCH   3  49
TORSDOF 15
ENDMDL
MODEL 6
REMARK VINA RESULT:      -7.6      2.370      7.737
REMARK  Name = NuBBE_367
REMARK  15 active torsions:
REMARK  status: ('A' for Active; 'I' for Inactive)
REMARK    1  A    between atoms: O_1  and  C_2
REMARK    2  A    between atoms: C_8  and  O_40
REMARK    3  A    between atoms: C_9  and  C_10
REMARK    4  A    between atoms: C_13  and  C_36
REMARK    5  A    between atoms: C_15  and  O_35
REMARK    6  A    between atoms: C_17  and  O_34
REMARK    7  A    between atoms: C_19  and  O_21
REMARK    8  A    between atoms: O_21  and  C_22
REMARK    9  A    between atoms: C_22  and  C_23
REMARK   10  A    between atoms: C_24  and  C_25
REMARK   11  A    between atoms: C_27  and  O_28
REMARK   12  A    between atoms: C_29  and  O_32
REMARK   13  A    between atoms: C_36  and  O_37
REMARK   14  A    between atoms: C_38  and  O_39
REMARK   15  A    between atoms: C_46  and  O_47
REMARK                            x       y       z     vdW  Elec       q    Type
REMARK                         _______ _______ _______ _____ _____    ______ ____
ROOT
ATOM      1  C   LIG A   1      -5.652   0.197 131.542  0.00  0.00    +0.199 C 
ATOM      2  O   LIG A   1      -5.000   1.340 132.124  0.00  0.00    -0.360 OA
ATOM      3  C   LIG A   1      -4.256   0.988 133.303  0.00  0.00    +0.175 C 
ATOM      4  C   LIG A   1      -3.075   0.109 132.888  0.00  0.00    +0.177 C 
ATOM      5  C   LIG A   1      -3.640  -1.218 132.367  0.00  0.00    +0.189 C 
ATOM      6  C   LIG A   1      -4.692  -0.992 131.267  0.00  0.00    +0.241 C 
ENDROOT
BRANCH   1  14
ATOM      7  C   LIG A   1      -7.698   3.432 123.512  0.00  0.00    +0.162 A 
ATOM      8  C   LIG A   1      -8.330   2.754 124.556  0.00  0.00    +0.096 A 
ATOM      9  C   LIG A   1      -7.616   2.470 125.723  0.00  0.00    +0.143 A 
ATOM     10  O   LIG A   1      -8.296   1.806 126.716  0.00  0.00    -0.454 OA
ATOM     11  C   LIG A   1      -7.614   1.469 127.860  0.00  0.00    +0.146 A 
ATOM     12  C   LIG A   1      -8.337   0.779 128.833  0.00  0.00    +0.093 A 
ATOM     13  C   LIG A   1      -7.710   0.380 130.018  0.00  0.00    +0.130 A 
ATOM     14  C   LIG A   1      -6.350   0.645 130.259  0.00  0.00    +0.068 A 
ATOM     15  C   LIG A   1      -5.648   1.372 129.282  0.00  0.00    +0.141 A 
ATOM     16  C   LIG A   1      -6.275   1.776 128.091  0.00  0.00    +0.106 A 
ATOM     17  C   LIG A   1      -5.555   2.530 127.058  0.00  0.00    +0.204 A 
ATOM     18  O   LIG A   1      -4.385   2.861 127.226  0.00  0.00    -0.286 OA
ATOM     19  C   LIG A   1      -6.283   2.861 125.827  0.00  0.00    +0.068 A 
ATOM     20  C   LIG A   1      -5.645   3.545 124.788  0.00  0.00    +0.064 A 
ATOM     21  C   LIG A   1      -6.363   3.829 123.629  0.00  0.00    +0.159 A 
BRANCH   7  22
ATOM     22  O   LIG A   1      -8.376   3.716 122.360  0.00  0.00    -0.503 OA
ATOM     23  H   LIG A   1      -7.880   3.383 121.597  0.00  0.00    +0.292 HD
ENDBRANCH   7  22
BRANCH  15  24
ATOM     24  O   LIG A   1      -4.334   1.685 129.530  0.00  0.00    -0.505 OA
ATOM     25  H   LIG A   1      -4.285   2.617 129.843  0.00  0.00    +0.292 HD
ENDBRANCH  15  24
BRANCH  13  26
ATOM     26  O   LIG A   1      -8.445  -0.266 130.975  0.00  0.00    -0.506 OA
ATOM     27  H   LIG A   1      -7.979  -0.225 131.827  0.00  0.00    +0.292 HD
ENDBRANCH  13  26
BRANCH  21  28
ATOM     28  O   LIG A   1      -5.769   4.495 122.595  0.00  0.00    -0.503 OA
ATOM     29  H   LIG A   1      -6.407   4.612 121.874  0.00  0.00    +0.292 HD
ENDBRANCH  21  28
ENDBRANCH   1  14
BRANCH   5  30
ATOM     30  O   LIG A   1      -2.550  -2.009 131.850  0.00  0.00    -0.385 OA
ATOM     31  H   LIG A   1      -1.787  -1.791 132.422  0.00  0.00    +0.210 HD
ENDBRANCH   5  30
BRANCH   4  32
ATOM     32  O   LIG A   1      -2.181  -0.185 133.965  0.00  0.00    -0.387 OA
ATOM     33  H   LIG A   1      -1.366   0.329 133.825  0.00  0.00    +0.210 HD
ENDBRANCH   4  32
BRANCH   6  34
ATOM     34  O   LIG A   1      -5.435  -2.200 130.964  0.00  0.00    -0.453 OA
BRANCH  34  35
ATOM     35  C   LIG A   1      -5.119  -2.902 129.848  0.00  0.00    +0.332 C 
ATOM     36  O   LIG A   1      -4.152  -3.633 129.696  0.00  0.00    -0.246 OA
BRANCH  35  37
ATOM     37  C   LIG A   1      -6.110  -2.664 128.783  0.00  0.00    +0.092 C 
ATOM     38  C   LIG A   1      -5.802  -1.986 127.666  0.00  0.00    +0.015 C 
BRANCH  38  39
ATOM     39  C   LIG A   1      -6.756  -1.812 126.580  0.00  0.00    -0.021 A 
ATOM     40  C   LIG A   1      -8.016  -2.415 126.682  0.00  0.00    +0.057 A 
ATOM     41  C   LIG A   1      -8.916  -2.283 125.632  0.00  0.00    +0.159 A 
ATOM     42  C   LIG A   1      -8.568  -1.557 124.496  0.00  0.00    +0.158 A 
ATOM     43  C   LIG A   1      -7.323  -0.951 124.388  0.00  0.00    +0.050 A 
ATOM     44  C   LIG A   1      -6.411  -1.078 125.438  0.00  0.00    +0.012 A 
BRANCH  41  45
ATOM     45  O   LIG A   1     -10.157  -2.856 125.671  0.00  0.00    -0.503 OA
ATOM     46  H   LIG A   1     -10.669  -2.516 124.915  0.00  0.00    +0.292 HD
ENDBRANCH  41  45
BRANCH  42  47
ATOM     47  O   LIG A   1      -9.458  -1.440 123.468  0.00  0.00    -0.503 OA
ATOM     48  H   LIG A   1      -8.899  -1.297 122.678  0.00  0.00    +0.292 HD
ENDBRANCH  42  47
ENDBRANCH  38  39
ENDBRANCH  35  37
ENDBRANCH  34  35
ENDBRANCH   6  34
BRANCH   3  49
ATOM     49  C   LIG A   1      -3.825   2.296 133.967  0.00  0.00    +0.190 C 
BRANCH  49  50
ATOM     50  O   LIG A   1      -3.470   2.042 135.329  0.00  0.00    -0.392 OA
ATOM     51  H   LIG A   1      -4.222   2.371 135.860  0.00  0.00    +0.209 HD
ENDBRANCH  49  50
ENDBRANCH   3  49
TORSDOF 15
ENDMDL
MODEL 7
REMARK VINA RESULT:      -7.6      2.141      8.274
REMARK  Name = NuBBE_367
REMARK  15 active torsions:
REMARK  status: ('A' for Active; 'I' for Inactive)
REMARK    1  A    between atoms: O_1  and  C_2
REMARK    2  A    between atoms: C_8  and  O_40
REMARK    3  A    between atoms: C_9  and  C_10
REMARK    4  A    between atoms: C_13  and  C_36
REMARK    5  A    between atoms: C_15  and  O_35
REMARK    6  A    between atoms: C_17  and  O_34
REMARK    7  A    between atoms: C_19  and  O_21
REMARK    8  A    between atoms: O_21  and  C_22
REMARK    9  A    between atoms: C_22  and  C_23
REMARK   10  A    between atoms: C_24  and  C_25
REMARK   11  A    between atoms: C_27  and  O_28
REMARK   12  A    between atoms: C_29  and  O_32
REMARK   13  A    between atoms: C_36  and  O_37
REMARK   14  A    between atoms: C_38  and  O_39
REMARK   15  A    between atoms: C_46  and  O_47
REMARK                            x       y       z     vdW  Elec       q    Type
REMARK                         _______ _______ _______ _____ _____    ______ ____
ROOT
ATOM      1  C   LIG A   1      -6.301   2.771 131.117  0.00  0.00    +0.199 C 
ATOM      2  O   LIG A   1      -7.653   2.763 131.610  0.00  0.00    -0.360 OA
ATOM      3  C   LIG A   1      -7.815   3.633 132.743  0.00  0.00    +0.175 C 
ATOM      4  C   LIG A   1      -7.641   5.078 132.275  0.00  0.00    +0.177 C 
ATOM      5  C   LIG A   1      -6.180   5.259 131.844  0.00  0.00    +0.189 C 
ATOM      6  C   LIG A   1      -5.759   4.195 130.816  0.00  0.00    +0.241 C 
ENDROOT
BRANCH   1  14
ATOM      7  C   LIG A   1      -7.803  -1.357 123.383  0.00  0.00    +0.162 A 
ATOM      8  C   LIG A   1      -6.809  -1.303 124.360  0.00  0.00    +0.096 A 
ATOM      9  C   LIG A   1      -7.010  -0.524 125.503  0.00  0.00    +0.143 A 
ATOM     10  O   LIG A   1      -5.996  -0.518 126.431  0.00  0.00    -0.454 OA
ATOM     11  C   LIG A   1      -6.138   0.273 127.546  0.00  0.00    +0.146 A 
ATOM     12  C   LIG A   1      -5.077   0.265 128.452  0.00  0.00    +0.093 A 
ATOM     13  C   LIG A   1      -5.134   1.058 129.602  0.00  0.00    +0.130 A 
ATOM     14  C   LIG A   1      -6.238   1.887 129.874  0.00  0.00    +0.068 A 
ATOM     15  C   LIG A   1      -7.312   1.854 128.967  0.00  0.00    +0.141 A 
ATOM     16  C   LIG A   1      -7.258   1.057 127.811  0.00  0.00    +0.106 A 
ATOM     17  C   LIG A   1      -8.368   1.015 126.851  0.00  0.00    +0.204 A 
ATOM     18  O   LIG A   1      -9.395   1.656 127.055  0.00  0.00    -0.286 OA
ATOM     19  C   LIG A   1      -8.197   0.191 125.649  0.00  0.00    +0.068 A 
ATOM     20  C   LIG A   1      -9.199   0.137 124.677  0.00  0.00    +0.064 A 
ATOM     21  C   LIG A   1      -8.995  -0.643 123.542  0.00  0.00    +0.159 A 
BRANCH   7  22
ATOM     22  O   LIG A   1      -7.626  -2.109 122.256  0.00  0.00    -0.503 OA
ATOM     23  H   LIG A   1      -6.807  -1.843 121.809  0.00  0.00    +0.292 HD
ENDBRANCH   7  22
BRANCH  15  24
ATOM     24  O   LIG A   1      -8.418   2.616 129.249  0.00  0.00    -0.505 OA
ATOM     25  H   LIG A   1      -9.059   2.068 129.758  0.00  0.00    +0.292 HD
ENDBRANCH  15  24
BRANCH  13  26
ATOM     26  O   LIG A   1      -4.098   1.012 130.495  0.00  0.00    -0.506 OA
ATOM     27  H   LIG A   1      -4.144   0.186 131.005  0.00  0.00    +0.292 HD
ENDBRANCH  13  26
BRANCH  21  28
ATOM     28  O   LIG A   1      -9.954  -0.717 122.573  0.00  0.00    -0.503 OA
ATOM     29  H   LIG A   1      -9.722  -1.412 121.937  0.00  0.00    +0.292 HD
ENDBRANCH  21  28
ENDBRANCH   1  14
BRANCH   5  30
ATOM     30  O   LIG A   1      -6.029   6.577 131.279  0.00  0.00    -0.385 OA
ATOM     31  H   LIG A   1      -5.786   6.424 130.344  0.00  0.00    +0.210 HD
ENDBRANCH   5  30
BRANCH   4  32
ATOM     32  O   LIG A   1      -7.922   6.042 133.294  0.00  0.00    -0.387 OA
ATOM     33  H   LIG A   1      -8.875   6.243 133.260  0.00  0.00    +0.210 HD
ENDBRANCH   4  32
BRANCH   6  34
ATOM     34  O   LIG A   1      -4.322   4.171 130.611  0.00  0.00    -0.453 OA
BRANCH  34  35
ATOM     35  C   LIG A   1      -3.812   4.720 129.482  0.00  0.00    +0.332 C 
ATOM     36  O   LIG A   1      -2.698   5.205 129.347  0.00  0.00    -0.246 OA
BRANCH  35  37
ATOM     37  C   LIG A   1      -4.799   4.679 128.389  0.00  0.00    +0.092 C 
ATOM     38  C   LIG A   1      -4.605   3.942 127.284  0.00  0.00    +0.015 C 
BRANCH  38  39
ATOM     39  C   LIG A   1      -5.609   3.841 126.235  0.00  0.00    -0.021 A 
ATOM     40  C   LIG A   1      -6.828   4.511 126.397  0.00  0.00    +0.057 A 
ATOM     41  C   LIG A   1      -7.803   4.388 125.417  0.00  0.00    +0.159 A 
ATOM     42  C   LIG A   1      -7.568   3.609 124.286  0.00  0.00    +0.158 A 
ATOM     43  C   LIG A   1      -6.361   2.946 124.114  0.00  0.00    +0.050 A 
ATOM     44  C   LIG A   1      -5.373   3.064 125.093  0.00  0.00    +0.012 A 
BRANCH  41  45
ATOM     45  O   LIG A   1      -9.016   5.011 125.524  0.00  0.00    -0.503 OA
ATOM     46  H   LIG A   1      -9.628   4.590 124.895  0.00  0.00    +0.292 HD
ENDBRANCH  41  45
BRANCH  42  47
ATOM     47  O   LIG A   1      -8.537   3.490 123.332  0.00  0.00    -0.503 OA
ATOM     48  H   LIG A   1      -9.377   3.537 123.831  0.00  0.00    +0.292 HD
ENDBRANCH  42  47
ENDBRANCH  38  39
ENDBRANCH  35  37
ENDBRANCH  34  35
ENDBRANCH   6  34
BRANCH   3  49
ATOM     49  C   LIG A   1      -9.199   3.354 133.327  0.00  0.00    +0.190 C 
BRANCH  49  50
ATOM     50  O   LIG A   1      -9.374   4.120 134.522  0.00  0.00    -0.392 OA
ATOM     51  H   LIG A   1     -10.340   4.240 134.616  0.00  0.00    +0.209 HD
ENDBRANCH  49  50
ENDBRANCH   3  49
TORSDOF 15
ENDMDL
MODEL 8
REMARK VINA RESULT:      -7.5      2.290      4.611
REMARK  Name = NuBBE_367
REMARK  15 active torsions:
REMARK  status: ('A' for Active; 'I' for Inactive)
REMARK    1  A    between atoms: O_1  and  C_2
REMARK    2  A    between atoms: C_8  and  O_40
REMARK    3  A    between atoms: C_9  and  C_10
REMARK    4  A    between atoms: C_13  and  C_36
REMARK    5  A    between atoms: C_15  and  O_35
REMARK    6  A    between atoms: C_17  and  O_34
REMARK    7  A    between atoms: C_19  and  O_21
REMARK    8  A    between atoms: O_21  and  C_22
REMARK    9  A    between atoms: C_22  and  C_23
REMARK   10  A    between atoms: C_24  and  C_25
REMARK   11  A    between atoms: C_27  and  O_28
REMARK   12  A    between atoms: C_29  and  O_32
REMARK   13  A    between atoms: C_36  and  O_37
REMARK   14  A    between atoms: C_38  and  O_39
REMARK   15  A    between atoms: C_46  and  O_47
REMARK                            x       y       z     vdW  Elec       q    Type
REMARK                         _______ _______ _______ _____ _____    ______ ____
ROOT
ATOM      1  C   LIG A   1      -8.579   1.733 125.673  0.00  0.00    +0.199 C 
ATOM      2  O   LIG A   1      -9.016   1.050 124.484  0.00  0.00    -0.360 OA
ATOM      3  C   LIG A   1      -9.480   1.968 123.480  0.00  0.00    +0.175 C 
ATOM      4  C   LIG A   1      -8.287   2.782 122.976  0.00  0.00    +0.177 C 
ATOM      5  C   LIG A   1      -7.805   3.669 124.130  0.00  0.00    +0.189 C 
ATOM      6  C   LIG A   1      -7.531   2.846 125.400  0.00  0.00    +0.241 C 
ENDROOT
BRANCH   1  14
ATOM      7  C   LIG A   1      -6.609  -3.206 132.804  0.00  0.00    +0.162 A 
ATOM      8  C   LIG A   1      -6.361  -3.211 131.431  0.00  0.00    +0.096 A 
ATOM      9  C   LIG A   1      -6.839  -2.162 130.642  0.00  0.00    +0.143 A 
ATOM     10  O   LIG A   1      -6.556  -2.221 129.298  0.00  0.00    -0.454 OA
ATOM     11  C   LIG A   1      -7.049  -1.231 128.483  0.00  0.00    +0.146 A 
ATOM     12  C   LIG A   1      -6.755  -1.341 127.124  0.00  0.00    +0.093 A 
ATOM     13  C   LIG A   1      -7.237  -0.385 126.225  0.00  0.00    +0.130 A 
ATOM     14  C   LIG A   1      -8.032   0.694 126.650  0.00  0.00    +0.068 A 
ATOM     15  C   LIG A   1      -8.287   0.807 128.028  0.00  0.00    +0.141 A 
ATOM     16  C   LIG A   1      -7.803  -0.151 128.934  0.00  0.00    +0.106 A 
ATOM     17  C   LIG A   1      -8.066  -0.050 130.375  0.00  0.00    +0.204 A 
ATOM     18  O   LIG A   1      -8.692   0.902 130.832  0.00  0.00    -0.286 OA
ATOM     19  C   LIG A   1      -7.561  -1.127 131.235  0.00  0.00    +0.068 A 
ATOM     20  C   LIG A   1      -7.808  -1.113 132.610  0.00  0.00    +0.064 A 
ATOM     21  C   LIG A   1      -7.326  -2.160 133.392  0.00  0.00    +0.159 A 
BRANCH   7  22
ATOM     22  O   LIG A   1      -6.155  -4.225 133.593  0.00  0.00    -0.503 OA
ATOM     23  H   LIG A   1      -6.440  -5.076 133.227  0.00  0.00    +0.292 HD
ENDBRANCH   7  22
BRANCH  15  24
ATOM     24  O   LIG A   1      -9.016   1.887 128.463  0.00  0.00    -0.505 OA
ATOM     25  H   LIG A   1      -9.671   1.579 129.129  0.00  0.00    +0.292 HD
ENDBRANCH  15  24
BRANCH  13  26
ATOM     26  O   LIG A   1      -6.910  -0.493 124.900  0.00  0.00    -0.506 OA
ATOM     27  H   LIG A   1      -6.363  -1.284 124.762  0.00  0.00    +0.292 HD
ENDBRANCH  13  26
BRANCH  21  28
ATOM     28  O   LIG A   1      -7.552  -2.176 134.739  0.00  0.00    -0.503 OA
ATOM     29  H   LIG A   1      -7.182  -1.374 135.140  0.00  0.00    +0.292 HD
ENDBRANCH  21  28
ENDBRANCH   1  14
BRANCH   5  30
ATOM     30  O   LIG A   1      -6.601   4.347 123.714  0.00  0.00    -0.385 OA
ATOM     31  H   LIG A   1      -5.907   3.659 123.727  0.00  0.00    +0.210 HD
ENDBRANCH   5  30
BRANCH   4  32
ATOM     32  O   LIG A   1      -8.606   3.631 121.870  0.00  0.00    -0.387 OA
ATOM     33  H   LIG A   1      -9.512   3.419 121.583  0.00  0.00    +0.210 HD
ENDBRANCH   4  32
BRANCH   6  34
ATOM     34  O   LIG A   1      -7.351   3.687 126.569  0.00  0.00    -0.453 OA
BRANCH  34  35
ATOM     35  C   LIG A   1      -6.097   4.070 126.913  0.00  0.00    +0.332 C 
ATOM     36  O   LIG A   1      -5.514   5.077 126.539  0.00  0.00    -0.246 OA
BRANCH  35  37
ATOM     37  C   LIG A   1      -5.480   3.086 127.821  0.00  0.00    +0.092 C 
ATOM     38  C   LIG A   1      -5.672   3.127 129.148  0.00  0.00    +0.015 C 
BRANCH  38  39
ATOM     39  C   LIG A   1      -5.124   2.115 130.040  0.00  0.00    -0.021 A 
ATOM     40  C   LIG A   1      -4.545   0.966 129.487  0.00  0.00    +0.057 A 
ATOM     41  C   LIG A   1      -4.055  -0.019 130.334  0.00  0.00    +0.159 A 
ATOM     42  C   LIG A   1      -4.138   0.137 131.715  0.00  0.00    +0.158 A 
ATOM     43  C   LIG A   1      -4.705   1.275 132.273  0.00  0.00    +0.050 A 
ATOM     44  C   LIG A   1      -5.201   2.272 131.430  0.00  0.00    +0.012 A 
BRANCH  41  45
ATOM     45  O   LIG A   1      -3.486  -1.165 129.852  0.00  0.00    -0.503 OA
ATOM     46  H   LIG A   1      -3.540  -1.844 130.549  0.00  0.00    +0.292 HD
ENDBRANCH  41  45
BRANCH  42  47
ATOM     47  O   LIG A   1      -3.659  -0.841 132.538  0.00  0.00    -0.503 OA
ATOM     48  H   LIG A   1      -4.337  -0.923 133.238  0.00  0.00    +0.292 HD
ENDBRANCH  42  47
ENDBRANCH  38  39
ENDBRANCH  35  37
ENDBRANCH  34  35
ENDBRANCH   6  34
BRANCH   3  49
ATOM     49  C   LIG A   1     -10.144   1.134 122.384  0.00  0.00    +0.190 C 
BRANCH  49  50
ATOM     50  O   LIG A   1     -10.128  -0.244 122.761  0.00  0.00    -0.392 OA
ATOM     51  H   LIG A   1     -10.502  -0.273 123.664  0.00  0.00    +0.209 HD
ENDBRANCH  49  50
ENDBRANCH   3  49
TORSDOF 15
ENDMDL
MODEL 9
REMARK VINA RESULT:      -7.2      2.527      5.413
REMARK  Name = NuBBE_367
REMARK  15 active torsions:
REMARK  status: ('A' for Active; 'I' for Inactive)
REMARK    1  A    between atoms: O_1  and  C_2
REMARK    2  A    between atoms: C_8  and  O_40
REMARK    3  A    between atoms: C_9  and  C_10
REMARK    4  A    between atoms: C_13  and  C_36
REMARK    5  A    between atoms: C_15  and  O_35
REMARK    6  A    between atoms: C_17  and  O_34
REMARK    7  A    between atoms: C_19  and  O_21
REMARK    8  A    between atoms: O_21  and  C_22
REMARK    9  A    between atoms: C_22  and  C_23
REMARK   10  A    between atoms: C_24  and  C_25
REMARK   11  A    between atoms: C_27  and  O_28
REMARK   12  A    between atoms: C_29  and  O_32
REMARK   13  A    between atoms: C_36  and  O_37
REMARK   14  A    between atoms: C_38  and  O_39
REMARK   15  A    between atoms: C_46  and  O_47
REMARK                            x       y       z     vdW  Elec       q    Type
REMARK                         _______ _______ _______ _____ _____    ______ ____
ROOT
ATOM      1  C   LIG A   1      -7.980   2.997 126.666  0.00  0.00    +0.199 C 
ATOM      2  O   LIG A   1      -8.407   2.250 125.514  0.00  0.00    -0.360 OA
ATOM      3  C   LIG A   1      -8.357   3.040 124.314  0.00  0.00    +0.175 C 
ATOM      4  C   LIG A   1      -6.892   3.340 123.991  0.00  0.00    +0.177 C 
ATOM      5  C   LIG A   1      -6.348   4.258 125.092  0.00  0.00    +0.189 C 
ATOM      6  C   LIG A   1      -6.589   3.667 126.492  0.00  0.00    +0.241 C 
ENDROOT
BRANCH   1  14
ATOM      7  C   LIG A   1      -6.718  -3.646 132.446  0.00  0.00    +0.162 A 
ATOM      8  C   LIG A   1      -7.346  -2.400 132.409  0.00  0.00    +0.096 A 
ATOM      9  C   LIG A   1      -7.348  -1.666 131.220  0.00  0.00    +0.143 A 
ATOM     10  O   LIG A   1      -7.989  -0.451 131.247  0.00  0.00    -0.454 OA
ATOM     11  C   LIG A   1      -7.972   0.321 130.110  0.00  0.00    +0.146 A 
ATOM     12  C   LIG A   1      -8.617   1.555 130.188  0.00  0.00    +0.093 A 
ATOM     13  C   LIG A   1      -8.627   2.409 129.080  0.00  0.00    +0.130 A 
ATOM     14  C   LIG A   1      -7.989   2.064 127.875  0.00  0.00    +0.068 A 
ATOM     15  C   LIG A   1      -7.376   0.801 127.806  0.00  0.00    +0.141 A 
ATOM     16  C   LIG A   1      -7.365  -0.060 128.916  0.00  0.00    +0.106 A 
ATOM     17  C   LIG A   1      -6.724  -1.380 128.862  0.00  0.00    +0.204 A 
ATOM     18  O   LIG A   1      -6.207  -1.782 127.824  0.00  0.00    -0.286 OA
ATOM     19  C   LIG A   1      -6.720  -2.184 130.089  0.00  0.00    +0.068 A 
ATOM     20  C   LIG A   1      -6.094  -3.434 130.117  0.00  0.00    +0.064 A 
ATOM     21  C   LIG A   1      -6.098  -4.162 131.303  0.00  0.00    +0.159 A 
BRANCH   7  22
ATOM     22  O   LIG A   1      -6.699  -4.379 133.599  0.00  0.00    -0.503 OA
ATOM     23  H   LIG A   1      -7.268  -3.960 134.263  0.00  0.00    +0.292 HD
ENDBRANCH   7  22
BRANCH  15  24
ATOM     24  O   LIG A   1      -6.797   0.429 126.618  0.00  0.00    -0.505 OA
ATOM     25  H   LIG A   1      -6.010  -0.130 126.810  0.00  0.00    +0.292 HD
ENDBRANCH  15  24
BRANCH  13  26
ATOM     26  O   LIG A   1      -9.294   3.602 129.165  0.00  0.00    -0.506 OA
ATOM     27  H   LIG A   1     -10.153   3.529 128.718  0.00  0.00    +0.292 HD
ENDBRANCH  13  26
BRANCH  21  28
ATOM     28  O   LIG A   1      -5.494  -5.386 131.364  0.00  0.00    -0.503 OA
ATOM     29  H   LIG A   1      -4.743  -5.349 131.977  0.00  0.00    +0.292 HD
ENDBRANCH  21  28
ENDBRANCH   1  14
BRANCH   5  30
ATOM     30  O   LIG A   1      -4.935   4.447 124.875  0.00  0.00    -0.385 OA
ATOM     31  H   LIG A   1      -4.853   4.668 123.926  0.00  0.00    +0.210 HD
ENDBRANCH   5  30
BRANCH   4  32
ATOM     32  O   LIG A   1      -6.713   4.003 122.736  0.00  0.00    -0.387 OA
ATOM     33  H   LIG A   1      -7.318   3.593 122.093  0.00  0.00    +0.210 HD
ENDBRANCH   4  32
BRANCH   6  34
ATOM     34  O   LIG A   1      -6.343   4.635 127.544  0.00  0.00    -0.453 OA
BRANCH  34  35
ATOM     35  C   LIG A   1      -5.082   4.782 128.017  0.00  0.00    +0.332 C 
ATOM     36  O   LIG A   1      -4.360   5.759 127.876  0.00  0.00    -0.246 OA
BRANCH  35  37
ATOM     37  C   LIG A   1      -4.650   3.573 128.741  0.00  0.00    +0.092 C 
ATOM     38  C   LIG A   1      -5.139   3.258 129.950  0.00  0.00    +0.015 C 
BRANCH  38  39
ATOM     39  C   LIG A   1      -4.770   2.028 130.637  0.00  0.00    -0.021 A 
ATOM     40  C   LIG A   1      -4.164   0.999 129.905  0.00  0.00    +0.057 A 
ATOM     41  C   LIG A   1      -3.845  -0.190 130.547  0.00  0.00    +0.159 A 
ATOM     42  C   LIG A   1      -4.122  -0.353 131.901  0.00  0.00    +0.158 A 
ATOM     43  C   LIG A   1      -4.717   0.663 132.637  0.00  0.00    +0.050 A 
ATOM     44  C   LIG A   1      -5.042   1.863 132.001  0.00  0.00    +0.012 A 
BRANCH  41  45
ATOM     45  O   LIG A   1      -3.260  -1.232 129.882  0.00  0.00    -0.503 OA
ATOM     46  H   LIG A   1      -3.903  -1.963 129.843  0.00  0.00    +0.292 HD
ENDBRANCH  41  45
BRANCH  42  47
ATOM     47  O   LIG A   1      -3.809  -1.529 132.520  0.00  0.00    -0.503 OA
ATOM     48  H   LIG A   1      -3.300  -2.028 131.851  0.00  0.00    +0.292 HD
ENDBRANCH  42  47
ENDBRANCH  38  39
ENDBRANCH  35  37
ENDBRANCH  34  35
ENDBRANCH   6  34
BRANCH   3  49
ATOM     49  C   LIG A   1      -9.061   2.238 123.220  0.00  0.00    +0.190 C 
BRANCH  49  50
ATOM     50  O   LIG A   1      -9.131   3.022 122.027  0.00  0.00    -0.392 OA
ATOM     51  H   LIG A   1      -8.489   2.618 121.410  0.00  0.00    +0.209 HD
ENDBRANCH  49  50
ENDBRANCH   3  49
TORSDOF 15
ENDMDL
