MODEL 1
REMARK VINA RESULT:      -7.2      0.000      0.000
REMARK  Name = NuBBE_357
REMARK  11 active torsions:
REMARK  status: ('A' for Active; 'I' for Inactive)
REMARK    1  A    between atoms: O_1  and  C_2
REMARK    2  A    between atoms: C_3  and  C_4
REMARK    3  A    between atoms: C_4  and  C_5
REMARK    4  A    between atoms: C_6  and  C_7
REMARK    5  A    between atoms: C_6  and  C_8
REMARK    6  A    between atoms: C_8  and  C_9
REMARK    7  A    between atoms: C_9  and  C_10
REMARK    8  A    between atoms: C_11  and  C_12
REMARK    9  A    between atoms: C_11  and  C_13
REMARK   10  A    between atoms: C_15  and  C_16
REMARK   11  A    between atoms: C_16  and  O_17
REMARK                            x       y       z     vdW  Elec       q    Type
REMARK                         _______ _______ _______ _____ _____    ______ ____
ROOT
ATOM      1  C   LIG A   1     -11.874   6.575 130.652  0.00  0.00    +0.120 A 
ATOM      2  C   LIG A   1     -10.498   6.599 130.390  0.00  0.00    -0.002 A 
ATOM      3  C   LIG A   1     -10.081   6.798 129.063  0.00  0.00    +0.022 A 
ATOM      4  C   LIG A   1     -11.012   6.958 128.018  0.00  0.00    +0.059 A 
ATOM      5  C   LIG A   1     -12.380   6.917 128.310  0.00  0.00    +0.018 A 
ATOM      6  C   LIG A   1     -12.807   6.725 129.624  0.00  0.00    +0.046 A 
ENDROOT
BRANCH   1   7
ATOM      7  O   LIG A   1     -12.388   6.397 131.904  0.00  0.00    -0.506 OA
ATOM      8  H   LIG A   1     -11.871   6.923 132.536  0.00  0.00    +0.292 HD
ENDBRANCH   1   7
BRANCH   4   9
ATOM      9  C   LIG A   1     -10.579   7.173 126.619  0.00  0.00    +0.337 C 
ATOM     10  O   LIG A   1     -11.006   8.032 125.856  0.00  0.00    -0.245 OA
BRANCH   9  11
ATOM     11  O   LIG A   1      -9.631   6.303 126.236  0.00  0.00    -0.477 OA
ATOM     12  H   LIG A   1      -8.896   6.862 125.913  0.00  0.00    +0.295 HD
ENDBRANCH   9  11
ENDBRANCH   4   9
BRANCH   2  13
ATOM     13  C   LIG A   1      -9.443   6.424 131.463  0.00  0.00    +0.066 C 
BRANCH  13  14
ATOM     14  C   LIG A   1      -8.064   6.814 130.991  0.00  0.00    -0.023 C 
ATOM     15  C   LIG A   1      -6.872   6.557 131.570  0.00  0.00    -0.076 C 
ATOM     16  C   LIG A   1      -6.686   5.759 132.833  0.00  0.00    +0.038 C 
BRANCH  15  17
ATOM     17  C   LIG A   1      -5.573   7.039 130.927  0.00  0.00    +0.034 C 
BRANCH  17  18
ATOM     18  C   LIG A   1      -4.396   6.087 131.180  0.00  0.00    +0.031 C 
BRANCH  18  19
ATOM     19  C   LIG A   1      -4.076   5.207 129.997  0.00  0.00    -0.028 C 
ATOM     20  C   LIG A   1      -3.111   5.385 129.072  0.00  0.00    -0.080 C 
ATOM     21  C   LIG A   1      -2.088   6.486 129.099  0.00  0.00    +0.038 C 
ATOM     22  C   LIG A   1      -2.980   4.451 127.894  0.00  0.00    +0.038 C 
ENDBRANCH  18  19
ENDBRANCH  17  18
ENDBRANCH  15  17
ENDBRANCH  13  14
ENDBRANCH   2  13
TORSDOF 8
ENDMDL
MODEL 2
REMARK VINA RESULT:      -7.1      7.492      9.091
REMARK  Name = NuBBE_357
REMARK  11 active torsions:
REMARK  status: ('A' for Active; 'I' for Inactive)
REMARK    1  A    between atoms: O_1  and  C_2
REMARK    2  A    between atoms: C_3  and  C_4
REMARK    3  A    between atoms: C_4  and  C_5
REMARK    4  A    between atoms: C_6  and  C_7
REMARK    5  A    between atoms: C_6  and  C_8
REMARK    6  A    between atoms: C_8  and  C_9
REMARK    7  A    between atoms: C_9  and  C_10
REMARK    8  A    between atoms: C_11  and  C_12
REMARK    9  A    between atoms: C_11  and  C_13
REMARK   10  A    between atoms: C_15  and  C_16
REMARK   11  A    between atoms: C_16  and  O_17
REMARK                            x       y       z     vdW  Elec       q    Type
REMARK                         _______ _______ _______ _____ _____    ______ ____
ROOT
ATOM      1  C   LIG A   1      -9.581   1.596 123.610  0.00  0.00    +0.120 A 
ATOM      2  C   LIG A   1      -8.815   1.536 124.782  0.00  0.00    -0.002 A 
ATOM      3  C   LIG A   1      -7.610   2.259 124.821  0.00  0.00    +0.022 A 
ATOM      4  C   LIG A   1      -7.173   3.016 123.716  0.00  0.00    +0.059 A 
ATOM      5  C   LIG A   1      -7.956   3.047 122.556  0.00  0.00    +0.018 A 
ATOM      6  C   LIG A   1      -9.155   2.337 122.507  0.00  0.00    +0.046 A 
ENDROOT
BRANCH   1   7
ATOM      7  O   LIG A   1     -10.770   0.941 123.468  0.00  0.00    -0.506 OA
ATOM      8  H   LIG A   1     -11.044   0.590 124.331  0.00  0.00    +0.292 HD
ENDBRANCH   1   7
BRANCH   4   9
ATOM      9  C   LIG A   1      -5.908   3.784 123.753  0.00  0.00    +0.337 C 
ATOM     10  O   LIG A   1      -5.508   4.555 122.889  0.00  0.00    -0.245 OA
BRANCH   9  11
ATOM     11  O   LIG A   1      -5.200   3.552 124.870  0.00  0.00    -0.477 OA
ATOM     12  H   LIG A   1      -4.991   4.441 125.221  0.00  0.00    +0.295 HD
ENDBRANCH   9  11
ENDBRANCH   4   9
BRANCH   2  13
ATOM     13  C   LIG A   1      -9.220   0.735 126.002  0.00  0.00    +0.066 C 
BRANCH  13  14
ATOM     14  C   LIG A   1      -9.293  -0.747 125.726  0.00  0.00    -0.023 C 
ATOM     15  C   LIG A   1      -8.636  -1.752 126.343  0.00  0.00    -0.076 C 
ATOM     16  C   LIG A   1      -7.696  -1.575 127.505  0.00  0.00    +0.038 C 
BRANCH  15  17
ATOM     17  C   LIG A   1      -8.853  -3.203 125.916  0.00  0.00    +0.034 C 
BRANCH  17  18
ATOM     18  C   LIG A   1      -8.486  -3.450 124.446  0.00  0.00    +0.031 C 
BRANCH  18  19
ATOM     19  C   LIG A   1      -7.006  -3.643 124.225  0.00  0.00    -0.028 C 
ATOM     20  C   LIG A   1      -6.127  -2.762 123.706  0.00  0.00    -0.080 C 
ATOM     21  C   LIG A   1      -6.456  -1.347 123.318  0.00  0.00    +0.038 C 
ATOM     22  C   LIG A   1      -4.687  -3.147 123.470  0.00  0.00    +0.038 C 
ENDBRANCH  18  19
ENDBRANCH  17  18
ENDBRANCH  15  17
ENDBRANCH  13  14
ENDBRANCH   2  13
TORSDOF 8
ENDMDL
MODEL 3
REMARK VINA RESULT:      -7.1      1.321      1.935
REMARK  Name = NuBBE_357
REMARK  11 active torsions:
REMARK  status: ('A' for Active; 'I' for Inactive)
REMARK    1  A    between atoms: O_1  and  C_2
REMARK    2  A    between atoms: C_3  and  C_4
REMARK    3  A    between atoms: C_4  and  C_5
REMARK    4  A    between atoms: C_6  and  C_7
REMARK    5  A    between atoms: C_6  and  C_8
REMARK    6  A    between atoms: C_8  and  C_9
REMARK    7  A    between atoms: C_9  and  C_10
REMARK    8  A    between atoms: C_11  and  C_12
REMARK    9  A    between atoms: C_11  and  C_13
REMARK   10  A    between atoms: C_15  and  C_16
REMARK   11  A    between atoms: C_16  and  O_17
REMARK                            x       y       z     vdW  Elec       q    Type
REMARK                         _______ _______ _______ _____ _____    ______ ____
ROOT
ATOM      1  C   LIG A   1     -10.255   6.041 132.086  0.00  0.00    +0.120 A 
ATOM      2  C   LIG A   1      -9.109   6.450 131.393  0.00  0.00    -0.002 A 
ATOM      3  C   LIG A   1      -9.274   7.010 130.115  0.00  0.00    +0.022 A 
ATOM      4  C   LIG A   1     -10.550   7.149 129.535  0.00  0.00    +0.059 A 
ATOM      5  C   LIG A   1     -11.675   6.720 130.248  0.00  0.00    +0.018 A 
ATOM      6  C   LIG A   1     -11.525   6.168 131.519  0.00  0.00    +0.046 A 
ENDROOT
BRANCH   1   7
ATOM      7  O   LIG A   1     -10.210   5.494 133.336  0.00  0.00    -0.506 OA
ATOM      8  H   LIG A   1     -11.041   5.691 133.799  0.00  0.00    +0.292 HD
ENDBRANCH   1   7
BRANCH   4   9
ATOM      9  C   LIG A   1     -10.731   7.742 128.190  0.00  0.00    +0.337 C 
ATOM     10  O   LIG A   1     -10.423   8.881 127.858  0.00  0.00    -0.245 OA
BRANCH   9  11
ATOM     11  O   LIG A   1     -11.289   6.884 127.322  0.00  0.00    -0.477 OA
ATOM     12  H   LIG A   1     -11.367   6.044 127.818  0.00  0.00    +0.295 HD
ENDBRANCH   9  11
ENDBRANCH   4   9
BRANCH   2  13
ATOM     13  C   LIG A   1      -7.707   6.321 131.953  0.00  0.00    +0.066 C 
BRANCH  13  14
ATOM     14  C   LIG A   1      -6.659   6.901 131.035  0.00  0.00    -0.023 C 
ATOM     15  C   LIG A   1      -5.322   6.953 131.210  0.00  0.00    -0.076 C 
ATOM     16  C   LIG A   1      -4.588   6.377 132.391  0.00  0.00    +0.038 C 
BRANCH  15  17
ATOM     17  C   LIG A   1      -4.421   7.584 130.150  0.00  0.00    +0.034 C 
BRANCH  17  18
ATOM     18  C   LIG A   1      -3.001   7.001 130.154  0.00  0.00    +0.031 C 
BRANCH  18  19
ATOM     19  C   LIG A   1      -2.690   6.180 128.927  0.00  0.00    -0.028 C 
ATOM     20  C   LIG A   1      -2.915   4.865 128.734  0.00  0.00    -0.080 C 
ATOM     21  C   LIG A   1      -3.620   3.962 129.708  0.00  0.00    +0.038 C 
ATOM     22  C   LIG A   1      -2.461   4.174 127.472  0.00  0.00    +0.038 C 
ENDBRANCH  18  19
ENDBRANCH  17  18
ENDBRANCH  15  17
ENDBRANCH  13  14
ENDBRANCH   2  13
TORSDOF 8
ENDMDL
MODEL 4
REMARK VINA RESULT:      -7.0      7.354      9.282
REMARK  Name = NuBBE_357
REMARK  11 active torsions:
REMARK  status: ('A' for Active; 'I' for Inactive)
REMARK    1  A    between atoms: O_1  and  C_2
REMARK    2  A    between atoms: C_3  and  C_4
REMARK    3  A    between atoms: C_4  and  C_5
REMARK    4  A    between atoms: C_6  and  C_7
REMARK    5  A    between atoms: C_6  and  C_8
REMARK    6  A    between atoms: C_8  and  C_9
REMARK    7  A    between atoms: C_9  and  C_10
REMARK    8  A    between atoms: C_11  and  C_12
REMARK    9  A    between atoms: C_11  and  C_13
REMARK   10  A    between atoms: C_15  and  C_16
REMARK   11  A    between atoms: C_16  and  O_17
REMARK                            x       y       z     vdW  Elec       q    Type
REMARK                         _______ _______ _______ _____ _____    ______ ____
ROOT
ATOM      1  C   LIG A   1      -7.932   3.218 125.002  0.00  0.00    +0.120 A 
ATOM      2  C   LIG A   1      -8.315   2.725 123.748  0.00  0.00    -0.002 A 
ATOM      3  C   LIG A   1      -7.475   2.983 122.651  0.00  0.00    +0.022 A 
ATOM      4  C   LIG A   1      -6.285   3.723 122.798  0.00  0.00    +0.059 A 
ATOM      5  C   LIG A   1      -5.936   4.212 124.062  0.00  0.00    +0.018 A 
ATOM      6  C   LIG A   1      -6.759   3.959 125.158  0.00  0.00    +0.046 A 
ENDROOT
BRANCH   1   7
ATOM      7  O   LIG A   1      -8.668   3.018 126.134  0.00  0.00    -0.506 OA
ATOM      8  H   LIG A   1      -8.221   3.444 126.883  0.00  0.00    +0.292 HD
ENDBRANCH   1   7
BRANCH   4   9
ATOM      9  C   LIG A   1      -5.393   3.995 121.648  0.00  0.00    +0.337 C 
ATOM     10  O   LIG A   1      -5.209   3.254 120.689  0.00  0.00    -0.245 OA
BRANCH   9  11
ATOM     11  O   LIG A   1      -4.771   5.180 121.749  0.00  0.00    -0.477 OA
ATOM     12  H   LIG A   1      -5.265   5.772 121.147  0.00  0.00    +0.295 HD
ENDBRANCH   9  11
ENDBRANCH   4   9
BRANCH   2  13
ATOM     13  C   LIG A   1      -9.584   1.931 123.518  0.00  0.00    +0.066 C 
BRANCH  13  14
ATOM     14  C   LIG A   1      -9.311   0.490 123.161  0.00  0.00    -0.023 C 
ATOM     15  C   LIG A   1      -9.048  -0.547 123.986  0.00  0.00    -0.076 C 
ATOM     16  C   LIG A   1      -9.018  -0.460 125.489  0.00  0.00    +0.038 C 
BRANCH  15  17
ATOM     17  C   LIG A   1      -8.801  -1.946 123.425  0.00  0.00    +0.034 C 
BRANCH  17  18
ATOM     18  C   LIG A   1      -8.348  -2.944 124.500  0.00  0.00    +0.031 C 
BRANCH  18  19
ATOM     19  C   LIG A   1      -7.049  -3.634 124.162  0.00  0.00    -0.028 C 
ATOM     20  C   LIG A   1      -5.802  -3.125 124.227  0.00  0.00    -0.080 C 
ATOM     21  C   LIG A   1      -5.459  -1.756 124.745  0.00  0.00    +0.038 C 
ATOM     22  C   LIG A   1      -4.609  -3.927 123.766  0.00  0.00    +0.038 C 
ENDBRANCH  18  19
ENDBRANCH  17  18
ENDBRANCH  15  17
ENDBRANCH  13  14
ENDBRANCH   2  13
TORSDOF 8
ENDMDL
MODEL 5
REMARK VINA RESULT:      -7.0      3.177      3.763
REMARK  Name = NuBBE_357
REMARK  11 active torsions:
REMARK  status: ('A' for Active; 'I' for Inactive)
REMARK    1  A    between atoms: O_1  and  C_2
REMARK    2  A    between atoms: C_3  and  C_4
REMARK    3  A    between atoms: C_4  and  C_5
REMARK    4  A    between atoms: C_6  and  C_7
REMARK    5  A    between atoms: C_6  and  C_8
REMARK    6  A    between atoms: C_8  and  C_9
REMARK    7  A    between atoms: C_9  and  C_10
REMARK    8  A    between atoms: C_11  and  C_12
REMARK    9  A    between atoms: C_11  and  C_13
REMARK   10  A    between atoms: C_15  and  C_16
REMARK   11  A    between atoms: C_16  and  O_17
REMARK                            x       y       z     vdW  Elec       q    Type
REMARK                         _______ _______ _______ _____ _____    ______ ____
ROOT
ATOM      1  C   LIG A   1     -12.167   6.968 130.584  0.00  0.00    +0.120 A 
ATOM      2  C   LIG A   1     -10.788   6.793 130.403  0.00  0.00    -0.002 A 
ATOM      3  C   LIG A   1     -10.279   6.869 129.095  0.00  0.00    +0.022 A 
ATOM      4  C   LIG A   1     -11.124   7.101 127.992  0.00  0.00    +0.059 A 
ATOM      5  C   LIG A   1     -12.499   7.260 128.205  0.00  0.00    +0.018 A 
ATOM      6  C   LIG A   1     -13.015   7.192 129.498  0.00  0.00    +0.046 A 
ENDROOT
BRANCH   1   7
ATOM      7  O   LIG A   1     -12.764   6.923 131.811  0.00  0.00    -0.506 OA
ATOM      8  H   LIG A   1     -12.078   6.873 132.496  0.00  0.00    +0.292 HD
ENDBRANCH   1   7
BRANCH   4   9
ATOM      9  C   LIG A   1     -10.594   7.187 126.612  0.00  0.00    +0.337 C 
ATOM     10  O   LIG A   1     -10.943   7.989 125.754  0.00  0.00    -0.245 OA
BRANCH   9  11
ATOM     11  O   LIG A   1      -9.650   6.264 126.368  0.00  0.00    -0.477 OA
ATOM     12  H   LIG A   1      -9.679   5.667 127.142  0.00  0.00    +0.295 HD
ENDBRANCH   9  11
ENDBRANCH   4   9
BRANCH   2  13
ATOM     13  C   LIG A   1      -9.825   6.531 131.542  0.00  0.00    +0.066 C 
BRANCH  13  14
ATOM     14  C   LIG A   1      -9.890   5.108 132.041  0.00  0.00    -0.023 C 
ATOM     15  C   LIG A   1      -9.025   4.459 132.849  0.00  0.00    -0.076 C 
ATOM     16  C   LIG A   1      -7.798   5.077 133.465  0.00  0.00    +0.038 C 
BRANCH  15  17
ATOM     17  C   LIG A   1      -9.272   3.005 133.248  0.00  0.00    +0.034 C 
BRANCH  17  18
ATOM     18  C   LIG A   1      -9.953   2.192 132.138  0.00  0.00    +0.031 C 
BRANCH  18  19
ATOM     19  C   LIG A   1      -8.985   1.371 131.322  0.00  0.00    -0.028 C 
ATOM     20  C   LIG A   1      -8.487   1.653 130.102  0.00  0.00    -0.080 C 
ATOM     21  C   LIG A   1      -8.746   2.924 129.341  0.00  0.00    +0.038 C 
ATOM     22  C   LIG A   1      -7.591   0.675 129.381  0.00  0.00    +0.038 C 
ENDBRANCH  18  19
ENDBRANCH  17  18
ENDBRANCH  15  17
ENDBRANCH  13  14
ENDBRANCH   2  13
TORSDOF 8
ENDMDL
MODEL 6
REMARK VINA RESULT:      -6.9      8.446     10.555
REMARK  Name = NuBBE_357
REMARK  11 active torsions:
REMARK  status: ('A' for Active; 'I' for Inactive)
REMARK    1  A    between atoms: O_1  and  C_2
REMARK    2  A    between atoms: C_3  and  C_4
REMARK    3  A    between atoms: C_4  and  C_5
REMARK    4  A    between atoms: C_6  and  C_7
REMARK    5  A    between atoms: C_6  and  C_8
REMARK    6  A    between atoms: C_8  and  C_9
REMARK    7  A    between atoms: C_9  and  C_10
REMARK    8  A    between atoms: C_11  and  C_12
REMARK    9  A    between atoms: C_11  and  C_13
REMARK   10  A    between atoms: C_15  and  C_16
REMARK   11  A    between atoms: C_16  and  O_17
REMARK                            x       y       z     vdW  Elec       q    Type
REMARK                         _______ _______ _______ _____ _____    ______ ____
ROOT
ATOM      1  C   LIG A   1      -8.539  -2.163 125.234  0.00  0.00    +0.120 A 
ATOM      2  C   LIG A   1      -7.382  -1.375 125.166  0.00  0.00    -0.002 A 
ATOM      3  C   LIG A   1      -6.205  -1.970 124.680  0.00  0.00    +0.022 A 
ATOM      4  C   LIG A   1      -6.178  -3.321 124.280  0.00  0.00    +0.059 A 
ATOM      5  C   LIG A   1      -7.347  -4.084 124.371  0.00  0.00    +0.018 A 
ATOM      6  C   LIG A   1      -8.522  -3.504 124.847  0.00  0.00    +0.046 A 
ENDROOT
BRANCH   1   7
ATOM      7  O   LIG A   1      -9.737  -1.684 125.681  0.00  0.00    -0.506 OA
ATOM      8  H   LIG A   1      -9.721  -0.714 125.651  0.00  0.00    +0.292 HD
ENDBRANCH   1   7
BRANCH   4   9
ATOM      9  C   LIG A   1      -4.942  -3.952 123.763  0.00  0.00    +0.337 C 
ATOM     10  O   LIG A   1      -4.710  -5.154 123.722  0.00  0.00    -0.245 OA
BRANCH   9  11
ATOM     11  O   LIG A   1      -4.052  -3.050 123.319  0.00  0.00    -0.477 OA
ATOM     12  H   LIG A   1      -3.773  -3.386 122.444  0.00  0.00    +0.295 HD
ENDBRANCH   9  11
ENDBRANCH   4   9
BRANCH   2  13
ATOM     13  C   LIG A   1      -7.339   0.078 125.588  0.00  0.00    +0.066 C 
BRANCH  13  14
ATOM     14  C   LIG A   1      -7.331   1.025 124.413  0.00  0.00    -0.023 C 
ATOM     15  C   LIG A   1      -8.361   1.721 123.885  0.00  0.00    -0.076 C 
ATOM     16  C   LIG A   1      -9.767   1.713 124.423  0.00  0.00    +0.038 C 
BRANCH  15  17
ATOM     17  C   LIG A   1      -8.146   2.640 122.684  0.00  0.00    +0.034 C 
BRANCH  17  18
ATOM     18  C   LIG A   1      -6.669   2.759 122.284  0.00  0.00    +0.031 C 
BRANCH  18  19
ATOM     19  C   LIG A   1      -6.453   3.581 121.037  0.00  0.00    -0.028 C 
ATOM     20  C   LIG A   1      -5.492   4.499 120.809  0.00  0.00    -0.080 C 
ATOM     21  C   LIG A   1      -4.371   4.822 121.756  0.00  0.00    +0.038 C 
ATOM     22  C   LIG A   1      -5.470   5.302 119.531  0.00  0.00    +0.038 C 
ENDBRANCH  18  19
ENDBRANCH  17  18
ENDBRANCH  15  17
ENDBRANCH  13  14
ENDBRANCH   2  13
TORSDOF 8
ENDMDL
MODEL 7
REMARK VINA RESULT:      -6.8      9.580     11.551
REMARK  Name = NuBBE_357
REMARK  11 active torsions:
REMARK  status: ('A' for Active; 'I' for Inactive)
REMARK    1  A    between atoms: O_1  and  C_2
REMARK    2  A    between atoms: C_3  and  C_4
REMARK    3  A    between atoms: C_4  and  C_5
REMARK    4  A    between atoms: C_6  and  C_7
REMARK    5  A    between atoms: C_6  and  C_8
REMARK    6  A    between atoms: C_8  and  C_9
REMARK    7  A    between atoms: C_9  and  C_10
REMARK    8  A    between atoms: C_11  and  C_12
REMARK    9  A    between atoms: C_11  and  C_13
REMARK   10  A    between atoms: C_15  and  C_16
REMARK   11  A    between atoms: C_16  and  O_17
REMARK                            x       y       z     vdW  Elec       q    Type
REMARK                         _______ _______ _______ _____ _____    ______ ____
ROOT
ATOM      1  C   LIG A   1      -7.365  -1.825 123.589  0.00  0.00    +0.120 A 
ATOM      2  C   LIG A   1      -7.381  -2.923 124.460  0.00  0.00    -0.002 A 
ATOM      3  C   LIG A   1      -6.312  -3.833 124.395  0.00  0.00    +0.022 A 
ATOM      4  C   LIG A   1      -5.257  -3.660 123.477  0.00  0.00    +0.059 A 
ATOM      5  C   LIG A   1      -5.276  -2.560 122.612  0.00  0.00    +0.018 A 
ATOM      6  C   LIG A   1      -6.329  -1.647 122.670  0.00  0.00    +0.046 A 
ENDROOT
BRANCH   1   7
ATOM      7  O   LIG A   1      -8.348  -0.877 123.574  0.00  0.00    -0.506 OA
ATOM      8  H   LIG A   1      -8.825  -0.930 122.730  0.00  0.00    +0.292 HD
ENDBRANCH   1   7
BRANCH   4   9
ATOM      9  C   LIG A   1      -4.125  -4.612 123.407  0.00  0.00    +0.337 C 
ATOM     10  O   LIG A   1      -2.947  -4.348 123.617  0.00  0.00    -0.245 OA
BRANCH   9  11
ATOM     11  O   LIG A   1      -4.518  -5.853 123.077  0.00  0.00    -0.477 OA
ATOM     12  H   LIG A   1      -5.163  -5.725 122.353  0.00  0.00    +0.295 HD
ENDBRANCH   9  11
ENDBRANCH   4   9
BRANCH   2  13
ATOM     13  C   LIG A   1      -8.487  -3.175 125.463  0.00  0.00    +0.066 C 
BRANCH  13  14
ATOM     14  C   LIG A   1      -8.284  -2.419 126.753  0.00  0.00    -0.023 C 
ATOM     15  C   LIG A   1      -8.502  -2.838 128.018  0.00  0.00    -0.076 C 
ATOM     16  C   LIG A   1      -8.971  -4.218 128.395  0.00  0.00    +0.038 C 
BRANCH  15  17
ATOM     17  C   LIG A   1      -8.227  -1.915 129.204  0.00  0.00    +0.034 C 
BRANCH  17  18
ATOM     18  C   LIG A   1      -7.301  -2.551 130.250  0.00  0.00    +0.031 C 
BRANCH  18  19
ATOM     19  C   LIG A   1      -5.883  -2.724 129.763  0.00  0.00    -0.028 C 
ATOM     20  C   LIG A   1      -5.072  -3.785 129.944  0.00  0.00    -0.080 C 
ATOM     21  C   LIG A   1      -5.474  -5.070 130.613  0.00  0.00    +0.038 C 
ATOM     22  C   LIG A   1      -3.641  -3.762 129.465  0.00  0.00    +0.038 C 
ENDBRANCH  18  19
ENDBRANCH  17  18
ENDBRANCH  15  17
ENDBRANCH  13  14
ENDBRANCH   2  13
TORSDOF 8
ENDMDL
MODEL 8
REMARK VINA RESULT:      -6.8      7.461      9.403
REMARK  Name = NuBBE_357
REMARK  11 active torsions:
REMARK  status: ('A' for Active; 'I' for Inactive)
REMARK    1  A    between atoms: O_1  and  C_2
REMARK    2  A    between atoms: C_3  and  C_4
REMARK    3  A    between atoms: C_4  and  C_5
REMARK    4  A    between atoms: C_6  and  C_7
REMARK    5  A    between atoms: C_6  and  C_8
REMARK    6  A    between atoms: C_8  and  C_9
REMARK    7  A    between atoms: C_9  and  C_10
REMARK    8  A    between atoms: C_11  and  C_12
REMARK    9  A    between atoms: C_11  and  C_13
REMARK   10  A    between atoms: C_15  and  C_16
REMARK   11  A    between atoms: C_16  and  O_17
REMARK                            x       y       z     vdW  Elec       q    Type
REMARK                         _______ _______ _______ _____ _____    ______ ____
ROOT
ATOM      1  C   LIG A   1      -8.602   2.636 123.090  0.00  0.00    +0.120 A 
ATOM      2  C   LIG A   1      -7.392   2.697 123.794  0.00  0.00    -0.002 A 
ATOM      3  C   LIG A   1      -6.288   3.295 123.162  0.00  0.00    +0.022 A 
ATOM      4  C   LIG A   1      -6.384   3.810 121.854  0.00  0.00    +0.059 A 
ATOM      5  C   LIG A   1      -7.603   3.724 121.172  0.00  0.00    +0.018 A 
ATOM      6  C   LIG A   1      -8.706   3.137 121.791  0.00  0.00    +0.046 A 
ENDROOT
BRANCH   1   7
ATOM      7  O   LIG A   1      -9.737   2.086 123.612  0.00  0.00    -0.506 OA
ATOM      8  H   LIG A   1     -10.238   2.775 124.077  0.00  0.00    +0.292 HD
ENDBRANCH   1   7
BRANCH   4   9
ATOM      9  C   LIG A   1      -5.226   4.445 121.184  0.00  0.00    +0.337 C 
ATOM     10  O   LIG A   1      -4.165   4.751 121.716  0.00  0.00    -0.245 OA
BRANCH   9  11
ATOM     11  O   LIG A   1      -5.448   4.669 119.879  0.00  0.00    -0.477 OA
ATOM     12  H   LIG A   1      -6.296   4.220 119.690  0.00  0.00    +0.295 HD
ENDBRANCH   9  11
ENDBRANCH   4   9
BRANCH   2  13
ATOM     13  C   LIG A   1      -7.218   2.154 125.197  0.00  0.00    +0.066 C 
BRANCH  13  14
ATOM     14  C   LIG A   1      -6.488   0.834 125.223  0.00  0.00    -0.023 C 
ATOM     15  C   LIG A   1      -6.838  -0.310 125.849  0.00  0.00    -0.076 C 
ATOM     16  C   LIG A   1      -8.103  -0.500 126.643  0.00  0.00    +0.038 C 
BRANCH  15  17
ATOM     17  C   LIG A   1      -5.958  -1.555 125.749  0.00  0.00    +0.034 C 
BRANCH  17  18
ATOM     18  C   LIG A   1      -6.019  -2.214 124.364  0.00  0.00    +0.031 C 
BRANCH  18  19
ATOM     19  C   LIG A   1      -7.279  -3.013 124.138  0.00  0.00    -0.028 C 
ATOM     20  C   LIG A   1      -8.415  -2.610 123.535  0.00  0.00    -0.080 C 
ATOM     21  C   LIG A   1      -8.612  -1.272 122.878  0.00  0.00    +0.038 C 
ATOM     22  C   LIG A   1      -9.623  -3.512 123.469  0.00  0.00    +0.038 C 
ENDBRANCH  18  19
ENDBRANCH  17  18
ENDBRANCH  15  17
ENDBRANCH  13  14
ENDBRANCH   2  13
TORSDOF 8
ENDMDL
MODEL 9
REMARK VINA RESULT:      -6.7      2.531      4.002
REMARK  Name = NuBBE_357
REMARK  11 active torsions:
REMARK  status: ('A' for Active; 'I' for Inactive)
REMARK    1  A    between atoms: O_1  and  C_2
REMARK    2  A    between atoms: C_3  and  C_4
REMARK    3  A    between atoms: C_4  and  C_5
REMARK    4  A    between atoms: C_6  and  C_7
REMARK    5  A    between atoms: C_6  and  C_8
REMARK    6  A    between atoms: C_8  and  C_9
REMARK    7  A    between atoms: C_9  and  C_10
REMARK    8  A    between atoms: C_11  and  C_12
REMARK    9  A    between atoms: C_11  and  C_13
REMARK   10  A    between atoms: C_15  and  C_16
REMARK   11  A    between atoms: C_16  and  O_17
REMARK                            x       y       z     vdW  Elec       q    Type
REMARK                         _______ _______ _______ _____ _____    ______ ____
ROOT
ATOM      1  C   LIG A   1     -10.082   6.450 132.023  0.00  0.00    +0.120 A 
ATOM      2  C   LIG A   1      -9.209   6.829 130.995  0.00  0.00    -0.002 A 
ATOM      3  C   LIG A   1      -9.763   7.182 129.753  0.00  0.00    +0.022 A 
ATOM      4  C   LIG A   1     -11.155   7.147 129.535  0.00  0.00    +0.059 A 
ATOM      5  C   LIG A   1     -12.000   6.753 130.578  0.00  0.00    +0.018 A 
ATOM      6  C   LIG A   1     -11.463   6.406 131.817  0.00  0.00    +0.046 A 
ENDROOT
BRANCH   1   7
ATOM      7  O   LIG A   1      -9.652   6.097 133.269  0.00  0.00    -0.506 OA
ATOM      8  H   LIG A   1      -9.090   5.308 133.199  0.00  0.00    +0.292 HD
ENDBRANCH   1   7
BRANCH   4   9
ATOM      9  C   LIG A   1     -11.746   7.522 128.230  0.00  0.00    +0.337 C 
ATOM     10  O   LIG A   1     -12.092   6.747 127.347  0.00  0.00    -0.245 OA
BRANCH   9  11
ATOM     11  O   LIG A   1     -11.877   8.851 128.089  0.00  0.00    -0.477 OA
ATOM     12  H   LIG A   1     -11.233   9.092 127.393  0.00  0.00    +0.295 HD
ENDBRANCH   9  11
ENDBRANCH   4   9
BRANCH   2  13
ATOM     13  C   LIG A   1      -7.704   6.878 131.157  0.00  0.00    +0.066 C 
BRANCH  13  14
ATOM     14  C   LIG A   1      -7.024   5.627 130.658  0.00  0.00    -0.023 C 
ATOM     15  C   LIG A   1      -6.401   4.665 131.371  0.00  0.00    -0.076 C 
ATOM     16  C   LIG A   1      -6.300   4.640 132.873  0.00  0.00    +0.038 C 
BRANCH  15  17
ATOM     17  C   LIG A   1      -5.773   3.460 130.672  0.00  0.00    +0.034 C 
BRANCH  17  18
ATOM     18  C   LIG A   1      -6.802   2.608 129.917  0.00  0.00    +0.031 C 
BRANCH  18  19
ATOM     19  C   LIG A   1      -7.801   1.934 130.826  0.00  0.00    -0.028 C 
ATOM     20  C   LIG A   1      -9.108   2.228 130.979  0.00  0.00    -0.080 C 
ATOM     21  C   LIG A   1      -9.855   3.261 130.183  0.00  0.00    +0.038 C 
ATOM     22  C   LIG A   1      -9.952   1.509 132.002  0.00  0.00    +0.038 C 
ENDBRANCH  18  19
ENDBRANCH  17  18
ENDBRANCH  15  17
ENDBRANCH  13  14
ENDBRANCH   2  13
TORSDOF 8
ENDMDL
