MODEL 1
REMARK VINA RESULT:      -7.9      0.000      0.000
REMARK  Name = NuBBE_1212
REMARK  11 active torsions:
REMARK  status: ('A' for Active; 'I' for Inactive)
REMARK    1  A    between atoms: O_1  and  C_2
REMARK    2  A    between atoms: C_7  and  C_8
REMARK    3  A    between atoms: C_16  and  C_17
REMARK    4  A    between atoms: C_21  and  C_23
REMARK    5  A    between atoms: C_23  and  C_25
REMARK    6  A    between atoms: C_23  and  C_32
REMARK    7  A    between atoms: C_25  and  C_26
REMARK    8  A    between atoms: C_26  and  C_27
REMARK    9  A    between atoms: C_27  and  C_28
REMARK   10  A    between atoms: C_28  and  C_29
REMARK   11  A    between atoms: C_28  and  C_30
REMARK                            x       y       z     vdW  Elec       q    Type
REMARK                         _______ _______ _______ _____ _____    ______ ____
ROOT
ATOM      1  C   LIG A   1      -7.036  -3.290 132.633  0.00  0.00    +0.119 C 
ATOM      2  C   LIG A   1      -6.397  -3.623 131.284  0.00  0.00    +0.062 C 
ATOM      3  C   LIG A   1      -7.113  -1.784 132.882  0.00  0.00    +0.032 C 
ATOM      4  C   LIG A   1      -7.785  -1.039 131.730  0.00  0.00    +0.013 C 
ATOM      5  C   LIG A   1      -7.119  -1.309 130.362  0.00  0.00    -0.008 C 
ATOM      6  C   LIG A   1      -5.675  -0.728 130.359  0.00  0.00    +0.016 C 
ATOM      7  C   LIG A   1      -7.035  -2.847 130.163  0.00  0.00    -0.065 C 
ATOM      8  C   LIG A   1      -7.485  -3.486 129.063  0.00  0.00    -0.027 C 
ATOM      9  C   LIG A   1      -8.018  -2.764 127.877  0.00  0.00    +0.031 C 
ATOM     10  C   LIG A   1      -7.589  -1.294 127.926  0.00  0.00    +0.000 C 
ATOM     11  C   LIG A   1      -8.012  -0.646 129.236  0.00  0.00    +0.003 C 
ATOM     12  C   LIG A   1      -8.040   0.908 129.219  0.00  0.00    +0.005 C 
ATOM     13  C   LIG A   1      -8.329   1.589 127.856  0.00  0.00    +0.007 C 
ATOM     14  C   LIG A   1      -7.568   0.922 126.663  0.00  0.00    -0.026 C 
ATOM     15  C   LIG A   1      -6.070   1.181 126.868  0.00  0.00    +0.012 C 
ATOM     16  C   LIG A   1      -7.978  -0.548 126.692  0.00  0.00    -0.001 C 
ATOM     17  C   LIG A   1      -9.411  -0.581 126.163  0.00  0.00    +0.004 C 
ATOM     18  C   LIG A   1      -9.517   0.660 125.253  0.00  0.00    +0.004 C 
ATOM     19  C   LIG A   1      -8.101   1.312 125.234  0.00  0.00    -0.002 C 
ENDROOT
BRANCH   1  20
ATOM     20  O   LIG A   1      -6.270  -3.879 133.683  0.00  0.00    -0.392 OA
ATOM     21  H   LIG A   1      -6.711  -4.707 133.936  0.00  0.00    +0.210 HD
ENDBRANCH   1  20
BRANCH  19  22
ATOM     22  C   LIG A   1      -7.301   0.859 123.906  0.00  0.00    -0.010 C 
ATOM     23  C   LIG A   1      -6.877   1.995 122.951  0.00  0.00    +0.008 C 
BRANCH  22  24
ATOM     24  C   LIG A   1      -7.953  -0.288 123.072  0.00  0.00    +0.008 C 
BRANCH  24  25
ATOM     25  C   LIG A   1      -6.997  -1.491 122.809  0.00  0.00    +0.030 C 
BRANCH  25  26
ATOM     26  C   LIG A   1      -7.115  -2.665 123.797  0.00  0.00    -0.074 C 
ATOM     27  C   LIG A   1      -8.287  -3.238 124.001  0.00  0.00    +0.008 C 
BRANCH  26  28
ATOM     28  C   LIG A   1      -5.850  -3.088 124.576  0.00  0.00    +0.008 C 
ATOM     29  C   LIG A   1      -4.841  -3.946 123.777  0.00  0.00    +0.012 C 
ATOM     30  C   LIG A   1      -5.119  -1.831 125.040  0.00  0.00    +0.012 C 
ENDBRANCH  26  28
ENDBRANCH  25  26
ENDBRANCH  24  25
ENDBRANCH  22  24
ENDBRANCH  19  22
TORSDOF 6
ENDMDL
MODEL 2
REMARK VINA RESULT:      -7.7      7.508     10.295
REMARK  Name = NuBBE_1212
REMARK  11 active torsions:
REMARK  status: ('A' for Active; 'I' for Inactive)
REMARK    1  A    between atoms: O_1  and  C_2
REMARK    2  A    between atoms: C_7  and  C_8
REMARK    3  A    between atoms: C_16  and  C_17
REMARK    4  A    between atoms: C_21  and  C_23
REMARK    5  A    between atoms: C_23  and  C_25
REMARK    6  A    between atoms: C_23  and  C_32
REMARK    7  A    between atoms: C_25  and  C_26
REMARK    8  A    between atoms: C_26  and  C_27
REMARK    9  A    between atoms: C_27  and  C_28
REMARK   10  A    between atoms: C_28  and  C_29
REMARK   11  A    between atoms: C_28  and  C_30
REMARK                            x       y       z     vdW  Elec       q    Type
REMARK                         _______ _______ _______ _____ _____    ______ ____
ROOT
ATOM      1  C   LIG A   1     -11.780   7.838 129.949  0.00  0.00    +0.119 C 
ATOM      2  C   LIG A   1     -10.472   7.360 129.317  0.00  0.00    +0.062 C 
ATOM      3  C   LIG A   1     -12.343   6.829 130.950  0.00  0.00    +0.032 C 
ATOM      4  C   LIG A   1     -11.313   6.420 132.003  0.00  0.00    +0.013 C 
ATOM      5  C   LIG A   1     -10.004   5.874 131.391  0.00  0.00    -0.008 C 
ATOM      6  C   LIG A   1     -10.291   4.538 130.645  0.00  0.00    +0.016 C 
ATOM      7  C   LIG A   1      -9.483   6.915 130.362  0.00  0.00    -0.065 C 
ATOM      8  C   LIG A   1      -8.227   7.405 130.362  0.00  0.00    -0.027 C 
ATOM      9  C   LIG A   1      -7.175   6.918 131.296  0.00  0.00    +0.031 C 
ATOM     10  C   LIG A   1      -7.593   5.571 131.893  0.00  0.00    +0.000 C 
ATOM     11  C   LIG A   1      -8.957   5.671 132.561  0.00  0.00    +0.003 C 
ATOM     12  C   LIG A   1      -9.277   4.531 133.568  0.00  0.00    +0.005 C 
ATOM     13  C   LIG A   1      -8.073   3.880 134.296  0.00  0.00    +0.007 C 
ATOM     14  C   LIG A   1      -6.857   3.611 133.350  0.00  0.00    -0.026 C 
ATOM     15  C   LIG A   1      -7.281   2.530 132.347  0.00  0.00    +0.012 C 
ATOM     16  C   LIG A   1      -6.516   4.965 132.733  0.00  0.00    -0.001 C 
ATOM     17  C   LIG A   1      -5.835   5.759 133.846  0.00  0.00    +0.004 C 
ATOM     18  C   LIG A   1      -5.213   4.686 134.763  0.00  0.00    +0.004 C 
ATOM     19  C   LIG A   1      -5.497   3.311 134.085  0.00  0.00    -0.002 C 
ENDROOT
BRANCH   1  20
ATOM     20  O   LIG A   1     -12.755   8.047 128.929  0.00  0.00    -0.392 OA
ATOM     21  H   LIG A   1     -12.280   8.143 128.087  0.00  0.00    +0.210 HD
ENDBRANCH   1  20
BRANCH  19  22
ATOM     22  C   LIG A   1      -4.202   2.827 133.251  0.00  0.00    -0.010 C 
ATOM     23  C   LIG A   1      -3.895   1.315 133.296  0.00  0.00    +0.008 C 
BRANCH  22  24
ATOM     24  C   LIG A   1      -2.882   3.620 133.514  0.00  0.00    +0.008 C 
BRANCH  24  25
ATOM     25  C   LIG A   1      -2.205   4.156 132.217  0.00  0.00    +0.030 C 
BRANCH  25  26
ATOM     26  C   LIG A   1      -2.948   5.296 131.499  0.00  0.00    -0.074 C 
ATOM     27  C   LIG A   1      -3.604   5.053 130.380  0.00  0.00    +0.008 C 
BRANCH  26  28
ATOM     28  C   LIG A   1      -2.836   6.720 132.090  0.00  0.00    +0.008 C 
ATOM     29  C   LIG A   1      -1.393   7.232 132.304  0.00  0.00    +0.012 C 
ATOM     30  C   LIG A   1      -3.534   7.696 131.146  0.00  0.00    +0.012 C 
ENDBRANCH  26  28
ENDBRANCH  25  26
ENDBRANCH  24  25
ENDBRANCH  22  24
ENDBRANCH  19  22
TORSDOF 6
ENDMDL
MODEL 3
REMARK VINA RESULT:      -7.3      2.522      4.545
REMARK  Name = NuBBE_1212
REMARK  11 active torsions:
REMARK  status: ('A' for Active; 'I' for Inactive)
REMARK    1  A    between atoms: O_1  and  C_2
REMARK    2  A    between atoms: C_7  and  C_8
REMARK    3  A    between atoms: C_16  and  C_17
REMARK    4  A    between atoms: C_21  and  C_23
REMARK    5  A    between atoms: C_23  and  C_25
REMARK    6  A    between atoms: C_23  and  C_32
REMARK    7  A    between atoms: C_25  and  C_26
REMARK    8  A    between atoms: C_26  and  C_27
REMARK    9  A    between atoms: C_27  and  C_28
REMARK   10  A    between atoms: C_28  and  C_29
REMARK   11  A    between atoms: C_28  and  C_30
REMARK                            x       y       z     vdW  Elec       q    Type
REMARK                         _______ _______ _______ _____ _____    ______ ____
ROOT
ATOM      1  C   LIG A   1      -8.992   3.623 132.890  0.00  0.00    +0.119 C 
ATOM      2  C   LIG A   1      -9.826   3.114 131.714  0.00  0.00    +0.062 C 
ATOM      3  C   LIG A   1      -8.110   2.529 133.492  0.00  0.00    +0.032 C 
ATOM      4  C   LIG A   1      -7.250   1.833 132.439  0.00  0.00    +0.013 C 
ATOM      5  C   LIG A   1      -8.074   1.253 131.268  0.00  0.00    -0.008 C 
ATOM      6  C   LIG A   1      -8.988   0.105 131.789  0.00  0.00    +0.016 C 
ATOM      7  C   LIG A   1      -8.975   2.388 130.706  0.00  0.00    -0.065 C 
ATOM      8  C   LIG A   1      -9.029   2.724 129.401  0.00  0.00    -0.027 C 
ATOM      9  C   LIG A   1      -8.301   1.969 128.346  0.00  0.00    +0.031 C 
ATOM     10  C   LIG A   1      -7.883   0.596 128.883  0.00  0.00    +0.000 C 
ATOM     11  C   LIG A   1      -7.068   0.735 130.160  0.00  0.00    +0.003 C 
ATOM     12  C   LIG A   1      -6.226  -0.515 130.539  0.00  0.00    +0.005 C 
ATOM     13  C   LIG A   1      -5.742  -1.413 129.372  0.00  0.00    +0.007 C 
ATOM     14  C   LIG A   1      -6.841  -1.654 128.286  0.00  0.00    -0.026 C 
ATOM     15  C   LIG A   1      -7.953  -2.493 128.931  0.00  0.00    +0.012 C 
ATOM     16  C   LIG A   1      -7.269  -0.263 127.826  0.00  0.00    -0.001 C 
ATOM     17  C   LIG A   1      -6.122   0.248 126.956  0.00  0.00    +0.004 C 
ATOM     18  C   LIG A   1      -5.457  -1.029 126.402  0.00  0.00    +0.004 C 
ATOM     19  C   LIG A   1      -6.310  -2.227 126.919  0.00  0.00    -0.002 C 
ENDROOT
BRANCH   1  20
ATOM     20  O   LIG A   1      -9.857   4.112 133.913  0.00  0.00    -0.392 OA
ATOM     21  H   LIG A   1     -10.552   4.638 133.480  0.00  0.00    +0.210 HD
ENDBRANCH   1  20
BRANCH  19  22
ATOM     22  C   LIG A   1      -7.342  -2.707 125.773  0.00  0.00    -0.010 C 
ATOM     23  C   LIG A   1      -8.398  -3.745 126.206  0.00  0.00    +0.008 C 
BRANCH  22  24
ATOM     24  C   LIG A   1      -6.702  -3.167 124.425  0.00  0.00    +0.008 C 
BRANCH  24  25
ATOM     25  C   LIG A   1      -6.982  -2.198 123.237  0.00  0.00    +0.030 C 
BRANCH  25  26
ATOM     26  C   LIG A   1      -8.400  -1.604 123.180  0.00  0.00    -0.074 C 
ATOM     27  C   LIG A   1      -9.423  -2.374 122.855  0.00  0.00    +0.008 C 
BRANCH  26  28
ATOM     28  C   LIG A   1      -8.564  -0.090 123.441  0.00  0.00    +0.008 C 
ATOM     29  C   LIG A   1      -9.241   0.277 124.781  0.00  0.00    +0.012 C 
ATOM     30  C   LIG A   1      -7.183   0.560 123.429  0.00  0.00    +0.012 C 
ENDBRANCH  26  28
ENDBRANCH  25  26
ENDBRANCH  24  25
ENDBRANCH  22  24
ENDBRANCH  19  22
TORSDOF 6
ENDMDL
MODEL 4
REMARK VINA RESULT:      -7.3      3.142      5.766
REMARK  Name = NuBBE_1212
REMARK  11 active torsions:
REMARK  status: ('A' for Active; 'I' for Inactive)
REMARK    1  A    between atoms: O_1  and  C_2
REMARK    2  A    between atoms: C_7  and  C_8
REMARK    3  A    between atoms: C_16  and  C_17
REMARK    4  A    between atoms: C_21  and  C_23
REMARK    5  A    between atoms: C_23  and  C_25
REMARK    6  A    between atoms: C_23  and  C_32
REMARK    7  A    between atoms: C_25  and  C_26
REMARK    8  A    between atoms: C_26  and  C_27
REMARK    9  A    between atoms: C_27  and  C_28
REMARK   10  A    between atoms: C_28  and  C_29
REMARK   11  A    between atoms: C_28  and  C_30
REMARK                            x       y       z     vdW  Elec       q    Type
REMARK                         _______ _______ _______ _____ _____    ______ ____
ROOT
ATOM      1  C   LIG A   1      -3.861   5.485 128.912  0.00  0.00    +0.119 C 
ATOM      2  C   LIG A   1      -3.906   4.052 129.444  0.00  0.00    +0.062 C 
ATOM      3  C   LIG A   1      -3.783   5.534 127.386  0.00  0.00    +0.032 C 
ATOM      4  C   LIG A   1      -4.884   4.710 126.721  0.00  0.00    +0.013 C 
ATOM      5  C   LIG A   1      -4.912   3.239 127.195  0.00  0.00    -0.008 C 
ATOM      6  C   LIG A   1      -3.610   2.518 126.738  0.00  0.00    +0.016 C 
ATOM      7  C   LIG A   1      -4.962   3.235 128.748  0.00  0.00    -0.065 C 
ATOM      8  C   LIG A   1      -5.873   2.547 129.466  0.00  0.00    -0.027 C 
ATOM      9  C   LIG A   1      -6.867   1.634 128.839  0.00  0.00    +0.031 C 
ATOM     10  C   LIG A   1      -6.427   1.287 127.413  0.00  0.00    +0.000 C 
ATOM     11  C   LIG A   1      -6.201   2.546 126.591  0.00  0.00    +0.003 C 
ATOM     12  C   LIG A   1      -6.197   2.332 125.052  0.00  0.00    +0.005 C 
ATOM     13  C   LIG A   1      -7.053   1.160 124.505  0.00  0.00    +0.007 C 
ATOM     14  C   LIG A   1      -6.926  -0.143 125.361  0.00  0.00    -0.026 C 
ATOM     15  C   LIG A   1      -5.490  -0.661 125.205  0.00  0.00    +0.012 C 
ATOM     16  C   LIG A   1      -7.313   0.264 126.780  0.00  0.00    -0.001 C 
ATOM     17  C   LIG A   1      -8.830   0.435 126.755  0.00  0.00    +0.004 C 
ATOM     18  C   LIG A   1      -9.306  -0.494 125.618  0.00  0.00    +0.004 C 
ATOM     19  C   LIG A   1      -8.036  -1.227 125.090  0.00  0.00    -0.002 C 
ENDROOT
BRANCH   1  20
ATOM     20  O   LIG A   1      -2.719   6.156 129.440  0.00  0.00    -0.392 OA
ATOM     21  H   LIG A   1      -2.934   6.426 130.348  0.00  0.00    +0.210 HD
ENDBRANCH   1  20
BRANCH  19  22
ATOM     22  C   LIG A   1      -7.929  -2.696 125.752  0.00  0.00    -0.010 C 
ATOM     23  C   LIG A   1      -7.712  -3.866 124.771  0.00  0.00    +0.008 C 
BRANCH  22  24
ATOM     24  C   LIG A   1      -9.063  -3.079 126.755  0.00  0.00    +0.008 C 
BRANCH  24  25
ATOM     25  C   LIG A   1      -8.546  -3.788 128.044  0.00  0.00    +0.030 C 
BRANCH  25  26
ATOM     26  C   LIG A   1      -7.616  -2.950 128.938  0.00  0.00    -0.074 C 
ATOM     27  C   LIG A   1      -8.097  -1.911 129.596  0.00  0.00    +0.008 C 
BRANCH  26  28
ATOM     28  C   LIG A   1      -6.117  -3.322 128.977  0.00  0.00    +0.008 C 
ATOM     29  C   LIG A   1      -5.154  -2.230 128.458  0.00  0.00    +0.012 C 
ATOM     30  C   LIG A   1      -5.728  -3.630 130.421  0.00  0.00    +0.012 C 
ENDBRANCH  26  28
ENDBRANCH  25  26
ENDBRANCH  24  25
ENDBRANCH  22  24
ENDBRANCH  19  22
TORSDOF 6
ENDMDL
MODEL 5
REMARK VINA RESULT:      -7.2      1.742      3.411
REMARK  Name = NuBBE_1212
REMARK  11 active torsions:
REMARK  status: ('A' for Active; 'I' for Inactive)
REMARK    1  A    between atoms: O_1  and  C_2
REMARK    2  A    between atoms: C_7  and  C_8
REMARK    3  A    between atoms: C_16  and  C_17
REMARK    4  A    between atoms: C_21  and  C_23
REMARK    5  A    between atoms: C_23  and  C_25
REMARK    6  A    between atoms: C_23  and  C_32
REMARK    7  A    between atoms: C_25  and  C_26
REMARK    8  A    between atoms: C_26  and  C_27
REMARK    9  A    between atoms: C_27  and  C_28
REMARK   10  A    between atoms: C_28  and  C_29
REMARK   11  A    between atoms: C_28  and  C_30
REMARK                            x       y       z     vdW  Elec       q    Type
REMARK                         _______ _______ _______ _____ _____    ______ ____
ROOT
ATOM      1  C   LIG A   1      -6.358  -5.678 134.897  0.00  0.00    +0.119 C 
ATOM      2  C   LIG A   1      -5.255  -5.403 133.874  0.00  0.00    +0.062 C 
ATOM      3  C   LIG A   1      -7.146  -4.417 135.253  0.00  0.00    +0.032 C 
ATOM      4  C   LIG A   1      -7.678  -3.697 134.014  0.00  0.00    +0.013 C 
ATOM      5  C   LIG A   1      -6.573  -3.351 132.991  0.00  0.00    -0.008 C 
ATOM      6  C   LIG A   1      -5.595  -2.308 133.610  0.00  0.00    +0.016 C 
ATOM      7  C   LIG A   1      -5.781  -4.651 132.681  0.00  0.00    -0.065 C 
ATOM      8  C   LIG A   1      -5.547  -5.105 131.433  0.00  0.00    -0.027 C 
ATOM      9  C   LIG A   1      -5.942  -4.347 130.215  0.00  0.00    +0.031 C 
ATOM     10  C   LIG A   1      -6.222  -2.885 130.580  0.00  0.00    +0.000 C 
ATOM     11  C   LIG A   1      -7.266  -2.790 131.683  0.00  0.00    +0.003 C 
ATOM     12  C   LIG A   1      -7.949  -1.401 131.819  0.00  0.00    +0.005 C 
ATOM     13  C   LIG A   1      -8.064  -0.547 130.530  0.00  0.00    +0.007 C 
ATOM     14  C   LIG A   1      -6.762  -0.568 129.663  0.00  0.00    -0.026 C 
ATOM     15  C   LIG A   1      -5.665   0.152 130.459  0.00  0.00    +0.012 C 
ATOM     16  C   LIG A   1      -6.489  -2.042 129.376  0.00  0.00    -0.001 C 
ATOM     17  C   LIG A   1      -7.527  -2.452 128.334  0.00  0.00    +0.004 C 
ATOM     18  C   LIG A   1      -7.866  -1.145 127.588  0.00  0.00    +0.004 C 
ATOM     19  C   LIG A   1      -6.938  -0.045 128.188  0.00  0.00    -0.002 C 
ENDROOT
BRANCH   1  20
ATOM     20  O   LIG A   1      -5.782  -6.197 136.093  0.00  0.00    -0.392 OA
ATOM     21  H   LIG A   1      -6.405  -6.849 136.458  0.00  0.00    +0.210 HD
ENDBRANCH   1  20
BRANCH  19  22
ATOM     22  C   LIG A   1      -5.653   0.175 127.235  0.00  0.00    -0.010 C 
ATOM     23  C   LIG A   1      -5.020   1.582 127.267  0.00  0.00    +0.008 C 
BRANCH  22  24
ATOM     24  C   LIG A   1      -5.818  -0.274 125.749  0.00  0.00    +0.008 C 
BRANCH  24  25
ATOM     25  C   LIG A   1      -5.140  -1.641 125.429  0.00  0.00    +0.030 C 
BRANCH  25  26
ATOM     26  C   LIG A   1      -5.781  -2.453 124.291  0.00  0.00    -0.074 C 
ATOM     27  C   LIG A   1      -5.015  -3.110 123.439  0.00  0.00    +0.008 C 
BRANCH  26  28
ATOM     28  C   LIG A   1      -7.318  -2.410 124.144  0.00  0.00    +0.008 C 
ATOM     29  C   LIG A   1      -7.836  -2.095 122.722  0.00  0.00    +0.012 C 
ATOM     30  C   LIG A   1      -7.886  -3.767 124.551  0.00  0.00    +0.012 C 
ENDBRANCH  26  28
ENDBRANCH  25  26
ENDBRANCH  24  25
ENDBRANCH  22  24
ENDBRANCH  19  22
TORSDOF 6
ENDMDL
MODEL 6
REMARK VINA RESULT:      -7.1      3.654      6.924
REMARK  Name = NuBBE_1212
REMARK  11 active torsions:
REMARK  status: ('A' for Active; 'I' for Inactive)
REMARK    1  A    between atoms: O_1  and  C_2
REMARK    2  A    between atoms: C_7  and  C_8
REMARK    3  A    between atoms: C_16  and  C_17
REMARK    4  A    between atoms: C_21  and  C_23
REMARK    5  A    between atoms: C_23  and  C_25
REMARK    6  A    between atoms: C_23  and  C_32
REMARK    7  A    between atoms: C_25  and  C_26
REMARK    8  A    between atoms: C_26  and  C_27
REMARK    9  A    between atoms: C_27  and  C_28
REMARK   10  A    between atoms: C_28  and  C_29
REMARK   11  A    between atoms: C_28  and  C_30
REMARK                            x       y       z     vdW  Elec       q    Type
REMARK                         _______ _______ _______ _____ _____    ______ ____
ROOT
ATOM      1  C   LIG A   1      -9.702   5.005 131.663  0.00  0.00    +0.119 C 
ATOM      2  C   LIG A   1      -8.928   4.018 132.537  0.00  0.00    +0.062 C 
ATOM      3  C   LIG A   1      -9.094   5.145 130.267  0.00  0.00    +0.032 C 
ATOM      4  C   LIG A   1      -8.907   3.794 129.578  0.00  0.00    +0.013 C 
ATOM      5  C   LIG A   1      -8.073   2.797 130.413  0.00  0.00    -0.008 C 
ATOM      6  C   LIG A   1      -6.614   3.324 130.555  0.00  0.00    +0.016 C 
ATOM      7  C   LIG A   1      -8.707   2.707 131.829  0.00  0.00    -0.065 C 
ATOM      8  C   LIG A   1      -9.042   1.546 132.427  0.00  0.00    -0.027 C 
ATOM      9  C   LIG A   1      -8.743   0.217 131.827  0.00  0.00    +0.031 C 
ATOM     10  C   LIG A   1      -7.681   0.368 130.733  0.00  0.00    +0.000 C 
ATOM     11  C   LIG A   1      -8.112   1.389 129.691  0.00  0.00    +0.003 C 
ATOM     12  C   LIG A   1      -7.357   1.300 128.336  0.00  0.00    +0.005 C 
ATOM     13  C   LIG A   1      -6.825  -0.096 127.920  0.00  0.00    +0.007 C 
ATOM     14  C   LIG A   1      -6.167  -0.879 129.103  0.00  0.00    -0.026 C 
ATOM     15  C   LIG A   1      -4.890  -0.127 129.502  0.00  0.00    +0.012 C 
ATOM     16  C   LIG A   1      -7.238  -0.950 130.188  0.00  0.00    -0.001 C 
ATOM     17  C   LIG A   1      -8.248  -1.985 129.695  0.00  0.00    +0.004 C 
ATOM     18  C   LIG A   1      -7.431  -2.916 128.775  0.00  0.00    +0.004 C 
ATOM     19  C   LIG A   1      -5.956  -2.418 128.846  0.00  0.00    -0.002 C 
ENDROOT
BRANCH   1  20
ATOM     20  O   LIG A   1      -9.704   6.290 132.280  0.00  0.00    -0.392 OA
ATOM     21  H   LIG A   1     -10.425   6.805 131.880  0.00  0.00    +0.210 HD
ENDBRANCH   1  20
BRANCH  19  22
ATOM     22  C   LIG A   1      -5.116  -3.319 129.891  0.00  0.00    -0.010 C 
ATOM     23  C   LIG A   1      -3.689  -3.708 129.455  0.00  0.00    +0.008 C 
BRANCH  22  24
ATOM     24  C   LIG A   1      -5.843  -4.588 130.438  0.00  0.00    +0.008 C 
BRANCH  24  25
ATOM     25  C   LIG A   1      -5.277  -5.095 131.799  0.00  0.00    +0.030 C 
BRANCH  25  26
ATOM     26  C   LIG A   1      -6.015  -4.598 133.055  0.00  0.00    -0.074 C 
ATOM     27  C   LIG A   1      -5.989  -5.317 134.161  0.00  0.00    +0.008 C 
BRANCH  26  28
ATOM     28  C   LIG A   1      -6.829  -3.289 132.948  0.00  0.00    +0.008 C 
ATOM     29  C   LIG A   1      -8.109  -3.238 133.812  0.00  0.00    +0.012 C 
ATOM     30  C   LIG A   1      -5.939  -2.124 133.374  0.00  0.00    +0.012 C 
ENDBRANCH  26  28
ENDBRANCH  25  26
ENDBRANCH  24  25
ENDBRANCH  22  24
ENDBRANCH  19  22
TORSDOF 6
ENDMDL
MODEL 7
REMARK VINA RESULT:      -7.0      2.757      5.530
REMARK  Name = NuBBE_1212
REMARK  11 active torsions:
REMARK  status: ('A' for Active; 'I' for Inactive)
REMARK    1  A    between atoms: O_1  and  C_2
REMARK    2  A    between atoms: C_7  and  C_8
REMARK    3  A    between atoms: C_16  and  C_17
REMARK    4  A    between atoms: C_21  and  C_23
REMARK    5  A    between atoms: C_23  and  C_25
REMARK    6  A    between atoms: C_23  and  C_32
REMARK    7  A    between atoms: C_25  and  C_26
REMARK    8  A    between atoms: C_26  and  C_27
REMARK    9  A    between atoms: C_27  and  C_28
REMARK   10  A    between atoms: C_28  and  C_29
REMARK   11  A    between atoms: C_28  and  C_30
REMARK                            x       y       z     vdW  Elec       q    Type
REMARK                         _______ _______ _______ _____ _____    ______ ____
ROOT
ATOM      1  C   LIG A   1      -4.816   5.052 128.734  0.00  0.00    +0.119 C 
ATOM      2  C   LIG A   1      -5.204   3.630 129.140  0.00  0.00    +0.062 C 
ATOM      3  C   LIG A   1      -4.287   5.122 127.302  0.00  0.00    +0.032 C 
ATOM      4  C   LIG A   1      -5.243   4.480 126.298  0.00  0.00    +0.013 C 
ATOM      5  C   LIG A   1      -5.603   3.019 126.651  0.00  0.00    -0.008 C 
ATOM      6  C   LIG A   1      -4.332   2.127 126.544  0.00  0.00    +0.016 C 
ATOM      7  C   LIG A   1      -6.108   2.990 128.120  0.00  0.00    -0.065 C 
ATOM      8  C   LIG A   1      -7.272   2.425 128.501  0.00  0.00    -0.027 C 
ATOM      9  C   LIG A   1      -8.149   1.679 127.559  0.00  0.00    +0.031 C 
ATOM     10  C   LIG A   1      -7.360   1.302 126.301  0.00  0.00    +0.000 C 
ATOM     11  C   LIG A   1      -6.737   2.533 125.659  0.00  0.00    +0.003 C 
ATOM     12  C   LIG A   1      -6.309   2.353 124.176  0.00  0.00    +0.005 C 
ATOM     13  C   LIG A   1      -7.114   1.329 123.334  0.00  0.00    +0.007 C 
ATOM     14  C   LIG A   1      -7.418   0.003 124.107  0.00  0.00    -0.026 C 
ATOM     15  C   LIG A   1      -6.081  -0.713 124.339  0.00  0.00    +0.012 C 
ATOM     16  C   LIG A   1      -8.147   0.432 125.377  0.00  0.00    -0.001 C 
ATOM     17  C   LIG A   1      -9.554   0.822 124.926  0.00  0.00    +0.004 C 
ATOM     18  C   LIG A   1      -9.793  -0.004 123.645  0.00  0.00    +0.004 C 
ATOM     19  C   LIG A   1      -8.532  -0.902 123.461  0.00  0.00    -0.002 C 
ENDROOT
BRANCH   1  20
ATOM     20  O   LIG A   1      -3.801   5.539 129.610  0.00  0.00    -0.392 OA
ATOM     21  H   LIG A   1      -3.846   5.016 130.428  0.00  0.00    +0.210 HD
ENDBRANCH   1  20
BRANCH  19  22
ATOM     22  C   LIG A   1      -8.820  -2.385 124.032  0.00  0.00    -0.010 C 
ATOM     23  C   LIG A   1      -9.724  -3.282 123.162  0.00  0.00    +0.008 C 
BRANCH  22  24
ATOM     24  C   LIG A   1      -9.303  -2.465 125.515  0.00  0.00    +0.008 C 
BRANCH  24  25
ATOM     25  C   LIG A   1      -8.480  -3.460 126.388  0.00  0.00    +0.030 C 
BRANCH  25  26
ATOM     26  C   LIG A   1      -8.337  -3.084 127.873  0.00  0.00    -0.074 C 
ATOM     27  C   LIG A   1      -8.910  -3.830 128.799  0.00  0.00    +0.008 C 
BRANCH  26  28
ATOM     28  C   LIG A   1      -7.575  -1.786 128.223  0.00  0.00    +0.008 C 
ATOM     29  C   LIG A   1      -7.636  -1.368 129.710  0.00  0.00    +0.012 C 
ATOM     30  C   LIG A   1      -6.105  -1.969 127.856  0.00  0.00    +0.012 C 
ENDBRANCH  26  28
ENDBRANCH  25  26
ENDBRANCH  24  25
ENDBRANCH  22  24
ENDBRANCH  19  22
TORSDOF 6
ENDMDL
MODEL 8
REMARK VINA RESULT:      -7.0      3.100      7.788
REMARK  Name = NuBBE_1212
REMARK  11 active torsions:
REMARK  status: ('A' for Active; 'I' for Inactive)
REMARK    1  A    between atoms: O_1  and  C_2
REMARK    2  A    between atoms: C_7  and  C_8
REMARK    3  A    between atoms: C_16  and  C_17
REMARK    4  A    between atoms: C_21  and  C_23
REMARK    5  A    between atoms: C_23  and  C_25
REMARK    6  A    between atoms: C_23  and  C_32
REMARK    7  A    between atoms: C_25  and  C_26
REMARK    8  A    between atoms: C_26  and  C_27
REMARK    9  A    between atoms: C_27  and  C_28
REMARK   10  A    between atoms: C_28  and  C_29
REMARK   11  A    between atoms: C_28  and  C_30
REMARK                            x       y       z     vdW  Elec       q    Type
REMARK                         _______ _______ _______ _____ _____    ______ ____
ROOT
ATOM      1  C   LIG A   1      -8.649  -1.940 123.850  0.00  0.00    +0.119 C 
ATOM      2  C   LIG A   1      -7.834  -0.815 124.489  0.00  0.00    +0.062 C 
ATOM      3  C   LIG A   1      -8.313  -3.309 124.443  0.00  0.00    +0.032 C 
ATOM      4  C   LIG A   1      -8.415  -3.321 125.968  0.00  0.00    +0.013 C 
ATOM      5  C   LIG A   1      -7.551  -2.232 126.643  0.00  0.00    -0.008 C 
ATOM      6  C   LIG A   1      -6.044  -2.529 126.391  0.00  0.00    +0.016 C 
ATOM      7  C   LIG A   1      -7.904  -0.866 125.992  0.00  0.00    -0.065 C 
ATOM      8  C   LIG A   1      -8.244   0.233 126.696  0.00  0.00    -0.027 C 
ATOM      9  C   LIG A   1      -8.218   0.275 128.183  0.00  0.00    +0.031 C 
ATOM     10  C   LIG A   1      -7.379  -0.888 128.722  0.00  0.00    +0.000 C 
ATOM     11  C   LIG A   1      -7.888  -2.220 128.190  0.00  0.00    +0.003 C 
ATOM     12  C   LIG A   1      -7.426  -3.466 128.995  0.00  0.00    +0.005 C 
ATOM     13  C   LIG A   1      -7.145  -3.260 130.506  0.00  0.00    +0.007 C 
ATOM     14  C   LIG A   1      -6.361  -1.941 130.810  0.00  0.00    -0.026 C 
ATOM     15  C   LIG A   1      -4.955  -2.091 130.213  0.00  0.00    +0.012 C 
ATOM     16  C   LIG A   1      -7.201  -0.820 130.203  0.00  0.00    -0.001 C 
ATOM     17  C   LIG A   1      -8.397  -0.657 131.139  0.00  0.00    +0.004 C 
ATOM     18  C   LIG A   1      -7.884  -1.142 132.511  0.00  0.00    +0.004 C 
ATOM     19  C   LIG A   1      -6.377  -1.490 132.318  0.00  0.00    -0.002 C 
ENDROOT
BRANCH   1  20
ATOM     20  O   LIG A   1      -8.387  -1.984 122.449  0.00  0.00    -0.392 OA
ATOM     21  H   LIG A   1      -7.622  -1.410 122.277  0.00  0.00    +0.210 HD
ENDBRANCH   1  20
BRANCH  19  22
ATOM     22  C   LIG A   1      -5.456  -0.262 132.819  0.00  0.00    -0.010 C 
ATOM     23  C   LIG A   1      -4.038  -0.631 133.299  0.00  0.00    +0.008 C 
BRANCH  22  24
ATOM     24  C   LIG A   1      -6.109   0.703 133.859  0.00  0.00    +0.008 C 
BRANCH  24  25
ATOM     25  C   LIG A   1      -6.155   2.189 133.392  0.00  0.00    +0.030 C 
BRANCH  25  26
ATOM     26  C   LIG A   1      -7.289   2.547 132.416  0.00  0.00    -0.074 C 
ATOM     27  C   LIG A   1      -7.009   2.834 131.158  0.00  0.00    +0.008 C 
BRANCH  26  28
ATOM     28  C   LIG A   1      -8.728   2.627 132.973  0.00  0.00    +0.008 C 
ATOM     29  C   LIG A   1      -9.012   3.838 133.891  0.00  0.00    +0.012 C 
ATOM     30  C   LIG A   1      -9.702   2.701 131.800  0.00  0.00    +0.012 C 
ENDBRANCH  26  28
ENDBRANCH  25  26
ENDBRANCH  24  25
ENDBRANCH  22  24
ENDBRANCH  19  22
TORSDOF 6
ENDMDL
MODEL 9
REMARK VINA RESULT:      -6.9      4.171      6.024
REMARK  Name = NuBBE_1212
REMARK  11 active torsions:
REMARK  status: ('A' for Active; 'I' for Inactive)
REMARK    1  A    between atoms: O_1  and  C_2
REMARK    2  A    between atoms: C_7  and  C_8
REMARK    3  A    between atoms: C_16  and  C_17
REMARK    4  A    between atoms: C_21  and  C_23
REMARK    5  A    between atoms: C_23  and  C_25
REMARK    6  A    between atoms: C_23  and  C_32
REMARK    7  A    between atoms: C_25  and  C_26
REMARK    8  A    between atoms: C_26  and  C_27
REMARK    9  A    between atoms: C_27  and  C_28
REMARK   10  A    between atoms: C_28  and  C_29
REMARK   11  A    between atoms: C_28  and  C_30
REMARK                            x       y       z     vdW  Elec       q    Type
REMARK                         _______ _______ _______ _____ _____    ______ ____
ROOT
ATOM      1  C   LIG A   1      -2.109   6.364 131.084  0.00  0.00    +0.119 C 
ATOM      2  C   LIG A   1      -3.058   6.679 129.928  0.00  0.00    +0.062 C 
ATOM      3  C   LIG A   1      -2.630   5.235 131.972  0.00  0.00    +0.032 C 
ATOM      4  C   LIG A   1      -2.990   3.985 131.170  0.00  0.00    +0.013 C 
ATOM      5  C   LIG A   1      -3.998   4.263 130.032  0.00  0.00    -0.008 C 
ATOM      6  C   LIG A   1      -5.366   4.696 130.638  0.00  0.00    +0.016 C 
ATOM      7  C   LIG A   1      -3.444   5.433 129.174  0.00  0.00    -0.065 C 
ATOM      8  C   LIG A   1      -3.311   5.381 127.833  0.00  0.00    -0.027 C 
ATOM      9  C   LIG A   1      -3.781   4.225 127.023  0.00  0.00    +0.031 C 
ATOM     10  C   LIG A   1      -4.763   3.381 127.843  0.00  0.00    +0.000 C 
ATOM     11  C   LIG A   1      -4.141   2.948 129.162  0.00  0.00    +0.003 C 
ATOM     12  C   LIG A   1      -4.844   1.749 129.856  0.00  0.00    +0.005 C 
ATOM     13  C   LIG A   1      -5.562   0.729 128.934  0.00  0.00    +0.007 C 
ATOM     14  C   LIG A   1      -6.378   1.408 127.786  0.00  0.00    -0.026 C 
ATOM     15  C   LIG A   1      -7.543   2.168 128.434  0.00  0.00    +0.012 C 
ATOM     16  C   LIG A   1      -5.376   2.283 127.038  0.00  0.00    -0.001 C 
ATOM     17  C   LIG A   1      -4.513   1.313 126.232  0.00  0.00    +0.004 C 
ATOM     18  C   LIG A   1      -5.422   0.088 125.998  0.00  0.00    +0.004 C 
ATOM     19  C   LIG A   1      -6.808   0.445 126.616  0.00  0.00    -0.002 C 
ENDROOT
BRANCH   1  20
ATOM     20  O   LIG A   1      -1.939   7.526 131.893  0.00  0.00    -0.392 OA
ATOM     21  H   LIG A   1      -2.587   7.476 132.616  0.00  0.00    +0.210 HD
ENDBRANCH   1  20
BRANCH  19  22
ATOM     22  C   LIG A   1      -7.815   0.954 125.461  0.00  0.00    -0.010 C 
ATOM     23  C   LIG A   1      -9.298   0.567 125.638  0.00  0.00    +0.008 C 
BRANCH  22  24
ATOM     24  C   LIG A   1      -7.382   0.648 123.992  0.00  0.00    +0.008 C 
BRANCH  24  25
ATOM     25  C   LIG A   1      -8.102  -0.588 123.373  0.00  0.00    +0.030 C 
BRANCH  25  26
ATOM     26  C   LIG A   1      -7.328  -1.916 123.444  0.00  0.00    -0.074 C 
ATOM     27  C   LIG A   1      -6.144  -2.019 122.868  0.00  0.00    +0.008 C 
BRANCH  26  28
ATOM     28  C   LIG A   1      -8.008  -3.117 124.138  0.00  0.00    +0.008 C 
ATOM     29  C   LIG A   1      -8.127  -3.008 125.675  0.00  0.00    +0.012 C 
ATOM     30  C   LIG A   1      -9.420  -3.268 123.577  0.00  0.00    +0.012 C 
ENDBRANCH  26  28
ENDBRANCH  25  26
ENDBRANCH  24  25
ENDBRANCH  22  24
ENDBRANCH  19  22
TORSDOF 6
ENDMDL
