MODEL 1
REMARK VINA RESULT:      -6.3      0.000      0.000
REMARK  Name = NuBBE_1312
REMARK  15 active torsions:
REMARK  status: ('A' for Active; 'I' for Inactive)
REMARK    1  A    between atoms: C_3  and  O_4
REMARK    2  A    between atoms: O_4  and  C_5
REMARK    3  A    between atoms: C_6  and  C_20
REMARK    4  A    between atoms: C_10  and  O_11
REMARK    5  A    between atoms: O_11  and  C_12
REMARK    6  A    between atoms: C_13  and  O_14
REMARK    7  A    between atoms: O_14  and  C_15
REMARK    8  A    between atoms: C_16  and  O_17
REMARK    9  A    between atoms: O_17  and  C_18
REMARK   10  A    between atoms: C_22  and  O_23
REMARK   11  A    between atoms: O_23  and  C_24
REMARK   12  A    between atoms: C_25  and  O_30
REMARK   13  A    between atoms: C_26  and  O_27
REMARK   14  A    between atoms: O_27  and  C_28
REMARK   15  A    between atoms: O_30  and  C_31
REMARK                            x       y       z     vdW  Elec       q    Type
REMARK                         _______ _______ _______ _____ _____    ______ ____
ROOT
ATOM      1  O   LIG A   1      -5.548   4.924 127.678  0.00  0.00    -0.283 OA
ATOM      2  C   LIG A   1      -6.422   4.087 127.975  0.00  0.00    +0.238 A 
ATOM      3  C   LIG A   1      -6.724   2.907 127.089  0.00  0.00    +0.211 A 
ATOM      4  C   LIG A   1      -7.817   2.181 127.400  0.00  0.00    +0.181 A 
ATOM      5  O   LIG A   1      -8.661   2.462 128.447  0.00  0.00    -0.451 OA
ATOM      6  C   LIG A   1      -8.271   3.382 129.379  0.00  0.00    +0.147 A 
ATOM      7  C   LIG A   1      -7.176   4.229 129.223  0.00  0.00    +0.113 A 
ATOM      8  C   LIG A   1      -6.842   5.146 130.255  0.00  0.00    +0.180 A 
ATOM      9  C   LIG A   1      -7.625   5.198 131.425  0.00  0.00    +0.204 A 
ATOM     10  C   LIG A   1      -8.726   4.323 131.560  0.00  0.00    +0.169 A 
ATOM     11  C   LIG A   1      -9.045   3.436 130.528  0.00  0.00    +0.096 A 
ENDROOT
BRANCH   4  12
ATOM     12  C   LIG A   1      -8.244   0.984 126.655  0.00  0.00    +0.028 A 
ATOM     13  C   LIG A   1      -7.937  -0.293 127.128  0.00  0.00    +0.061 A 
ATOM     14  C   LIG A   1      -8.317  -1.445 126.419  0.00  0.00    +0.166 A 
ATOM     15  C   LIG A   1      -9.087  -1.327 125.232  0.00  0.00    +0.203 A 
ATOM     16  C   LIG A   1      -9.381  -0.036 124.744  0.00  0.00    +0.166 A 
ATOM     17  C   LIG A   1      -8.929   1.099 125.441  0.00  0.00    +0.061 A 
BRANCH  14  18
ATOM     18  O   LIG A   1      -7.970  -2.709 126.851  0.00  0.00    -0.491 OA
ATOM     19  C   LIG A   1      -8.237  -3.012 128.224  0.00  0.00    +0.277 C 
ENDBRANCH  14  18
BRANCH  16  20
ATOM     20  O   LIG A   1     -10.215   0.084 123.662  0.00  0.00    -0.491 OA
ATOM     21  C   LIG A   1      -9.898   1.082 122.703  0.00  0.00    +0.277 C 
ENDBRANCH  16  20
BRANCH  15  22
ATOM     22  O   LIG A   1      -9.543  -2.506 124.674  0.00  0.00    -0.488 OA
ATOM     23  C   LIG A   1      -8.882  -3.007 123.512  0.00  0.00    +0.277 C 
ENDBRANCH  15  22
ENDBRANCH   4  12
BRANCH   3  24
ATOM     24  O   LIG A   1      -5.939   2.572 125.984  0.00  0.00    -0.488 OA
ATOM     25  C   LIG A   1      -4.718   1.873 126.229  0.00  0.00    +0.277 C 
ENDBRANCH   3  24
BRANCH   8  26
ATOM     26  O   LIG A   1      -5.784   5.986 129.987  0.00  0.00    -0.490 OA
ATOM     27  C   LIG A   1      -4.526   5.743 130.599  0.00  0.00    +0.277 C 
ENDBRANCH   8  26
BRANCH   9  28
ATOM     28  O   LIG A   1      -7.348   6.200 132.324  0.00  0.00    -0.488 OA
ATOM     29  C   LIG A   1      -6.559   5.878 133.464  0.00  0.00    +0.277 C 
ENDBRANCH   9  28
BRANCH  10  30
ATOM     30  O   LIG A   1      -9.531   4.437 132.658  0.00  0.00    -0.491 OA
ATOM     31  C   LIG A   1      -9.302   3.488 133.695  0.00  0.00    +0.277 C 
ENDBRANCH  10  30
TORSDOF 8
ENDMDL
MODEL 2
REMARK VINA RESULT:      -6.3      2.279      8.596
REMARK  Name = NuBBE_1312
REMARK  15 active torsions:
REMARK  status: ('A' for Active; 'I' for Inactive)
REMARK    1  A    between atoms: C_3  and  O_4
REMARK    2  A    between atoms: O_4  and  C_5
REMARK    3  A    between atoms: C_6  and  C_20
REMARK    4  A    between atoms: C_10  and  O_11
REMARK    5  A    between atoms: O_11  and  C_12
REMARK    6  A    between atoms: C_13  and  O_14
REMARK    7  A    between atoms: O_14  and  C_15
REMARK    8  A    between atoms: C_16  and  O_17
REMARK    9  A    between atoms: O_17  and  C_18
REMARK   10  A    between atoms: C_22  and  O_23
REMARK   11  A    between atoms: O_23  and  C_24
REMARK   12  A    between atoms: C_25  and  O_30
REMARK   13  A    between atoms: C_26  and  O_27
REMARK   14  A    between atoms: O_27  and  C_28
REMARK   15  A    between atoms: O_30  and  C_31
REMARK                            x       y       z     vdW  Elec       q    Type
REMARK                         _______ _______ _______ _____ _____    ______ ____
ROOT
ATOM      1  O   LIG A   1      -9.560   2.192 124.700  0.00  0.00    -0.283 OA
ATOM      2  C   LIG A   1      -8.480   1.778 125.161  0.00  0.00    +0.238 A 
ATOM      3  C   LIG A   1      -7.669   2.590 126.135  0.00  0.00    +0.211 A 
ATOM      4  C   LIG A   1      -6.428   2.141 126.413  0.00  0.00    +0.181 A 
ATOM      5  O   LIG A   1      -5.870   1.016 125.856  0.00  0.00    -0.451 OA
ATOM      6  C   LIG A   1      -6.672   0.159 125.156  0.00  0.00    +0.147 A 
ATOM      7  C   LIG A   1      -7.976   0.459 124.769  0.00  0.00    +0.113 A 
ATOM      8  C   LIG A   1      -8.737  -0.503 124.053  0.00  0.00    +0.180 A 
ATOM      9  C   LIG A   1      -8.164  -1.750 123.733  0.00  0.00    +0.204 A 
ATOM     10  C   LIG A   1      -6.842  -2.030 124.144  0.00  0.00    +0.169 A 
ATOM     11  C   LIG A   1      -6.106  -1.066 124.838  0.00  0.00    +0.096 A 
ENDROOT
BRANCH   4  12
ATOM     12  C   LIG A   1      -5.512   2.800 127.360  0.00  0.00    +0.028 A 
ATOM     13  C   LIG A   1      -4.186   3.055 127.004  0.00  0.00    +0.061 A 
ATOM     14  C   LIG A   1      -3.292   3.661 127.903  0.00  0.00    +0.166 A 
ATOM     15  C   LIG A   1      -3.749   4.091 129.177  0.00  0.00    +0.203 A 
ATOM     16  C   LIG A   1      -5.083   3.816 129.543  0.00  0.00    +0.166 A 
ATOM     17  C   LIG A   1      -5.936   3.146 128.647  0.00  0.00    +0.061 A 
BRANCH  14  18
ATOM     18  O   LIG A   1      -1.968   3.868 127.579  0.00  0.00    -0.491 OA
ATOM     19  C   LIG A   1      -1.423   3.040 126.546  0.00  0.00    +0.277 C 
ENDBRANCH  14  18
BRANCH  16  20
ATOM     20  O   LIG A   1      -5.559   4.324 130.725  0.00  0.00    -0.491 OA
ATOM     21  C   LIG A   1      -6.829   3.867 131.166  0.00  0.00    +0.277 C 
ENDBRANCH  16  20
BRANCH  15  22
ATOM     22  O   LIG A   1      -2.850   4.807 129.944  0.00  0.00    -0.488 OA
ATOM     23  C   LIG A   1      -2.839   6.230 129.829  0.00  0.00    +0.277 C 
ENDBRANCH  15  22
ENDBRANCH   4  12
BRANCH   3  24
ATOM     24  O   LIG A   1      -8.147   3.764 126.721  0.00  0.00    -0.488 OA
ATOM     25  C   LIG A   1      -8.102   4.959 125.938  0.00  0.00    +0.277 C 
ENDBRANCH   3  24
BRANCH   8  26
ATOM     26  O   LIG A   1      -9.991  -0.097 123.657  0.00  0.00    -0.490 OA
ATOM     27  C   LIG A   1     -10.215   0.257 122.299  0.00  0.00    +0.277 C 
ENDBRANCH   8  26
BRANCH   9  28
ATOM     28  O   LIG A   1      -8.888  -2.584 122.915  0.00  0.00    -0.488 OA
ATOM     29  C   LIG A   1      -9.728  -3.557 123.526  0.00  0.00    +0.277 C 
ENDBRANCH   9  28
BRANCH  10  30
ATOM     30  O   LIG A   1      -6.263  -3.207 123.757  0.00  0.00    -0.491 OA
ATOM     31  C   LIG A   1      -4.877  -3.139 123.439  0.00  0.00    +0.277 C 
ENDBRANCH  10  30
TORSDOF 8
ENDMDL
MODEL 3
REMARK VINA RESULT:      -6.3      0.241      2.315
REMARK  Name = NuBBE_1312
REMARK  15 active torsions:
REMARK  status: ('A' for Active; 'I' for Inactive)
REMARK    1  A    between atoms: C_3  and  O_4
REMARK    2  A    between atoms: O_4  and  C_5
REMARK    3  A    between atoms: C_6  and  C_20
REMARK    4  A    between atoms: C_10  and  O_11
REMARK    5  A    between atoms: O_11  and  C_12
REMARK    6  A    between atoms: C_13  and  O_14
REMARK    7  A    between atoms: O_14  and  C_15
REMARK    8  A    between atoms: C_16  and  O_17
REMARK    9  A    between atoms: O_17  and  C_18
REMARK   10  A    between atoms: C_22  and  O_23
REMARK   11  A    between atoms: O_23  and  C_24
REMARK   12  A    between atoms: C_25  and  O_30
REMARK   13  A    between atoms: C_26  and  O_27
REMARK   14  A    between atoms: O_27  and  C_28
REMARK   15  A    between atoms: O_30  and  C_31
REMARK                            x       y       z     vdW  Elec       q    Type
REMARK                         _______ _______ _______ _____ _____    ______ ____
ROOT
ATOM      1  O   LIG A   1      -5.463   4.966 127.772  0.00  0.00    -0.283 OA
ATOM      2  C   LIG A   1      -6.357   4.144 128.050  0.00  0.00    +0.238 A 
ATOM      3  C   LIG A   1      -6.677   2.983 127.147  0.00  0.00    +0.211 A 
ATOM      4  C   LIG A   1      -7.788   2.277 127.438  0.00  0.00    +0.181 A 
ATOM      5  O   LIG A   1      -8.634   2.561 128.482  0.00  0.00    -0.451 OA
ATOM      6  C   LIG A   1      -8.233   3.461 129.430  0.00  0.00    +0.147 A 
ATOM      7  C   LIG A   1      -7.118   4.286 129.294  0.00  0.00    +0.113 A 
ATOM      8  C   LIG A   1      -6.774   5.182 130.341  0.00  0.00    +0.180 A 
ATOM      9  C   LIG A   1      -7.565   5.235 131.505  0.00  0.00    +0.204 A 
ATOM     10  C   LIG A   1      -8.686   4.382 131.619  0.00  0.00    +0.169 A 
ATOM     11  C   LIG A   1      -9.015   3.515 130.573  0.00  0.00    +0.096 A 
ENDROOT
BRANCH   4  12
ATOM     12  C   LIG A   1      -8.234   1.099 126.674  0.00  0.00    +0.028 A 
ATOM     13  C   LIG A   1      -9.006   1.251 125.521  0.00  0.00    +0.061 A 
ATOM     14  C   LIG A   1      -9.458   0.137 124.793  0.00  0.00    +0.166 A 
ATOM     15  C   LIG A   1      -9.074  -1.172 125.186  0.00  0.00    +0.203 A 
ATOM     16  C   LIG A   1      -8.310  -1.326 126.362  0.00  0.00    +0.166 A 
ATOM     17  C   LIG A   1      -7.928  -0.196 127.107  0.00  0.00    +0.061 A 
BRANCH  14  18
ATOM     18  O   LIG A   1     -10.267   0.277 123.684  0.00  0.00    -0.491 OA
ATOM     19  C   LIG A   1      -9.840   1.217 122.693  0.00  0.00    +0.277 C 
ENDBRANCH  14  18
BRANCH  16  20
ATOM     20  O   LIG A   1      -7.844  -2.575 126.684  0.00  0.00    -0.491 OA
ATOM     21  C   LIG A   1      -8.650  -3.368 127.544  0.00  0.00    +0.277 C 
ENDBRANCH  16  20
BRANCH  15  22
ATOM     22  O   LIG A   1      -9.438  -2.201 124.339  0.00  0.00    -0.488 OA
ATOM     23  C   LIG A   1      -8.511  -2.615 123.334  0.00  0.00    +0.277 C 
ENDBRANCH  15  22
ENDBRANCH   4  12
BRANCH   3  24
ATOM     24  O   LIG A   1      -5.890   2.646 126.044  0.00  0.00    -0.488 OA
ATOM     25  C   LIG A   1      -4.667   1.949 126.292  0.00  0.00    +0.277 C 
ENDBRANCH   3  24
BRANCH   8  26
ATOM     26  O   LIG A   1      -5.696   6.002 130.093  0.00  0.00    -0.490 OA
ATOM     27  C   LIG A   1      -4.442   5.710 130.693  0.00  0.00    +0.277 C 
ENDBRANCH   8  26
BRANCH   9  28
ATOM     28  O   LIG A   1      -7.275   6.218 132.420  0.00  0.00    -0.488 OA
ATOM     29  C   LIG A   1      -6.482   5.870 133.549  0.00  0.00    +0.277 C 
ENDBRANCH   9  28
BRANCH  10  30
ATOM     30  O   LIG A   1      -9.498   4.498 132.712  0.00  0.00    -0.491 OA
ATOM     31  C   LIG A   1      -9.248   3.578 133.770  0.00  0.00    +0.277 C 
ENDBRANCH  10  30
TORSDOF 8
ENDMDL
MODEL 4
REMARK VINA RESULT:      -6.1      3.857      7.624
REMARK  Name = NuBBE_1312
REMARK  15 active torsions:
REMARK  status: ('A' for Active; 'I' for Inactive)
REMARK    1  A    between atoms: C_3  and  O_4
REMARK    2  A    between atoms: O_4  and  C_5
REMARK    3  A    between atoms: C_6  and  C_20
REMARK    4  A    between atoms: C_10  and  O_11
REMARK    5  A    between atoms: O_11  and  C_12
REMARK    6  A    between atoms: C_13  and  O_14
REMARK    7  A    between atoms: O_14  and  C_15
REMARK    8  A    between atoms: C_16  and  O_17
REMARK    9  A    between atoms: O_17  and  C_18
REMARK   10  A    between atoms: C_22  and  O_23
REMARK   11  A    between atoms: O_23  and  C_24
REMARK   12  A    between atoms: C_25  and  O_30
REMARK   13  A    between atoms: C_26  and  O_27
REMARK   14  A    between atoms: O_27  and  C_28
REMARK   15  A    between atoms: O_30  and  C_31
REMARK                            x       y       z     vdW  Elec       q    Type
REMARK                         _______ _______ _______ _____ _____    ______ ____
ROOT
ATOM      1  O   LIG A   1      -9.543  -2.243 125.356  0.00  0.00    -0.283 OA
ATOM      2  C   LIG A   1      -8.864  -1.479 126.068  0.00  0.00    +0.238 A 
ATOM      3  C   LIG A   1      -8.117  -1.976 127.277  0.00  0.00    +0.211 A 
ATOM      4  C   LIG A   1      -7.583  -1.039 128.086  0.00  0.00    +0.181 A 
ATOM      5  O   LIG A   1      -7.693   0.315 127.880  0.00  0.00    -0.451 OA
ATOM      6  C   LIG A   1      -8.167   0.763 126.679  0.00  0.00    +0.147 A 
ATOM      7  C   LIG A   1      -8.764  -0.058 125.725  0.00  0.00    +0.113 A 
ATOM      8  C   LIG A   1      -9.214   0.499 124.499  0.00  0.00    +0.180 A 
ATOM      9  C   LIG A   1      -9.062   1.879 124.260  0.00  0.00    +0.204 A 
ATOM     10  C   LIG A   1      -8.447   2.687 125.242  0.00  0.00    +0.169 A 
ATOM     11  C   LIG A   1      -8.020   2.122 126.447  0.00  0.00    +0.096 A 
ENDROOT
BRANCH   4  12
ATOM     12  C   LIG A   1      -6.802  -1.350 129.296  0.00  0.00    +0.028 A 
ATOM     13  C   LIG A   1      -5.445  -1.661 129.205  0.00  0.00    +0.061 A 
ATOM     14  C   LIG A   1      -4.690  -1.982 130.346  0.00  0.00    +0.166 A 
ATOM     15  C   LIG A   1      -5.289  -1.926 131.632  0.00  0.00    +0.203 A 
ATOM     16  C   LIG A   1      -6.666  -1.630 131.722  0.00  0.00    +0.166 A 
ATOM     17  C   LIG A   1      -7.411  -1.379 130.555  0.00  0.00    +0.061 A 
BRANCH  14  18
ATOM     18  O   LIG A   1      -3.362  -2.344 130.258  0.00  0.00    -0.491 OA
ATOM     19  C   LIG A   1      -3.041  -3.388 129.334  0.00  0.00    +0.277 C 
ENDBRANCH  14  18
BRANCH  16  20
ATOM     20  O   LIG A   1      -7.224  -1.468 132.965  0.00  0.00    -0.491 OA
ATOM     21  C   LIG A   1      -7.976  -2.553 133.488  0.00  0.00    +0.277 C 
ENDBRANCH  16  20
BRANCH  15  22
ATOM     22  O   LIG A   1      -4.449  -2.114 132.712  0.00  0.00    -0.488 OA
ATOM     23  C   LIG A   1      -4.359  -3.418 133.286  0.00  0.00    +0.277 C 
ENDBRANCH  15  22
ENDBRANCH   4  12
BRANCH   3  24
ATOM     24  O   LIG A   1      -7.986  -3.333 127.579  0.00  0.00    -0.488 OA
ATOM     25  C   LIG A   1      -9.074  -3.967 128.255  0.00  0.00    +0.277 C 
ENDBRANCH   3  24
BRANCH   8  26
ATOM     26  O   LIG A   1      -9.848  -0.374 123.644  0.00  0.00    -0.490 OA
ATOM     27  C   LIG A   1      -9.149  -0.879 122.516  0.00  0.00    +0.277 C 
ENDBRANCH   8  26
BRANCH   9  28
ATOM     28  O   LIG A   1      -9.645   2.390 123.125  0.00  0.00    -0.488 OA
ATOM     29  C   LIG A   1      -8.793   2.816 122.068  0.00  0.00    +0.277 C 
ENDBRANCH   9  28
BRANCH  10  30
ATOM     30  O   LIG A   1      -8.379   4.038 125.041  0.00  0.00    -0.491 OA
ATOM     31  C   LIG A   1      -7.192   4.673 125.505  0.00  0.00    +0.277 C 
ENDBRANCH  10  30
TORSDOF 8
ENDMDL
MODEL 5
REMARK VINA RESULT:      -6.1      3.862      7.570
REMARK  Name = NuBBE_1312
REMARK  15 active torsions:
REMARK  status: ('A' for Active; 'I' for Inactive)
REMARK    1  A    between atoms: C_3  and  O_4
REMARK    2  A    between atoms: O_4  and  C_5
REMARK    3  A    between atoms: C_6  and  C_20
REMARK    4  A    between atoms: C_10  and  O_11
REMARK    5  A    between atoms: O_11  and  C_12
REMARK    6  A    between atoms: C_13  and  O_14
REMARK    7  A    between atoms: O_14  and  C_15
REMARK    8  A    between atoms: C_16  and  O_17
REMARK    9  A    between atoms: O_17  and  C_18
REMARK   10  A    between atoms: C_22  and  O_23
REMARK   11  A    between atoms: O_23  and  C_24
REMARK   12  A    between atoms: C_25  and  O_30
REMARK   13  A    between atoms: C_26  and  O_27
REMARK   14  A    between atoms: O_27  and  C_28
REMARK   15  A    between atoms: O_30  and  C_31
REMARK                            x       y       z     vdW  Elec       q    Type
REMARK                         _______ _______ _______ _____ _____    ______ ____
ROOT
ATOM      1  O   LIG A   1      -9.507  -2.214 125.461  0.00  0.00    -0.283 OA
ATOM      2  C   LIG A   1      -8.779  -1.494 126.170  0.00  0.00    +0.238 A 
ATOM      3  C   LIG A   1      -8.024  -2.046 127.350  0.00  0.00    +0.211 A 
ATOM      4  C   LIG A   1      -7.432  -1.149 128.164  0.00  0.00    +0.181 A 
ATOM      5  O   LIG A   1      -7.491   0.213 127.988  0.00  0.00    -0.451 OA
ATOM      6  C   LIG A   1      -7.975   0.705 126.809  0.00  0.00    +0.147 A 
ATOM      7  C   LIG A   1      -8.629  -0.071 125.854  0.00  0.00    +0.113 A 
ATOM      8  C   LIG A   1      -9.086   0.530 124.652  0.00  0.00    +0.180 A 
ATOM      9  C   LIG A   1      -8.882   1.908 124.437  0.00  0.00    +0.204 A 
ATOM     10  C   LIG A   1      -8.211   2.669 125.419  0.00  0.00    +0.169 A 
ATOM     11  C   LIG A   1      -7.778   2.061 126.600  0.00  0.00    +0.096 A 
ENDROOT
BRANCH   4  12
ATOM     12  C   LIG A   1      -6.635  -1.517 129.347  0.00  0.00    +0.028 A 
ATOM     13  C   LIG A   1      -7.220  -1.553 130.614  0.00  0.00    +0.061 A 
ATOM     14  C   LIG A   1      -6.469  -1.880 131.756  0.00  0.00    +0.166 A 
ATOM     15  C   LIG A   1      -5.105  -2.251 131.627  0.00  0.00    +0.203 A 
ATOM     16  C   LIG A   1      -4.509  -2.196 130.349  0.00  0.00    +0.166 A 
ATOM     17  C   LIG A   1      -5.269  -1.799 129.234  0.00  0.00    +0.061 A 
BRANCH  14  18
ATOM     18  O   LIG A   1      -7.026  -1.865 133.018  0.00  0.00    -0.491 OA
ATOM     19  C   LIG A   1      -7.887  -2.958 133.352  0.00  0.00    +0.277 C 
ENDBRANCH  14  18
BRANCH  16  20
ATOM     20  O   LIG A   1      -3.226  -2.656 130.201  0.00  0.00    -0.491 OA
ATOM     21  C   LIG A   1      -3.003  -3.663 129.224  0.00  0.00    +0.277 C 
ENDBRANCH  16  20
BRANCH  15  22
ATOM     22  O   LIG A   1      -4.476  -2.697 132.773  0.00  0.00    -0.488 OA
ATOM     23  C   LIG A   1      -4.307  -4.103 132.952  0.00  0.00    +0.277 C 
ENDBRANCH  15  22
ENDBRANCH   4  12
BRANCH   3  24
ATOM     24  O   LIG A   1      -7.942  -3.413 127.621  0.00  0.00    -0.488 OA
ATOM     25  C   LIG A   1      -9.063  -4.028 128.259  0.00  0.00    +0.277 C 
ENDBRANCH   3  24
BRANCH   8  26
ATOM     26  O   LIG A   1      -9.777  -0.298 123.796  0.00  0.00    -0.490 OA
ATOM     27  C   LIG A   1      -9.128  -0.803 122.637  0.00  0.00    +0.277 C 
ENDBRANCH   8  26
BRANCH   9  28
ATOM     28  O   LIG A   1      -9.472   2.466 123.328  0.00  0.00    -0.488 OA
ATOM     29  C   LIG A   1      -8.637   2.818 122.231  0.00  0.00    +0.277 C 
ENDBRANCH   9  28
BRANCH  10  30
ATOM     30  O   LIG A   1      -8.091   4.020 125.243  0.00  0.00    -0.491 OA
ATOM     31  C   LIG A   1      -6.763   4.509 125.094  0.00  0.00    +0.277 C 
ENDBRANCH  10  30
TORSDOF 8
ENDMDL
MODEL 6
REMARK VINA RESULT:      -6.1      1.772      7.664
REMARK  Name = NuBBE_1312
REMARK  15 active torsions:
REMARK  status: ('A' for Active; 'I' for Inactive)
REMARK    1  A    between atoms: C_3  and  O_4
REMARK    2  A    between atoms: O_4  and  C_5
REMARK    3  A    between atoms: C_6  and  C_20
REMARK    4  A    between atoms: C_10  and  O_11
REMARK    5  A    between atoms: O_11  and  C_12
REMARK    6  A    between atoms: C_13  and  O_14
REMARK    7  A    between atoms: O_14  and  C_15
REMARK    8  A    between atoms: C_16  and  O_17
REMARK    9  A    between atoms: O_17  and  C_18
REMARK   10  A    between atoms: C_22  and  O_23
REMARK   11  A    between atoms: O_23  and  C_24
REMARK   12  A    between atoms: C_25  and  O_30
REMARK   13  A    between atoms: C_26  and  O_27
REMARK   14  A    between atoms: O_27  and  C_28
REMARK   15  A    between atoms: O_30  and  C_31
REMARK                            x       y       z     vdW  Elec       q    Type
REMARK                         _______ _______ _______ _____ _____    ______ ____
ROOT
ATOM      1  O   LIG A   1      -6.100   3.332 125.646  0.00  0.00    -0.283 OA
ATOM      2  C   LIG A   1      -6.875   2.718 126.405  0.00  0.00    +0.238 A 
ATOM      3  C   LIG A   1      -7.178   3.208 127.795  0.00  0.00    +0.211 A 
ATOM      4  C   LIG A   1      -7.863   2.368 128.597  0.00  0.00    +0.181 A 
ATOM      5  O   LIG A   1      -8.277   1.110 128.228  0.00  0.00    -0.451 OA
ATOM      6  C   LIG A   1      -8.206   0.753 126.911  0.00  0.00    +0.147 A 
ATOM      7  C   LIG A   1      -7.529   1.491 125.942  0.00  0.00    +0.113 A 
ATOM      8  C   LIG A   1      -7.522   1.044 124.595  0.00  0.00    +0.180 A 
ATOM      9  C   LIG A   1      -8.193  -0.146 124.249  0.00  0.00    +0.204 A 
ATOM     10  C   LIG A   1      -8.876  -0.870 125.250  0.00  0.00    +0.169 A 
ATOM     11  C   LIG A   1      -8.862  -0.420 126.573  0.00  0.00    +0.096 A 
ENDROOT
BRANCH   4  12
ATOM     12  C   LIG A   1      -8.264   2.696 129.977  0.00  0.00    +0.028 A 
ATOM     13  C   LIG A   1      -7.794   1.941 131.052  0.00  0.00    +0.061 A 
ATOM     14  C   LIG A   1      -8.184   2.226 132.371  0.00  0.00    +0.166 A 
ATOM     15  C   LIG A   1      -9.017   3.344 132.639  0.00  0.00    +0.203 A 
ATOM     16  C   LIG A   1      -9.507   4.096 131.551  0.00  0.00    +0.166 A 
ATOM     17  C   LIG A   1      -9.153   3.745 130.236  0.00  0.00    +0.061 A 
BRANCH  14  18
ATOM     18  O   LIG A   1      -7.767   1.451 133.433  0.00  0.00    -0.491 OA
ATOM     19  C   LIG A   1      -6.361   1.431 133.701  0.00  0.00    +0.277 C 
ENDBRANCH  14  18
BRANCH  16  20
ATOM     20  O   LIG A   1     -10.221   5.238 131.809  0.00  0.00    -0.491 OA
ATOM     21  C   LIG A   1      -9.648   6.471 131.397  0.00  0.00    +0.277 C 
ENDBRANCH  16  20
BRANCH  15  22
ATOM     22  O   LIG A   1      -9.237   3.643 133.970  0.00  0.00    -0.488 OA
ATOM     23  C   LIG A   1      -8.314   4.505 134.635  0.00  0.00    +0.277 C 
ENDBRANCH  15  22
ENDBRANCH   4  12
BRANCH   3  24
ATOM     24  O   LIG A   1      -6.765   4.457 128.263  0.00  0.00    -0.488 OA
ATOM     25  C   LIG A   1      -5.449   4.556 128.809  0.00  0.00    +0.277 C 
ENDBRANCH   3  24
BRANCH   8  26
ATOM     26  O   LIG A   1      -6.776   1.800 123.719  0.00  0.00    -0.490 OA
ATOM     27  C   LIG A   1      -7.435   2.587 122.737  0.00  0.00    +0.277 C 
ENDBRANCH   8  26
BRANCH   9  28
ATOM     28  O   LIG A   1      -8.032  -0.609 122.965  0.00  0.00    -0.488 OA
ATOM     29  C   LIG A   1      -6.958  -1.506 122.706  0.00  0.00    +0.277 C 
ENDBRANCH   9  28
BRANCH  10  30
ATOM     30  O   LIG A   1      -9.453  -2.067 124.925  0.00  0.00    -0.491 OA
ATOM     31  C   LIG A   1      -9.066  -3.178 125.728  0.00  0.00    +0.277 C 
ENDBRANCH  10  30
TORSDOF 8
ENDMDL
MODEL 7
REMARK VINA RESULT:      -6.1      2.569      7.409
REMARK  Name = NuBBE_1312
REMARK  15 active torsions:
REMARK  status: ('A' for Active; 'I' for Inactive)
REMARK    1  A    between atoms: C_3  and  O_4
REMARK    2  A    between atoms: O_4  and  C_5
REMARK    3  A    between atoms: C_6  and  C_20
REMARK    4  A    between atoms: C_10  and  O_11
REMARK    5  A    between atoms: O_11  and  C_12
REMARK    6  A    between atoms: C_13  and  O_14
REMARK    7  A    between atoms: O_14  and  C_15
REMARK    8  A    between atoms: C_16  and  O_17
REMARK    9  A    between atoms: O_17  and  C_18
REMARK   10  A    between atoms: C_22  and  O_23
REMARK   11  A    between atoms: O_23  and  C_24
REMARK   12  A    between atoms: C_25  and  O_30
REMARK   13  A    between atoms: C_26  and  O_27
REMARK   14  A    between atoms: O_27  and  C_28
REMARK   15  A    between atoms: O_30  and  C_31
REMARK                            x       y       z     vdW  Elec       q    Type
REMARK                         _______ _______ _______ _____ _____    ______ ____
ROOT
ATOM      1  O   LIG A   1      -5.346   4.730 125.284  0.00  0.00    -0.283 OA
ATOM      2  C   LIG A   1      -6.376   4.181 125.720  0.00  0.00    +0.238 A 
ATOM      3  C   LIG A   1      -6.713   4.179 127.187  0.00  0.00    +0.211 A 
ATOM      4  C   LIG A   1      -7.735   3.389 127.573  0.00  0.00    +0.181 A 
ATOM      5  O   LIG A   1      -8.461   2.591 126.721  0.00  0.00    -0.451 OA
ATOM      6  C   LIG A   1      -8.311   2.758 125.374  0.00  0.00    +0.147 A 
ATOM      7  C   LIG A   1      -7.303   3.527 124.794  0.00  0.00    +0.113 A 
ATOM      8  C   LIG A   1      -7.237   3.650 123.381  0.00  0.00    +0.180 A 
ATOM      9  C   LIG A   1      -8.186   2.990 122.575  0.00  0.00    +0.204 A 
ATOM     10  C   LIG A   1      -9.200   2.223 123.190  0.00  0.00    +0.169 A 
ATOM     11  C   LIG A   1      -9.242   2.104 124.582  0.00  0.00    +0.096 A 
ENDROOT
BRANCH   4  12
ATOM     12  C   LIG A   1      -8.212   3.287 128.963  0.00  0.00    +0.028 A 
ATOM     13  C   LIG A   1      -7.859   2.194 129.757  0.00  0.00    +0.061 A 
ATOM     14  C   LIG A   1      -8.323   2.069 131.077  0.00  0.00    +0.166 A 
ATOM     15  C   LIG A   1      -9.112   3.100 131.652  0.00  0.00    +0.203 A 
ATOM     16  C   LIG A   1      -9.486   4.195 130.844  0.00  0.00    +0.166 A 
ATOM     17  C   LIG A   1      -9.061   4.258 129.505  0.00  0.00    +0.061 A 
BRANCH  14  18
ATOM     18  O   LIG A   1      -8.023   0.967 131.849  0.00  0.00    -0.491 OA
ATOM     19  C   LIG A   1      -8.728  -0.241 131.544  0.00  0.00    +0.277 C 
ENDBRANCH  14  18
BRANCH  16  20
ATOM     20  O   LIG A   1     -10.153   5.243 131.424  0.00  0.00    -0.491 OA
ATOM     21  C   LIG A   1     -11.415   5.595 130.875  0.00  0.00    +0.277 C 
ENDBRANCH  16  20
BRANCH  15  22
ATOM     22  O   LIG A   1      -9.408   2.972 132.996  0.00  0.00    -0.488 OA
ATOM     23  C   LIG A   1      -8.539   3.591 133.945  0.00  0.00    +0.277 C 
ENDBRANCH  15  22
ENDBRANCH   4  12
BRANCH   3  24
ATOM     24  O   LIG A   1      -6.006   4.934 128.126  0.00  0.00    -0.488 OA
ATOM     25  C   LIG A   1      -4.797   4.377 128.646  0.00  0.00    +0.277 C 
ENDBRANCH   3  24
BRANCH   8  26
ATOM     26  O   LIG A   1      -6.173   4.376 122.895  0.00  0.00    -0.490 OA
ATOM     27  C   LIG A   1      -5.335   3.806 121.899  0.00  0.00    +0.277 C 
ENDBRANCH   8  26
BRANCH   9  28
ATOM     28  O   LIG A   1      -7.990   3.022 121.216  0.00  0.00    -0.488 OA
ATOM     29  C   LIG A   1      -8.802   3.898 120.443  0.00  0.00    +0.277 C 
ENDBRANCH   9  28
BRANCH  10  30
ATOM     30  O   LIG A   1     -10.066   1.515 122.402  0.00  0.00    -0.491 OA
ATOM     31  C   LIG A   1     -10.047   0.102 122.577  0.00  0.00    +0.277 C 
ENDBRANCH  10  30
TORSDOF 8
ENDMDL
MODEL 8
REMARK VINA RESULT:      -6.1      2.537      8.476
REMARK  Name = NuBBE_1312
REMARK  15 active torsions:
REMARK  status: ('A' for Active; 'I' for Inactive)
REMARK    1  A    between atoms: C_3  and  O_4
REMARK    2  A    between atoms: O_4  and  C_5
REMARK    3  A    between atoms: C_6  and  C_20
REMARK    4  A    between atoms: C_10  and  O_11
REMARK    5  A    between atoms: O_11  and  C_12
REMARK    6  A    between atoms: C_13  and  O_14
REMARK    7  A    between atoms: O_14  and  C_15
REMARK    8  A    between atoms: C_16  and  O_17
REMARK    9  A    between atoms: O_17  and  C_18
REMARK   10  A    between atoms: C_22  and  O_23
REMARK   11  A    between atoms: O_23  and  C_24
REMARK   12  A    between atoms: C_25  and  O_30
REMARK   13  A    between atoms: C_26  and  O_27
REMARK   14  A    between atoms: O_27  and  C_28
REMARK   15  A    between atoms: O_30  and  C_31
REMARK                            x       y       z     vdW  Elec       q    Type
REMARK                         _______ _______ _______ _____ _____    ______ ____
ROOT
ATOM      1  O   LIG A   1      -9.441   2.303 124.903  0.00  0.00    -0.283 OA
ATOM      2  C   LIG A   1      -8.391   1.872 125.415  0.00  0.00    +0.238 A 
ATOM      3  C   LIG A   1      -7.624   2.664 126.440  0.00  0.00    +0.211 A 
ATOM      4  C   LIG A   1      -6.403   2.200 126.776  0.00  0.00    +0.181 A 
ATOM      5  O   LIG A   1      -5.828   1.075 126.236  0.00  0.00    -0.451 OA
ATOM      6  C   LIG A   1      -6.601   0.235 125.484  0.00  0.00    +0.147 A 
ATOM      7  C   LIG A   1      -7.880   0.553 125.033  0.00  0.00    +0.113 A 
ATOM      8  C   LIG A   1      -8.611  -0.393 124.267  0.00  0.00    +0.180 A 
ATOM      9  C   LIG A   1      -8.035  -1.642 123.962  0.00  0.00    +0.204 A 
ATOM     10  C   LIG A   1      -6.739  -1.940 124.437  0.00  0.00    +0.169 A 
ATOM     11  C   LIG A   1      -6.031  -0.992 125.181  0.00  0.00    +0.096 A 
ENDROOT
BRANCH   4  12
ATOM     12  C   LIG A   1      -5.531   2.837 127.778  0.00  0.00    +0.028 A 
ATOM     13  C   LIG A   1      -5.608   2.471 129.122  0.00  0.00    +0.061 A 
ATOM     14  C   LIG A   1      -4.800   3.086 130.094  0.00  0.00    +0.166 A 
ATOM     15  C   LIG A   1      -3.832   4.050 129.706  0.00  0.00    +0.203 A 
ATOM     16  C   LIG A   1      -3.768   4.433 128.350  0.00  0.00    +0.166 A 
ATOM     17  C   LIG A   1      -4.637   3.849 127.411  0.00  0.00    +0.061 A 
BRANCH  14  18
ATOM     18  O   LIG A   1      -4.908   2.769 131.432  0.00  0.00    -0.491 OA
ATOM     19  C   LIG A   1      -6.133   3.129 132.080  0.00  0.00    +0.277 C 
ENDBRANCH  14  18
BRANCH  16  20
ATOM     20  O   LIG A   1      -2.765   5.280 127.953  0.00  0.00    -0.491 OA
ATOM     21  C   LIG A   1      -3.032   6.674 128.004  0.00  0.00    +0.277 C 
ENDBRANCH  16  20
BRANCH  15  22
ATOM     22  O   LIG A   1      -2.980   4.500 130.696  0.00  0.00    -0.488 OA
ATOM     23  C   LIG A   1      -3.354   5.660 131.439  0.00  0.00    +0.277 C 
ENDBRANCH  15  22
ENDBRANCH   4  12
BRANCH   3  24
ATOM     24  O   LIG A   1      -8.120   3.836 127.014  0.00  0.00    -0.488 OA
ATOM     25  C   LIG A   1      -8.142   5.012 126.203  0.00  0.00    +0.277 C 
ENDBRANCH   3  24
BRANCH   8  26
ATOM     26  O   LIG A   1      -9.839   0.031 123.811  0.00  0.00    -0.490 OA
ATOM     27  C   LIG A   1     -10.014   0.307 122.429  0.00  0.00    +0.277 C 
ENDBRANCH   8  26
BRANCH   9  28
ATOM     28  O   LIG A   1      -8.723  -2.459 123.097  0.00  0.00    -0.488 OA
ATOM     29  C   LIG A   1      -9.580  -3.450 123.652  0.00  0.00    +0.277 C 
ENDBRANCH   9  28
BRANCH  10  30
ATOM     30  O   LIG A   1      -6.151  -3.118 124.067  0.00  0.00    -0.491 OA
ATOM     31  C   LIG A   1      -5.011  -3.002 123.223  0.00  0.00    +0.277 C 
ENDBRANCH  10  30
TORSDOF 8
ENDMDL
MODEL 9
REMARK VINA RESULT:      -6.0      1.762      8.358
REMARK  Name = NuBBE_1312
REMARK  15 active torsions:
REMARK  status: ('A' for Active; 'I' for Inactive)
REMARK    1  A    between atoms: C_3  and  O_4
REMARK    2  A    between atoms: O_4  and  C_5
REMARK    3  A    between atoms: C_6  and  C_20
REMARK    4  A    between atoms: C_10  and  O_11
REMARK    5  A    between atoms: O_11  and  C_12
REMARK    6  A    between atoms: C_13  and  O_14
REMARK    7  A    between atoms: O_14  and  C_15
REMARK    8  A    between atoms: C_16  and  O_17
REMARK    9  A    between atoms: O_17  and  C_18
REMARK   10  A    between atoms: C_22  and  O_23
REMARK   11  A    between atoms: O_23  and  C_24
REMARK   12  A    between atoms: C_25  and  O_30
REMARK   13  A    between atoms: C_26  and  O_27
REMARK   14  A    between atoms: O_27  and  C_28
REMARK   15  A    between atoms: O_30  and  C_31
REMARK                            x       y       z     vdW  Elec       q    Type
REMARK                         _______ _______ _______ _____ _____    ______ ____
ROOT
ATOM      1  O   LIG A   1      -6.868  -1.749 128.228  0.00  0.00    -0.283 OA
ATOM      2  C   LIG A   1      -7.417  -0.665 127.954  0.00  0.00    +0.238 A 
ATOM      3  C   LIG A   1      -7.418   0.490 128.920  0.00  0.00    +0.211 A 
ATOM      4  C   LIG A   1      -8.208   1.538 128.611  0.00  0.00    +0.181 A 
ATOM      5  O   LIG A   1      -9.006   1.602 127.494  0.00  0.00    -0.451 OA
ATOM      6  C   LIG A   1      -8.839   0.669 126.510  0.00  0.00    +0.147 A 
ATOM      7  C   LIG A   1      -8.072  -0.484 126.656  0.00  0.00    +0.113 A 
ATOM      8  C   LIG A   1      -7.948  -1.390 125.569  0.00  0.00    +0.180 A 
ATOM      9  C   LIG A   1      -8.609  -1.120 124.354  0.00  0.00    +0.204 A 
ATOM     10  C   LIG A   1      -9.375   0.061 124.232  0.00  0.00    +0.169 A 
ATOM     11  C   LIG A   1      -9.494   0.934 125.317  0.00  0.00    +0.096 A 
ENDROOT
BRANCH   4  12
ATOM     12  C   LIG A   1      -8.310   2.757 129.431  0.00  0.00    +0.028 A 
ATOM     13  C   LIG A   1      -9.551   3.204 129.888  0.00  0.00    +0.061 A 
ATOM     14  C   LIG A   1      -9.668   4.378 130.652  0.00  0.00    +0.166 A 
ATOM     15  C   LIG A   1      -8.505   5.096 131.034  0.00  0.00    +0.203 A 
ATOM     16  C   LIG A   1      -7.253   4.655 130.556  0.00  0.00    +0.166 A 
ATOM     17  C   LIG A   1      -7.174   3.515 129.736  0.00  0.00    +0.061 A 
BRANCH  14  18
ATOM     18  O   LIG A   1     -10.896   4.856 131.061  0.00  0.00    -0.491 OA
ATOM     19  C   LIG A   1     -11.616   5.662 130.123  0.00  0.00    +0.277 C 
ENDBRANCH  14  18
BRANCH  16  20
ATOM     20  O   LIG A   1      -6.119   5.279 131.009  0.00  0.00    -0.491 OA
ATOM     21  C   LIG A   1      -5.234   4.516 131.816  0.00  0.00    +0.277 C 
ENDBRANCH  16  20
BRANCH  15  22
ATOM     22  O   LIG A   1      -8.691   6.154 131.903  0.00  0.00    -0.488 OA
ATOM     23  C   LIG A   1      -8.668   5.893 133.306  0.00  0.00    +0.277 C 
ENDBRANCH  15  22
ENDBRANCH   4  12
BRANCH   3  24
ATOM     24  O   LIG A   1      -6.663   0.492 130.095  0.00  0.00    -0.488 OA
ATOM     25  C   LIG A   1      -7.226  -0.146 131.243  0.00  0.00    +0.277 C 
ENDBRANCH   3  24
BRANCH   8  26
ATOM     26  O   LIG A   1      -7.223  -2.532 125.824  0.00  0.00    -0.490 OA
ATOM     27  C   LIG A   1      -5.966  -2.718 125.190  0.00  0.00    +0.277 C 
ENDBRANCH   8  26
BRANCH   9  28
ATOM     28  O   LIG A   1      -8.577  -2.097 123.389  0.00  0.00    -0.488 OA
ATOM     29  C   LIG A   1      -9.507  -3.169 123.489  0.00  0.00    +0.277 C 
ENDBRANCH   9  28
BRANCH  10  30
ATOM     30  O   LIG A   1     -10.083   0.275 123.082  0.00  0.00    -0.491 OA
ATOM     31  C   LIG A   1      -9.838   1.516 122.427  0.00  0.00    +0.277 C 
ENDBRANCH  10  30
TORSDOF 8
ENDMDL
