MODEL 1
REMARK VINA RESULT:      -6.2      0.000      0.000
REMARK  Name = NuBBE_1676
REMARK  16 active torsions:
REMARK  status: ('A' for Active; 'I' for Inactive)
REMARK    1  A    between atoms: C_1  and  C_2
REMARK    2  A    between atoms: C_2  and  C_3
REMARK    3  A    between atoms: C_3  and  C_4
REMARK    4  A    between atoms: C_4  and  C_5
REMARK    5  A    between atoms: C_5  and  C_6
REMARK    6  A    between atoms: C_6  and  C_7
REMARK    7  A    between atoms: C_7  and  C_8
REMARK    8  A    between atoms: C_8  and  C_9
REMARK    9  A    between atoms: C_9  and  C_10
REMARK   10  A    between atoms: C_10  and  C_11
REMARK   11  A    between atoms: C_11  and  C_12
REMARK   12  A    between atoms: C_12  and  C_13
REMARK   13  A    between atoms: C_13  and  C_14
REMARK   14  A    between atoms: C_14  and  C_15
REMARK   15  A    between atoms: C_15  and  C_16
REMARK   16  A    between atoms: C_20  and  O_21
REMARK                            x       y       z     vdW  Elec       q    Type
REMARK                         _______ _______ _______ _____ _____    ______ ____
ROOT
ATOM      1  C   LIG A   1      -9.476  -2.956 125.992  0.00  0.00    +0.000 C 
ENDROOT
BRANCH   1   2
ATOM      2  C   LIG A   1      -8.772  -3.552 124.741  0.00  0.00    -0.000 C 
BRANCH   2   3
ATOM      3  C   LIG A   1      -9.258  -3.145 123.314  0.00  0.00    -0.000 C 
BRANCH   3   4
ATOM      4  C   LIG A   1      -8.578  -1.975 122.514  0.00  0.00    -0.000 C 
BRANCH   4   5
ATOM      5  C   LIG A   1      -8.612  -0.585 123.163  0.00  0.00    -0.000 C 
BRANCH   5   6
ATOM      6  C   LIG A   1      -7.388   0.205 123.590  0.00  0.00    -0.000 C 
BRANCH   6   7
ATOM      7  C   LIG A   1      -7.241   0.463 125.129  0.00  0.00    -0.000 C 
BRANCH   7   8
ATOM      8  C   LIG A   1      -6.348  -0.478 125.944  0.00  0.00    -0.000 C 
BRANCH   8   9
ATOM      9  C   LIG A   1      -5.311  -1.272 125.112  0.00  0.00    -0.000 C 
BRANCH   9  10
ATOM     10  C   LIG A   1      -5.536  -2.781 124.904  0.00  0.00    -0.000 C 
BRANCH  10  12
ATOM     11  C   LIG A   1      -4.099  -4.453 123.595  0.00  0.00    +0.004 C 
ATOM     12  C   LIG A   1      -5.055  -3.271 123.525  0.00  0.00    -0.003 C 
ENDBRANCH  10  12
ENDBRANCH   9  10
ENDBRANCH   8   9
ENDBRANCH   7   8
ENDBRANCH   6   7
ENDBRANCH   5   6
ENDBRANCH   4   5
ENDBRANCH   3   4
ENDBRANCH   2   3
ENDBRANCH   1   2
BRANCH   1  13
ATOM     13  C   LIG A   1      -8.888  -3.514 127.256  0.00  0.00    +0.000 C 
BRANCH  13  14
ATOM     14  C   LIG A   1      -7.743  -2.917 128.041  0.00  0.00    +0.005 C 
BRANCH  14  15
ATOM     15  C   LIG A   1      -8.087  -2.682 129.522  0.00  0.00    +0.035 C 
BRANCH  15  16
ATOM     16  C   LIG A   1      -7.211  -3.279 130.599  0.00  0.00    -0.044 A 
ATOM     17  C   LIG A   1      -6.324  -4.251 130.106  0.00  0.00    +0.004 A 
ATOM     18  C   LIG A   1      -5.473  -4.938 130.970  0.00  0.00    +0.004 A 
ATOM     19  C   LIG A   1      -5.458  -4.722 132.336  0.00  0.00    +0.045 A 
ATOM     20  C   LIG A   1      -6.326  -3.720 132.836  0.00  0.00    +0.117 A 
ATOM     21  C   LIG A   1      -7.138  -3.017 131.964  0.00  0.00    +0.049 A 
BRANCH  20  22
ATOM     22  O   LIG A   1      -6.372  -3.476 134.168  0.00  0.00    -0.507 OA
ATOM     23  H   LIG A   1      -7.240  -3.112 134.407  0.00  0.00    +0.292 HD
ENDBRANCH  20  22
ENDBRANCH  15  16
ENDBRANCH  14  15
ENDBRANCH  13  14
ENDBRANCH   1  13
TORSDOF 15
ENDMDL
MODEL 2
REMARK VINA RESULT:      -6.1      3.129      6.566
REMARK  Name = NuBBE_1676
REMARK  16 active torsions:
REMARK  status: ('A' for Active; 'I' for Inactive)
REMARK    1  A    between atoms: C_1  and  C_2
REMARK    2  A    between atoms: C_2  and  C_3
REMARK    3  A    between atoms: C_3  and  C_4
REMARK    4  A    between atoms: C_4  and  C_5
REMARK    5  A    between atoms: C_5  and  C_6
REMARK    6  A    between atoms: C_6  and  C_7
REMARK    7  A    between atoms: C_7  and  C_8
REMARK    8  A    between atoms: C_8  and  C_9
REMARK    9  A    between atoms: C_9  and  C_10
REMARK   10  A    between atoms: C_10  and  C_11
REMARK   11  A    between atoms: C_11  and  C_12
REMARK   12  A    between atoms: C_12  and  C_13
REMARK   13  A    between atoms: C_13  and  C_14
REMARK   14  A    between atoms: C_14  and  C_15
REMARK   15  A    between atoms: C_15  and  C_16
REMARK   16  A    between atoms: C_20  and  O_21
REMARK                            x       y       z     vdW  Elec       q    Type
REMARK                         _______ _______ _______ _____ _____    ______ ____
ROOT
ATOM      1  C   LIG A   1      -5.387  -2.268 127.779  0.00  0.00    +0.000 C 
ENDROOT
BRANCH   1   2
ATOM      2  C   LIG A   1      -5.913  -2.485 129.226  0.00  0.00    -0.000 C 
BRANCH   2   3
ATOM      3  C   LIG A   1      -7.056  -3.517 129.486  0.00  0.00    -0.000 C 
BRANCH   3   4
ATOM      4  C   LIG A   1      -8.515  -3.284 128.948  0.00  0.00    -0.000 C 
BRANCH   4   5
ATOM      5  C   LIG A   1      -8.820  -3.802 127.537  0.00  0.00    -0.000 C 
BRANCH   5   6
ATOM      6  C   LIG A   1      -8.834  -2.948 126.281  0.00  0.00    -0.000 C 
BRANCH   6   7
ATOM      7  C   LIG A   1      -8.744  -3.724 124.923  0.00  0.00    -0.000 C 
BRANCH   7   8
ATOM      8  C   LIG A   1      -9.331  -3.068 123.669  0.00  0.00    -0.000 C 
BRANCH   8   9
ATOM      9  C   LIG A   1      -8.286  -2.449 122.709  0.00  0.00    -0.000 C 
BRANCH   9  10
ATOM     10  C   LIG A   1      -7.792  -1.016 122.985  0.00  0.00    -0.000 C 
BRANCH  10  12
ATOM     11  C   LIG A   1      -5.655  -2.205 123.754  0.00  0.00    +0.004 C 
ATOM     12  C   LIG A   1      -6.546  -0.978 123.888  0.00  0.00    -0.003 C 
ENDBRANCH  10  12
ENDBRANCH   9  10
ENDBRANCH   8   9
ENDBRANCH   7   8
ENDBRANCH   6   7
ENDBRANCH   5   6
ENDBRANCH   4   5
ENDBRANCH   3   4
ENDBRANCH   2   3
ENDBRANCH   1   2
BRANCH   1  13
ATOM     13  C   LIG A   1      -5.722  -0.890 127.287  0.00  0.00    +0.000 C 
BRANCH  13  14
ATOM     14  C   LIG A   1      -6.467   0.173 128.062  0.00  0.00    +0.005 C 
BRANCH  14  15
ATOM     15  C   LIG A   1      -7.969   0.216 127.731  0.00  0.00    +0.035 C 
BRANCH  15  16
ATOM     16  C   LIG A   1      -8.441   0.912 126.476  0.00  0.00    -0.044 A 
ATOM     17  C   LIG A   1      -7.544   1.897 126.027  0.00  0.00    +0.004 A 
ATOM     18  C   LIG A   1      -7.842   2.670 124.907  0.00  0.00    +0.004 A 
ATOM     19  C   LIG A   1      -9.018   2.533 124.192  0.00  0.00    +0.045 A 
ATOM     20  C   LIG A   1      -9.913   1.520 124.619  0.00  0.00    +0.117 A 
ATOM     21  C   LIG A   1      -9.589   0.732 125.709  0.00  0.00    +0.049 A 
BRANCH  20  22
ATOM     22  O   LIG A   1     -11.092   1.350 123.973  0.00  0.00    -0.507 OA
ATOM     23  H   LIG A   1     -11.596   0.633 124.390  0.00  0.00    +0.292 HD
ENDBRANCH  20  22
ENDBRANCH  15  16
ENDBRANCH  14  15
ENDBRANCH  13  14
ENDBRANCH   1  13
TORSDOF 15
ENDMDL
MODEL 3
REMARK VINA RESULT:      -5.9      3.437      7.225
REMARK  Name = NuBBE_1676
REMARK  16 active torsions:
REMARK  status: ('A' for Active; 'I' for Inactive)
REMARK    1  A    between atoms: C_1  and  C_2
REMARK    2  A    between atoms: C_2  and  C_3
REMARK    3  A    between atoms: C_3  and  C_4
REMARK    4  A    between atoms: C_4  and  C_5
REMARK    5  A    between atoms: C_5  and  C_6
REMARK    6  A    between atoms: C_6  and  C_7
REMARK    7  A    between atoms: C_7  and  C_8
REMARK    8  A    between atoms: C_8  and  C_9
REMARK    9  A    between atoms: C_9  and  C_10
REMARK   10  A    between atoms: C_10  and  C_11
REMARK   11  A    between atoms: C_11  and  C_12
REMARK   12  A    between atoms: C_12  and  C_13
REMARK   13  A    between atoms: C_13  and  C_14
REMARK   14  A    between atoms: C_14  and  C_15
REMARK   15  A    between atoms: C_15  and  C_16
REMARK   16  A    between atoms: C_20  and  O_21
REMARK                            x       y       z     vdW  Elec       q    Type
REMARK                         _______ _______ _______ _____ _____    ______ ____
ROOT
ATOM      1  C   LIG A   1      -5.265  -2.173 127.285  0.00  0.00    +0.000 C 
ENDROOT
BRANCH   1   2
ATOM      2  C   LIG A   1      -4.923  -2.438 128.778  0.00  0.00    -0.000 C 
BRANCH   2   3
ATOM      3  C   LIG A   1      -6.076  -2.557 129.825  0.00  0.00    -0.000 C 
BRANCH   3   4
ATOM      4  C   LIG A   1      -7.214  -3.631 129.679  0.00  0.00    -0.000 C 
BRANCH   4   5
ATOM      5  C   LIG A   1      -8.438  -3.229 128.845  0.00  0.00    -0.000 C 
BRANCH   5   6
ATOM      6  C   LIG A   1      -8.751  -3.750 127.454  0.00  0.00    -0.000 C 
BRANCH   6   7
ATOM      7  C   LIG A   1      -8.876  -2.667 126.329  0.00  0.00    -0.000 C 
BRANCH   7   8
ATOM      8  C   LIG A   1      -9.420  -3.096 124.962  0.00  0.00    -0.000 C 
BRANCH   8   9
ATOM      9  C   LIG A   1      -8.356  -3.204 123.843  0.00  0.00    -0.000 C 
BRANCH   9  10
ATOM     10  C   LIG A   1      -6.929  -2.705 124.134  0.00  0.00    -0.000 C 
BRANCH  10  12
ATOM     11  C   LIG A   1      -4.524  -3.321 123.493  0.00  0.00    +0.004 C 
ATOM     12  C   LIG A   1      -5.870  -3.816 124.003  0.00  0.00    -0.003 C 
ENDBRANCH  10  12
ENDBRANCH   9  10
ENDBRANCH   8   9
ENDBRANCH   7   8
ENDBRANCH   6   7
ENDBRANCH   5   6
ENDBRANCH   4   5
ENDBRANCH   3   4
ENDBRANCH   2   3
ENDBRANCH   1   2
BRANCH   1  13
ATOM     13  C   LIG A   1      -5.686  -0.747 127.076  0.00  0.00    +0.000 C 
BRANCH  13  14
ATOM     14  C   LIG A   1      -5.370   0.105 125.868  0.00  0.00    +0.005 C 
BRANCH  14  15
ATOM     15  C   LIG A   1      -6.136   1.439 125.857  0.00  0.00    +0.035 C 
BRANCH  15  16
ATOM     16  C   LIG A   1      -7.237   1.663 124.846  0.00  0.00    -0.044 A 
ATOM     17  C   LIG A   1      -8.207   0.646 124.861  0.00  0.00    +0.004 A 
ATOM     18  C   LIG A   1      -9.272   0.669 123.962  0.00  0.00    +0.004 A 
ATOM     19  C   LIG A   1      -9.429   1.660 123.011  0.00  0.00    +0.045 A 
ATOM     20  C   LIG A   1      -8.473   2.706 123.011  0.00  0.00    +0.117 A 
ATOM     21  C   LIG A   1      -7.442   2.694 123.934  0.00  0.00    +0.049 A 
BRANCH  20  22
ATOM     22  O   LIG A   1      -8.560   3.696 122.090  0.00  0.00    -0.507 OA
ATOM     23  H   LIG A   1      -9.421   4.138 122.161  0.00  0.00    +0.292 HD
ENDBRANCH  20  22
ENDBRANCH  15  16
ENDBRANCH  14  15
ENDBRANCH  13  14
ENDBRANCH   1  13
TORSDOF 15
ENDMDL
MODEL 4
REMARK VINA RESULT:      -5.9      4.692      8.622
REMARK  Name = NuBBE_1676
REMARK  16 active torsions:
REMARK  status: ('A' for Active; 'I' for Inactive)
REMARK    1  A    between atoms: C_1  and  C_2
REMARK    2  A    between atoms: C_2  and  C_3
REMARK    3  A    between atoms: C_3  and  C_4
REMARK    4  A    between atoms: C_4  and  C_5
REMARK    5  A    between atoms: C_5  and  C_6
REMARK    6  A    between atoms: C_6  and  C_7
REMARK    7  A    between atoms: C_7  and  C_8
REMARK    8  A    between atoms: C_8  and  C_9
REMARK    9  A    between atoms: C_9  and  C_10
REMARK   10  A    between atoms: C_10  and  C_11
REMARK   11  A    between atoms: C_11  and  C_12
REMARK   12  A    between atoms: C_12  and  C_13
REMARK   13  A    between atoms: C_13  and  C_14
REMARK   14  A    between atoms: C_14  and  C_15
REMARK   15  A    between atoms: C_15  and  C_16
REMARK   16  A    between atoms: C_20  and  O_21
REMARK                            x       y       z     vdW  Elec       q    Type
REMARK                         _______ _______ _______ _____ _____    ______ ____
ROOT
ATOM      1  C   LIG A   1      -8.713  -0.448 122.973  0.00  0.00    +0.000 C 
ENDROOT
BRANCH   1   2
ATOM      2  C   LIG A   1      -9.443  -1.698 123.538  0.00  0.00    -0.000 C 
BRANCH   2   3
ATOM      3  C   LIG A   1      -8.705  -3.074 123.573  0.00  0.00    -0.000 C 
BRANCH   3   4
ATOM      4  C   LIG A   1      -8.514  -3.872 124.914  0.00  0.00    -0.000 C 
BRANCH   4   5
ATOM      5  C   LIG A   1      -9.139  -3.260 126.175  0.00  0.00    -0.000 C 
BRANCH   5   6
ATOM      6  C   LIG A   1      -8.716  -3.581 127.598  0.00  0.00    -0.000 C 
BRANCH   6   7
ATOM      7  C   LIG A   1      -7.705  -2.579 128.254  0.00  0.00    -0.000 C 
BRANCH   7   8
ATOM      8  C   LIG A   1      -7.044  -1.523 127.363  0.00  0.00    -0.000 C 
BRANCH   8   9
ATOM      9  C   LIG A   1      -5.752  -1.993 126.648  0.00  0.00    -0.000 C 
BRANCH   9  10
ATOM     10  C   LIG A   1      -5.491  -1.511 125.209  0.00  0.00    -0.000 C 
BRANCH  10  12
ATOM     11  C   LIG A   1      -5.498  -2.401 122.805  0.00  0.00    +0.004 C 
ATOM     12  C   LIG A   1      -5.116  -2.661 124.255  0.00  0.00    -0.003 C 
ENDBRANCH  10  12
ENDBRANCH   9  10
ENDBRANCH   8   9
ENDBRANCH   7   8
ENDBRANCH   6   7
ENDBRANCH   5   6
ENDBRANCH   4   5
ENDBRANCH   3   4
ENDBRANCH   2   3
ENDBRANCH   1   2
BRANCH   1  13
ATOM     13  C   LIG A   1      -8.294   0.475 124.081  0.00  0.00    +0.000 C 
BRANCH  13  14
ATOM     14  C   LIG A   1      -7.523   1.765 123.919  0.00  0.00    +0.005 C 
BRANCH  14  15
ATOM     15  C   LIG A   1      -8.137   2.704 122.868  0.00  0.00    +0.035 C 
BRANCH  15  16
ATOM     16  C   LIG A   1      -7.242   3.396 121.865  0.00  0.00    -0.044 A 
ATOM     17  C   LIG A   1      -5.959   3.662 122.372  0.00  0.00    +0.004 A 
ATOM     18  C   LIG A   1      -5.017   4.337 121.598  0.00  0.00    +0.004 A 
ATOM     19  C   LIG A   1      -5.283   4.789 120.318  0.00  0.00    +0.045 A 
ATOM     20  C   LIG A   1      -6.564   4.495 119.788  0.00  0.00    +0.117 A 
ATOM     21  C   LIG A   1      -7.478   3.790 120.551  0.00  0.00    +0.049 A 
BRANCH  20  22
ATOM     22  O   LIG A   1      -6.894   4.930 118.548  0.00  0.00    -0.507 OA
ATOM     23  H   LIG A   1      -7.682   5.494 118.594  0.00  0.00    +0.292 HD
ENDBRANCH  20  22
ENDBRANCH  15  16
ENDBRANCH  14  15
ENDBRANCH  13  14
ENDBRANCH   1  13
TORSDOF 15
ENDMDL
MODEL 5
REMARK VINA RESULT:      -5.9      3.195      6.492
REMARK  Name = NuBBE_1676
REMARK  16 active torsions:
REMARK  status: ('A' for Active; 'I' for Inactive)
REMARK    1  A    between atoms: C_1  and  C_2
REMARK    2  A    between atoms: C_2  and  C_3
REMARK    3  A    between atoms: C_3  and  C_4
REMARK    4  A    between atoms: C_4  and  C_5
REMARK    5  A    between atoms: C_5  and  C_6
REMARK    6  A    between atoms: C_6  and  C_7
REMARK    7  A    between atoms: C_7  and  C_8
REMARK    8  A    between atoms: C_8  and  C_9
REMARK    9  A    between atoms: C_9  and  C_10
REMARK   10  A    between atoms: C_10  and  C_11
REMARK   11  A    between atoms: C_11  and  C_12
REMARK   12  A    between atoms: C_12  and  C_13
REMARK   13  A    between atoms: C_13  and  C_14
REMARK   14  A    between atoms: C_14  and  C_15
REMARK   15  A    between atoms: C_15  and  C_16
REMARK   16  A    between atoms: C_20  and  O_21
REMARK                            x       y       z     vdW  Elec       q    Type
REMARK                         _______ _______ _______ _____ _____    ______ ____
ROOT
ATOM      1  C   LIG A   1      -9.081  -3.965 128.130  0.00  0.00    +0.000 C 
ENDROOT
BRANCH   1   2
ATOM      2  C   LIG A   1      -7.987  -3.439 129.101  0.00  0.00    -0.000 C 
BRANCH   2   3
ATOM      3  C   LIG A   1      -8.212  -2.096 129.866  0.00  0.00    -0.000 C 
BRANCH   3   4
ATOM      4  C   LIG A   1      -7.038  -1.366 130.612  0.00  0.00    -0.000 C 
BRANCH   4   5
ATOM      5  C   LIG A   1      -6.334  -0.235 129.850  0.00  0.00    -0.000 C 
BRANCH   5   6
ATOM      6  C   LIG A   1      -6.009  -0.257 128.367  0.00  0.00    -0.000 C 
BRANCH   6   7
ATOM      7  C   LIG A   1      -5.104  -1.440 127.882  0.00  0.00    -0.000 C 
BRANCH   7   8
ATOM      8  C   LIG A   1      -5.498  -2.181 126.600  0.00  0.00    -0.000 C 
BRANCH   8   9
ATOM      9  C   LIG A   1      -5.530  -1.303 125.325  0.00  0.00    -0.000 C 
BRANCH   9  10
ATOM     10  C   LIG A   1      -5.780  -1.986 123.967  0.00  0.00    -0.000 C 
BRANCH  10  12
ATOM     11  C   LIG A   1      -4.377  -4.101 123.603  0.00  0.00    +0.004 C 
ATOM     12  C   LIG A   1      -5.712  -3.522 124.051  0.00  0.00    -0.003 C 
ENDBRANCH  10  12
ENDBRANCH   9  10
ENDBRANCH   8   9
ENDBRANCH   7   8
ENDBRANCH   6   7
ENDBRANCH   5   6
ENDBRANCH   4   5
ENDBRANCH   3   4
ENDBRANCH   2   3
ENDBRANCH   1   2
BRANCH   1  13
ATOM     13  C   LIG A   1      -8.714  -3.680 126.703  0.00  0.00    +0.000 C 
BRANCH  13  14
ATOM     14  C   LIG A   1      -9.297  -2.587 125.837  0.00  0.00    +0.005 C 
BRANCH  14  15
ATOM     15  C   LIG A   1      -8.904  -1.176 126.305  0.00  0.00    +0.035 C 
BRANCH  15  16
ATOM     16  C   LIG A   1      -9.050  -0.005 125.361  0.00  0.00    -0.044 A 
ATOM     17  C   LIG A   1      -9.209  -0.400 124.022  0.00  0.00    +0.004 A 
ATOM     18  C   LIG A   1      -9.313   0.553 123.010  0.00  0.00    +0.004 A 
ATOM     19  C   LIG A   1      -9.250   1.913 123.251  0.00  0.00    +0.045 A 
ATOM     20  C   LIG A   1      -9.122   2.319 124.603  0.00  0.00    +0.117 A 
ATOM     21  C   LIG A   1      -9.060   1.366 125.603  0.00  0.00    +0.049 A 
BRANCH  20  22
ATOM     22  O   LIG A   1      -9.035   3.638 124.902  0.00  0.00    -0.507 OA
ATOM     23  H   LIG A   1      -8.417   3.769 125.639  0.00  0.00    +0.292 HD
ENDBRANCH  20  22
ENDBRANCH  15  16
ENDBRANCH  14  15
ENDBRANCH  13  14
ENDBRANCH   1  13
TORSDOF 15
ENDMDL
MODEL 6
REMARK VINA RESULT:      -5.8      2.052      3.537
REMARK  Name = NuBBE_1676
REMARK  16 active torsions:
REMARK  status: ('A' for Active; 'I' for Inactive)
REMARK    1  A    between atoms: C_1  and  C_2
REMARK    2  A    between atoms: C_2  and  C_3
REMARK    3  A    between atoms: C_3  and  C_4
REMARK    4  A    between atoms: C_4  and  C_5
REMARK    5  A    between atoms: C_5  and  C_6
REMARK    6  A    between atoms: C_6  and  C_7
REMARK    7  A    between atoms: C_7  and  C_8
REMARK    8  A    between atoms: C_8  and  C_9
REMARK    9  A    between atoms: C_9  and  C_10
REMARK   10  A    between atoms: C_10  and  C_11
REMARK   11  A    between atoms: C_11  and  C_12
REMARK   12  A    between atoms: C_12  and  C_13
REMARK   13  A    between atoms: C_13  and  C_14
REMARK   14  A    between atoms: C_14  and  C_15
REMARK   15  A    between atoms: C_15  and  C_16
REMARK   16  A    between atoms: C_20  and  O_21
REMARK                            x       y       z     vdW  Elec       q    Type
REMARK                         _______ _______ _______ _____ _____    ______ ____
ROOT
ATOM      1  C   LIG A   1      -9.420  -2.953 125.778  0.00  0.00    +0.000 C 
ENDROOT
BRANCH   1   2
ATOM      2  C   LIG A   1      -8.970  -3.544 124.412  0.00  0.00    -0.000 C 
BRANCH   2   3
ATOM      3  C   LIG A   1      -8.845  -2.608 123.168  0.00  0.00    -0.000 C 
BRANCH   3   4
ATOM      4  C   LIG A   1      -7.483  -1.922 122.787  0.00  0.00    -0.000 C 
BRANCH   4   5
ATOM      5  C   LIG A   1      -6.294  -2.184 123.722  0.00  0.00    -0.000 C 
BRANCH   5   6
ATOM      6  C   LIG A   1      -5.917  -1.319 124.911  0.00  0.00    -0.000 C 
BRANCH   6   7
ATOM      7  C   LIG A   1      -6.951  -0.209 125.306  0.00  0.00    -0.000 C 
BRANCH   7   8
ATOM      8  C   LIG A   1      -6.607   1.251 124.994  0.00  0.00    -0.000 C 
BRANCH   8   9
ATOM      9  C   LIG A   1      -7.813   2.222 125.013  0.00  0.00    -0.000 C 
BRANCH   9  10
ATOM     10  C   LIG A   1      -8.693   2.327 123.754  0.00  0.00    -0.000 C 
BRANCH  10  12
ATOM     11  C   LIG A   1     -10.225   0.671 122.537  0.00  0.00    +0.004 C 
ATOM     12  C   LIG A   1      -9.944   1.432 123.824  0.00  0.00    -0.003 C 
ENDBRANCH  10  12
ENDBRANCH   9  10
ENDBRANCH   8   9
ENDBRANCH   7   8
ENDBRANCH   6   7
ENDBRANCH   5   6
ENDBRANCH   4   5
ENDBRANCH   3   4
ENDBRANCH   2   3
ENDBRANCH   1   2
BRANCH   1  13
ATOM     13  C   LIG A   1      -8.838  -3.737 126.919  0.00  0.00    +0.000 C 
BRANCH  13  14
ATOM     14  C   LIG A   1      -8.490  -3.191 128.285  0.00  0.00    +0.005 C 
BRANCH  14  15
ATOM     15  C   LIG A   1      -7.237  -2.299 128.273  0.00  0.00    +0.035 C 
BRANCH  15  16
ATOM     16  C   LIG A   1      -5.985  -2.755 128.988  0.00  0.00    -0.044 A 
ATOM     17  C   LIG A   1      -6.229  -3.783 129.915  0.00  0.00    +0.004 A 
ATOM     18  C   LIG A   1      -5.194  -4.293 130.697  0.00  0.00    +0.004 A 
ATOM     19  C   LIG A   1      -3.897  -3.820 130.623  0.00  0.00    +0.045 A 
ATOM     20  C   LIG A   1      -3.636  -2.806 129.668  0.00  0.00    +0.117 A 
ATOM     21  C   LIG A   1      -4.663  -2.335 128.869  0.00  0.00    +0.049 A 
BRANCH  20  22
ATOM     22  O   LIG A   1      -2.389  -2.288 129.562  0.00  0.00    -0.507 OA
ATOM     23  H   LIG A   1      -1.986  -2.215 130.442  0.00  0.00    +0.292 HD
ENDBRANCH  20  22
ENDBRANCH  15  16
ENDBRANCH  14  15
ENDBRANCH  13  14
ENDBRANCH   1  13
TORSDOF 15
ENDMDL
MODEL 7
REMARK VINA RESULT:      -5.7      3.455      6.593
REMARK  Name = NuBBE_1676
REMARK  16 active torsions:
REMARK  status: ('A' for Active; 'I' for Inactive)
REMARK    1  A    between atoms: C_1  and  C_2
REMARK    2  A    between atoms: C_2  and  C_3
REMARK    3  A    between atoms: C_3  and  C_4
REMARK    4  A    between atoms: C_4  and  C_5
REMARK    5  A    between atoms: C_5  and  C_6
REMARK    6  A    between atoms: C_6  and  C_7
REMARK    7  A    between atoms: C_7  and  C_8
REMARK    8  A    between atoms: C_8  and  C_9
REMARK    9  A    between atoms: C_9  and  C_10
REMARK   10  A    between atoms: C_10  and  C_11
REMARK   11  A    between atoms: C_11  and  C_12
REMARK   12  A    between atoms: C_12  and  C_13
REMARK   13  A    between atoms: C_13  and  C_14
REMARK   14  A    between atoms: C_14  and  C_15
REMARK   15  A    between atoms: C_15  and  C_16
REMARK   16  A    between atoms: C_20  and  O_21
REMARK                            x       y       z     vdW  Elec       q    Type
REMARK                         _______ _______ _______ _____ _____    ______ ____
ROOT
ATOM      1  C   LIG A   1      -6.125  -1.440 128.050  0.00  0.00    +0.000 C 
ENDROOT
BRANCH   1   2
ATOM      2  C   LIG A   1      -6.748  -2.723 128.668  0.00  0.00    -0.000 C 
BRANCH   2   3
ATOM      3  C   LIG A   1      -8.273  -3.008 128.486  0.00  0.00    -0.000 C 
BRANCH   3   4
ATOM      4  C   LIG A   1      -8.829  -3.720 127.200  0.00  0.00    -0.000 C 
BRANCH   4   5
ATOM      5  C   LIG A   1      -8.682  -2.962 125.874  0.00  0.00    -0.000 C 
BRANCH   5   6
ATOM      6  C   LIG A   1      -9.436  -3.291 124.597  0.00  0.00    -0.000 C 
BRANCH   6   7
ATOM      7  C   LIG A   1      -8.726  -2.889 123.259  0.00  0.00    -0.000 C 
BRANCH   7   8
ATOM      8  C   LIG A   1      -7.965  -1.560 123.210  0.00  0.00    -0.000 C 
BRANCH   8   9
ATOM      9  C   LIG A   1      -6.438  -1.693 122.987  0.00  0.00    -0.000 C 
BRANCH   9  10
ATOM     10  C   LIG A   1      -5.619  -2.531 123.986  0.00  0.00    -0.000 C 
BRANCH  10  12
ATOM     11  C   LIG A   1      -4.417  -4.775 123.681  0.00  0.00    +0.004 C 
ATOM     12  C   LIG A   1      -4.465  -3.298 123.314  0.00  0.00    -0.003 C 
ENDBRANCH  10  12
ENDBRANCH   9  10
ENDBRANCH   8   9
ENDBRANCH   7   8
ENDBRANCH   6   7
ENDBRANCH   5   6
ENDBRANCH   4   5
ENDBRANCH   3   4
ENDBRANCH   2   3
ENDBRANCH   1   2
BRANCH   1  13
ATOM     13  C   LIG A   1      -7.013  -0.251 128.273  0.00  0.00    +0.000 C 
BRANCH  13  14
ATOM     14  C   LIG A   1      -7.956   0.357 127.260  0.00  0.00    +0.005 C 
BRANCH  14  15
ATOM     15  C   LIG A   1      -7.250   0.782 125.961  0.00  0.00    +0.035 C 
BRANCH  15  16
ATOM     16  C   LIG A   1      -7.016   2.248 125.680  0.00  0.00    -0.044 A 
ATOM     17  C   LIG A   1      -5.671   2.542 125.395  0.00  0.00    +0.004 A 
ATOM     18  C   LIG A   1      -5.268   3.854 125.156  0.00  0.00    +0.004 A 
ATOM     19  C   LIG A   1      -6.140   4.926 125.198  0.00  0.00    +0.045 A 
ATOM     20  C   LIG A   1      -7.503   4.634 125.451  0.00  0.00    +0.117 A 
ATOM     21  C   LIG A   1      -7.899   3.323 125.648  0.00  0.00    +0.049 A 
BRANCH  20  22
ATOM     22  O   LIG A   1      -8.404   5.643 125.526  0.00  0.00    -0.507 OA
ATOM     23  H   LIG A   1      -8.208   6.311 124.850  0.00  0.00    +0.292 HD
ENDBRANCH  20  22
ENDBRANCH  15  16
ENDBRANCH  14  15
ENDBRANCH  13  14
ENDBRANCH   1  13
TORSDOF 15
ENDMDL
MODEL 8
REMARK VINA RESULT:      -5.6      2.781      4.498
REMARK  Name = NuBBE_1676
REMARK  16 active torsions:
REMARK  status: ('A' for Active; 'I' for Inactive)
REMARK    1  A    between atoms: C_1  and  C_2
REMARK    2  A    between atoms: C_2  and  C_3
REMARK    3  A    between atoms: C_3  and  C_4
REMARK    4  A    between atoms: C_4  and  C_5
REMARK    5  A    between atoms: C_5  and  C_6
REMARK    6  A    between atoms: C_6  and  C_7
REMARK    7  A    between atoms: C_7  and  C_8
REMARK    8  A    between atoms: C_8  and  C_9
REMARK    9  A    between atoms: C_9  and  C_10
REMARK   10  A    between atoms: C_10  and  C_11
REMARK   11  A    between atoms: C_11  and  C_12
REMARK   12  A    between atoms: C_12  and  C_13
REMARK   13  A    between atoms: C_13  and  C_14
REMARK   14  A    between atoms: C_14  and  C_15
REMARK   15  A    between atoms: C_15  and  C_16
REMARK   16  A    between atoms: C_20  and  O_21
REMARK                            x       y       z     vdW  Elec       q    Type
REMARK                         _______ _______ _______ _____ _____    ______ ____
ROOT
ATOM      1  C   LIG A   1      -9.333  -2.927 125.894  0.00  0.00    +0.000 C 
ENDROOT
BRANCH   1   2
ATOM      2  C   LIG A   1      -8.909  -3.589 124.553  0.00  0.00    -0.000 C 
BRANCH   2   3
ATOM      3  C   LIG A   1      -8.888  -2.739 123.243  0.00  0.00    -0.000 C 
BRANCH   3   4
ATOM      4  C   LIG A   1      -7.582  -2.018 122.750  0.00  0.00    -0.000 C 
BRANCH   4   5
ATOM      5  C   LIG A   1      -6.340  -2.155 123.641  0.00  0.00    -0.000 C 
BRANCH   5   6
ATOM      6  C   LIG A   1      -5.967  -1.202 124.763  0.00  0.00    -0.000 C 
BRANCH   6   7
ATOM      7  C   LIG A   1      -7.031  -0.106 125.113  0.00  0.00    -0.000 C 
BRANCH   7   8
ATOM      8  C   LIG A   1      -6.657   1.365 124.902  0.00  0.00    -0.000 C 
BRANCH   8   9
ATOM      9  C   LIG A   1      -7.847   2.353 124.959  0.00  0.00    -0.000 C 
BRANCH   9  10
ATOM     10  C   LIG A   1      -8.782   2.451 123.739  0.00  0.00    -0.000 C 
BRANCH  10  12
ATOM     11  C   LIG A   1     -10.226   0.674 122.586  0.00  0.00    +0.004 C 
ATOM     12  C   LIG A   1      -9.994   1.506 123.839  0.00  0.00    -0.003 C 
ENDBRANCH  10  12
ENDBRANCH   9  10
ENDBRANCH   8   9
ENDBRANCH   7   8
ENDBRANCH   6   7
ENDBRANCH   5   6
ENDBRANCH   4   5
ENDBRANCH   3   4
ENDBRANCH   2   3
ENDBRANCH   1   2
BRANCH   1  13
ATOM     13  C   LIG A   1      -8.864  -3.739 127.066  0.00  0.00    +0.000 C 
BRANCH  13  14
ATOM     14  C   LIG A   1      -8.427  -3.194 128.406  0.00  0.00    +0.005 C 
BRANCH  14  15
ATOM     15  C   LIG A   1      -6.962  -2.725 128.416  0.00  0.00    +0.035 C 
BRANCH  15  16
ATOM     16  C   LIG A   1      -6.647  -1.249 128.507  0.00  0.00    -0.044 A 
ATOM     17  C   LIG A   1      -7.795  -0.455 128.666  0.00  0.00    +0.004 A 
ATOM     18  C   LIG A   1      -7.694   0.934 128.722  0.00  0.00    +0.004 A 
ATOM     19  C   LIG A   1      -6.489   1.603 128.611  0.00  0.00    +0.045 A 
ATOM     20  C   LIG A   1      -5.323   0.807 128.483  0.00  0.00    +0.117 A 
ATOM     21  C   LIG A   1      -5.432  -0.572 128.468  0.00  0.00    +0.049 A 
BRANCH  20  22
ATOM     22  O   LIG A   1      -4.114   1.404 128.348  0.00  0.00    -0.507 OA
ATOM     23  H   LIG A   1      -3.993   1.701 127.433  0.00  0.00    +0.292 HD
ENDBRANCH  20  22
ENDBRANCH  15  16
ENDBRANCH  14  15
ENDBRANCH  13  14
ENDBRANCH   1  13
TORSDOF 15
ENDMDL
MODEL 9
REMARK VINA RESULT:      -5.5      3.727      6.572
REMARK  Name = NuBBE_1676
REMARK  16 active torsions:
REMARK  status: ('A' for Active; 'I' for Inactive)
REMARK    1  A    between atoms: C_1  and  C_2
REMARK    2  A    between atoms: C_2  and  C_3
REMARK    3  A    between atoms: C_3  and  C_4
REMARK    4  A    between atoms: C_4  and  C_5
REMARK    5  A    between atoms: C_5  and  C_6
REMARK    6  A    between atoms: C_6  and  C_7
REMARK    7  A    between atoms: C_7  and  C_8
REMARK    8  A    between atoms: C_8  and  C_9
REMARK    9  A    between atoms: C_9  and  C_10
REMARK   10  A    between atoms: C_10  and  C_11
REMARK   11  A    between atoms: C_11  and  C_12
REMARK   12  A    between atoms: C_12  and  C_13
REMARK   13  A    between atoms: C_13  and  C_14
REMARK   14  A    between atoms: C_14  and  C_15
REMARK   15  A    between atoms: C_15  and  C_16
REMARK   16  A    between atoms: C_20  and  O_21
REMARK                            x       y       z     vdW  Elec       q    Type
REMARK                         _______ _______ _______ _____ _____    ______ ____
ROOT
ATOM      1  C   LIG A   1      -7.297   0.599 127.362  0.00  0.00    +0.000 C 
ENDROOT
BRANCH   1   2
ATOM      2  C   LIG A   1      -8.579   1.295 126.826  0.00  0.00    -0.000 C 
BRANCH   2   3
ATOM      3  C   LIG A   1      -9.442   0.590 125.732  0.00  0.00    -0.000 C 
BRANCH   3   4
ATOM      4  C   LIG A   1      -9.890   1.341 124.426  0.00  0.00    -0.000 C 
BRANCH   4   5
ATOM      5  C   LIG A   1      -8.900   2.356 123.839  0.00  0.00    -0.000 C 
BRANCH   5   6
ATOM      6  C   LIG A   1      -7.505   2.020 123.341  0.00  0.00    -0.000 C 
BRANCH   6   7
ATOM      7  C   LIG A   1      -6.921   2.977 122.247  0.00  0.00    -0.000 C 
BRANCH   7   8
ATOM      8  C   LIG A   1      -5.850   3.992 122.663  0.00  0.00    -0.000 C 
BRANCH   8   9
ATOM      9  C   LIG A   1      -5.515   4.000 124.174  0.00  0.00    -0.000 C 
BRANCH   9  10
ATOM     10  C   LIG A   1      -6.223   5.024 125.080  0.00  0.00    -0.000 C 
BRANCH  10  12
ATOM     11  C   LIG A   1      -6.041   4.154 127.485  0.00  0.00    +0.004 C 
ATOM     12  C   LIG A   1      -6.940   4.369 126.275  0.00  0.00    -0.003 C 
ENDBRANCH  10  12
ENDBRANCH   9  10
ENDBRANCH   8   9
ENDBRANCH   7   8
ENDBRANCH   6   7
ENDBRANCH   5   6
ENDBRANCH   4   5
ENDBRANCH   3   4
ENDBRANCH   2   3
ENDBRANCH   1   2
BRANCH   1  13
ATOM     13  C   LIG A   1      -7.646  -0.549 128.264  0.00  0.00    +0.000 C 
BRANCH  13  14
ATOM     14  C   LIG A   1      -7.539  -2.016 127.916  0.00  0.00    +0.005 C 
BRANCH  14  15
ATOM     15  C   LIG A   1      -6.703  -2.274 126.651  0.00  0.00    +0.035 C 
BRANCH  15  16
ATOM     16  C   LIG A   1      -7.384  -2.358 125.305  0.00  0.00    -0.044 A 
ATOM     17  C   LIG A   1      -6.713  -1.631 124.307  0.00  0.00    +0.004 A 
ATOM     18  C   LIG A   1      -7.228  -1.560 123.014  0.00  0.00    +0.004 A 
ATOM     19  C   LIG A   1      -8.411  -2.174 122.643  0.00  0.00    +0.045 A 
ATOM     20  C   LIG A   1      -9.076  -2.936 123.636  0.00  0.00    +0.117 A 
ATOM     21  C   LIG A   1      -8.535  -3.031 124.906  0.00  0.00    +0.049 A 
BRANCH  20  22
ATOM     22  O   LIG A   1     -10.250  -3.544 123.341  0.00  0.00    -0.507 OA
ATOM     23  H   LIG A   1     -10.962  -2.885 123.300  0.00  0.00    +0.292 HD
ENDBRANCH  20  22
ENDBRANCH  15  16
ENDBRANCH  14  15
ENDBRANCH  13  14
ENDBRANCH   1  13
TORSDOF 15
ENDMDL
