MODEL 1
REMARK VINA RESULT:      -6.4      0.000      0.000
REMARK  Name = NuBBE_1755
REMARK  3 active torsions:
REMARK  status: ('A' for Active; 'I' for Inactive)
REMARK    1  A    between atoms: C_1  and  C_2
REMARK    2  A    between atoms: C_2  and  C_3
REMARK    3  A    between atoms: C_9  and  C_10
REMARK                            x       y       z     vdW  Elec       q    Type
REMARK                         _______ _______ _______ _____ _____    ______ ____
ROOT
ATOM      1  C   LIG A   1     -10.360   8.391 128.443  0.00  0.00    +0.012 C 
ATOM      2  C   LIG A   1     -11.689   7.850 127.900  0.00  0.00    -0.025 C 
ATOM      3  C   LIG A   1     -11.469   7.491 126.418  0.00  0.00    +0.012 C 
ATOM      4  C   LIG A   1     -13.017   8.681 128.208  0.00  0.00    +0.021 C 
ATOM      5  C   LIG A   1     -13.758   7.295 128.163  0.00  0.00    +0.012 C 
ATOM      6  C   LIG A   1     -12.427   6.730 128.758  0.00  0.00    -0.000 C 
ATOM      7  C   LIG A   1     -12.405   6.940 130.286  0.00  0.00    +0.031 C 
ATOM      8  C   LIG A   1     -12.777   8.376 130.596  0.00  0.00    -0.027 C 
ATOM      9  C   LIG A   1     -13.062   9.245 129.607  0.00  0.00    -0.073 C 
ATOM     10  C   LIG A   1     -13.377  10.691 129.794  0.00  0.00    +0.039 C 
ENDROOT
TORSDOF 0
ENDMDL
MODEL 2
REMARK VINA RESULT:      -5.9      1.136      2.470
REMARK  Name = NuBBE_1755
REMARK  3 active torsions:
REMARK  status: ('A' for Active; 'I' for Inactive)
REMARK    1  A    between atoms: C_1  and  C_2
REMARK    2  A    between atoms: C_2  and  C_3
REMARK    3  A    between atoms: C_9  and  C_10
REMARK                            x       y       z     vdW  Elec       q    Type
REMARK                         _______ _______ _______ _____ _____    ______ ____
ROOT
ATOM      1  C   LIG A   1     -12.549   6.962 130.622  0.00  0.00    +0.012 C 
ATOM      2  C   LIG A   1     -11.499   7.441 129.611  0.00  0.00    -0.025 C 
ATOM      3  C   LIG A   1     -10.112   7.141 130.212  0.00  0.00    +0.012 C 
ATOM      4  C   LIG A   1     -11.669   8.902 128.990  0.00  0.00    +0.021 C 
ATOM      5  C   LIG A   1     -10.954   8.319 127.717  0.00  0.00    +0.012 C 
ATOM      6  C   LIG A   1     -11.685   6.988 128.096  0.00  0.00    -0.000 C 
ATOM      7  C   LIG A   1     -13.133   7.016 127.566  0.00  0.00    +0.031 C 
ATOM      8  C   LIG A   1     -13.782   8.328 127.959  0.00  0.00    -0.027 C 
ATOM      9  C   LIG A   1     -13.101   9.252 128.664  0.00  0.00    -0.073 C 
ATOM     10  C   LIG A   1     -13.659  10.545 129.156  0.00  0.00    +0.039 C 
ENDROOT
TORSDOF 0
ENDMDL
MODEL 3
REMARK VINA RESULT:      -5.8      0.817      2.798
REMARK  Name = NuBBE_1755
REMARK  3 active torsions:
REMARK  status: ('A' for Active; 'I' for Inactive)
REMARK    1  A    between atoms: C_1  and  C_2
REMARK    2  A    between atoms: C_2  and  C_3
REMARK    3  A    between atoms: C_9  and  C_10
REMARK                            x       y       z     vdW  Elec       q    Type
REMARK                         _______ _______ _______ _____ _____    ______ ____
ROOT
ATOM      1  C   LIG A   1     -13.887   6.823 128.017  0.00  0.00    +0.012 C 
ATOM      2  C   LIG A   1     -12.484   7.403 127.799  0.00  0.00    -0.025 C 
ATOM      3  C   LIG A   1     -12.091   7.120 126.336  0.00  0.00    +0.012 C 
ATOM      4  C   LIG A   1     -11.360   7.069 128.882  0.00  0.00    +0.021 C 
ATOM      5  C   LIG A   1     -10.742   8.465 128.503  0.00  0.00    +0.012 C 
ATOM      6  C   LIG A   1     -12.229   8.898 128.284  0.00  0.00    -0.000 C 
ATOM      7  C   LIG A   1     -12.869   9.278 129.635  0.00  0.00    +0.031 C 
ATOM      8  C   LIG A   1     -12.581   8.187 130.646  0.00  0.00    -0.027 C 
ATOM      9  C   LIG A   1     -11.868   7.098 130.303  0.00  0.00    -0.073 C 
ATOM     10  C   LIG A   1     -11.580   5.938 131.197  0.00  0.00    +0.039 C 
ENDROOT
TORSDOF 0
ENDMDL
MODEL 4
REMARK VINA RESULT:      -5.4     11.606     13.043
REMARK  Name = NuBBE_1755
REMARK  3 active torsions:
REMARK  status: ('A' for Active; 'I' for Inactive)
REMARK    1  A    between atoms: C_1  and  C_2
REMARK    2  A    between atoms: C_2  and  C_3
REMARK    3  A    between atoms: C_9  and  C_10
REMARK                            x       y       z     vdW  Elec       q    Type
REMARK                         _______ _______ _______ _____ _____    ______ ____
ROOT
ATOM      1  C   LIG A   1      -7.061  -1.846 126.529  0.00  0.00    +0.012 C 
ATOM      2  C   LIG A   1      -8.019  -2.614 125.609  0.00  0.00    -0.025 C 
ATOM      3  C   LIG A   1      -9.078  -3.286 126.504  0.00  0.00    +0.012 C 
ATOM      4  C   LIG A   1      -7.383  -3.554 124.485  0.00  0.00    +0.021 C 
ATOM      5  C   LIG A   1      -8.675  -3.232 123.648  0.00  0.00    +0.012 C 
ATOM      6  C   LIG A   1      -8.603  -1.835 124.349  0.00  0.00    -0.000 C 
ATOM      7  C   LIG A   1      -7.602  -0.926 123.606  0.00  0.00    +0.031 C 
ATOM      8  C   LIG A   1      -6.310  -1.686 123.384  0.00  0.00    -0.027 C 
ATOM      9  C   LIG A   1      -6.171  -2.954 123.816  0.00  0.00    -0.073 C 
ATOM     10  C   LIG A   1      -4.927  -3.771 123.708  0.00  0.00    +0.039 C 
ENDROOT
TORSDOF 0
ENDMDL
MODEL 5
REMARK VINA RESULT:      -5.4     11.571     13.217
REMARK  Name = NuBBE_1755
REMARK  3 active torsions:
REMARK  status: ('A' for Active; 'I' for Inactive)
REMARK    1  A    between atoms: C_1  and  C_2
REMARK    2  A    between atoms: C_2  and  C_3
REMARK    3  A    between atoms: C_9  and  C_10
REMARK                            x       y       z     vdW  Elec       q    Type
REMARK                         _______ _______ _______ _____ _____    ______ ____
ROOT
ATOM      1  C   LIG A   1      -8.202  -3.903 125.213  0.00  0.00    +0.012 C 
ATOM      2  C   LIG A   1      -8.154  -2.856 124.093  0.00  0.00    -0.025 C 
ATOM      3  C   LIG A   1      -9.445  -3.006 123.266  0.00  0.00    +0.012 C 
ATOM      4  C   LIG A   1      -6.810  -2.736 123.238  0.00  0.00    +0.021 C 
ATOM      5  C   LIG A   1      -7.189  -1.219 123.068  0.00  0.00    +0.012 C 
ATOM      6  C   LIG A   1      -7.792  -1.361 124.505  0.00  0.00    -0.000 C 
ATOM      7  C   LIG A   1      -6.677  -1.213 125.559  0.00  0.00    +0.031 C 
ATOM      8  C   LIG A   1      -5.511  -2.103 125.179  0.00  0.00    -0.027 C 
ATOM      9  C   LIG A   1      -5.557  -2.865 124.069  0.00  0.00    -0.073 C 
ATOM     10  C   LIG A   1      -4.497  -3.822 123.636  0.00  0.00    +0.039 C 
ENDROOT
TORSDOF 0
ENDMDL
MODEL 6
REMARK VINA RESULT:      -5.3     11.259     13.056
REMARK  Name = NuBBE_1755
REMARK  3 active torsions:
REMARK  status: ('A' for Active; 'I' for Inactive)
REMARK    1  A    between atoms: C_1  and  C_2
REMARK    2  A    between atoms: C_2  and  C_3
REMARK    3  A    between atoms: C_9  and  C_10
REMARK                            x       y       z     vdW  Elec       q    Type
REMARK                         _______ _______ _______ _____ _____    ______ ____
ROOT
ATOM      1  C   LIG A   1      -5.984  -2.153 122.090  0.00  0.00    +0.012 C 
ATOM      2  C   LIG A   1      -5.820  -2.630 123.539  0.00  0.00    -0.025 C 
ATOM      3  C   LIG A   1      -4.539  -3.484 123.601  0.00  0.00    +0.012 C 
ATOM      4  C   LIG A   1      -7.093  -3.261 124.267  0.00  0.00    +0.021 C 
ATOM      5  C   LIG A   1      -6.469  -2.699 125.596  0.00  0.00    +0.012 C 
ATOM      6  C   LIG A   1      -5.952  -1.535 124.688  0.00  0.00    -0.000 C 
ATOM      7  C   LIG A   1      -7.069  -0.491 124.486  0.00  0.00    +0.031 C 
ATOM      8  C   LIG A   1      -8.347  -1.200 124.087  0.00  0.00    -0.027 C 
ATOM      9  C   LIG A   1      -8.382  -2.540 123.956  0.00  0.00    -0.073 C 
ATOM     10  C   LIG A   1      -9.564  -3.332 123.508  0.00  0.00    +0.039 C 
ENDROOT
TORSDOF 0
ENDMDL
MODEL 7
REMARK VINA RESULT:      -5.3      1.119      2.903
REMARK  Name = NuBBE_1755
REMARK  3 active torsions:
REMARK  status: ('A' for Active; 'I' for Inactive)
REMARK    1  A    between atoms: C_1  and  C_2
REMARK    2  A    between atoms: C_2  and  C_3
REMARK    3  A    between atoms: C_9  and  C_10
REMARK                            x       y       z     vdW  Elec       q    Type
REMARK                         _______ _______ _______ _____ _____    ______ ____
ROOT
ATOM      1  C   LIG A   1     -10.110   8.352 128.833  0.00  0.00    +0.012 C 
ATOM      2  C   LIG A   1     -11.068   7.543 129.716  0.00  0.00    -0.025 C 
ATOM      3  C   LIG A   1     -10.209   6.698 130.676  0.00  0.00    +0.012 C 
ATOM      4  C   LIG A   1     -12.260   6.757 129.001  0.00  0.00    +0.021 C 
ATOM      5  C   LIG A   1     -13.059   6.985 130.336  0.00  0.00    +0.012 C 
ATOM      6  C   LIG A   1     -12.266   8.332 130.408  0.00  0.00    -0.000 C 
ATOM      7  C   LIG A   1     -12.957   9.395 129.529  0.00  0.00    +0.031 C 
ATOM      8  C   LIG A   1     -13.245   8.802 128.164  0.00  0.00    -0.027 C 
ATOM      9  C   LIG A   1     -12.901   7.532 127.876  0.00  0.00    -0.073 C 
ATOM     10  C   LIG A   1     -13.078   6.871 126.550  0.00  0.00    +0.039 C 
ENDROOT
TORSDOF 0
ENDMDL
MODEL 8
REMARK VINA RESULT:      -5.2     10.633     12.526
REMARK  Name = NuBBE_1755
REMARK  3 active torsions:
REMARK  status: ('A' for Active; 'I' for Inactive)
REMARK    1  A    between atoms: C_1  and  C_2
REMARK    2  A    between atoms: C_2  and  C_3
REMARK    3  A    between atoms: C_9  and  C_10
REMARK                            x       y       z     vdW  Elec       q    Type
REMARK                         _______ _______ _______ _____ _____    ______ ____
ROOT
ATOM      1  C   LIG A   1      -7.989  -0.379 125.311  0.00  0.00    +0.012 C 
ATOM      2  C   LIG A   1      -7.275  -0.597 123.970  0.00  0.00    -0.025 C 
ATOM      3  C   LIG A   1      -7.037   0.790 123.344  0.00  0.00    +0.012 C 
ATOM      4  C   LIG A   1      -7.869  -1.698 122.978  0.00  0.00    +0.021 C 
ATOM      5  C   LIG A   1      -6.388  -1.885 122.484  0.00  0.00    +0.012 C 
ATOM      6  C   LIG A   1      -6.008  -1.561 123.966  0.00  0.00    -0.000 C 
ATOM      7  C   LIG A   1      -6.135  -2.831 124.831  0.00  0.00    +0.031 C 
ATOM      8  C   LIG A   1      -7.475  -3.485 124.560  0.00  0.00    -0.027 C 
ATOM      9  C   LIG A   1      -8.341  -2.948 123.681  0.00  0.00    -0.073 C 
ATOM     10  C   LIG A   1      -9.707  -3.470 123.386  0.00  0.00    +0.039 C 
ENDROOT
TORSDOF 0
ENDMDL
MODEL 9
REMARK VINA RESULT:      -5.1     10.460     11.920
REMARK  Name = NuBBE_1755
REMARK  3 active torsions:
REMARK  status: ('A' for Active; 'I' for Inactive)
REMARK    1  A    between atoms: C_1  and  C_2
REMARK    2  A    between atoms: C_2  and  C_3
REMARK    3  A    between atoms: C_9  and  C_10
REMARK                            x       y       z     vdW  Elec       q    Type
REMARK                         _______ _______ _______ _____ _____    ______ ____
ROOT
ATOM      1  C   LIG A   1      -5.985  -1.784 124.957  0.00  0.00    +0.012 C 
ATOM      2  C   LIG A   1      -7.018  -2.112 123.871  0.00  0.00    -0.025 C 
ATOM      3  C   LIG A   1      -6.291  -2.060 122.514  0.00  0.00    +0.012 C 
ATOM      4  C   LIG A   1      -8.421  -1.351 123.920  0.00  0.00    +0.021 C 
ATOM      5  C   LIG A   1      -9.016  -2.646 123.256  0.00  0.00    +0.012 C 
ATOM      6  C   LIG A   1      -7.930  -3.397 124.095  0.00  0.00    -0.000 C 
ATOM      7  C   LIG A   1      -8.436  -3.612 125.536  0.00  0.00    +0.031 C 
ATOM      8  C   LIG A   1      -8.979  -2.303 126.073  0.00  0.00    -0.027 C 
ATOM      9  C   LIG A   1      -8.968  -1.188 125.317  0.00  0.00    -0.073 C 
ATOM     10  C   LIG A   1      -9.417   0.162 125.766  0.00  0.00    +0.039 C 
ENDROOT
TORSDOF 0
ENDMDL
