MODEL 1
REMARK VINA RESULT:      -8.5      0.000      0.000
REMARK  Name = NuBBE_1455
REMARK  8 active torsions:
REMARK  status: ('A' for Active; 'I' for Inactive)
REMARK    1  A    between atoms: C_1  and  C_2
REMARK    2  A    between atoms: C_2  and  C_3
REMARK    3  A    between atoms: C_10  and  O_23
REMARK    4  A    between atoms: C_13  and  O_14
REMARK    5  A    between atoms: O_14  and  C_15
REMARK    6  A    between atoms: C_16  and  O_17
REMARK    7  A    between atoms: O_17  and  C_18
REMARK    8  A    between atoms: C_27  and  O_28
REMARK                            x       y       z     vdW  Elec       q    Type
REMARK                         _______ _______ _______ _____ _____    ______ ____
ROOT
ATOM      1  C   LIG A   1      -6.597  -2.201 124.206  0.00  0.00    +0.060 C 
ATOM      2  C   LIG A   1      -8.042  -1.696 124.096  0.00  0.00    +0.123 C 
ATOM      3  C   LIG A   1      -8.830  -2.604 123.146  0.00  0.00    +0.060 C 
ATOM      4  C   LIG A   1      -8.695  -1.706 125.459  0.00  0.00    +0.020 C 
ATOM      5  C   LIG A   1      -8.883  -0.594 126.176  0.00  0.00    +0.015 C 
ATOM      6  C   LIG A   1      -8.419   0.672 125.615  0.00  0.00    +0.059 A 
ATOM      7  C   LIG A   1      -8.360   1.852 126.374  0.00  0.00    +0.146 A 
ATOM      8  C   LIG A   1      -7.938   3.045 125.789  0.00  0.00    +0.104 A 
ATOM      9  C   LIG A   1      -7.856   4.258 126.622  0.00  0.00    +0.210 C 
ATOM     10  C   LIG A   1      -7.894   4.099 128.141  0.00  0.00    +0.197 C 
ATOM     11  C   LIG A   1      -8.911   4.933 128.889  0.00  0.00    +0.041 A 
ATOM     12  C   LIG A   1      -9.574   6.052 128.376  0.00  0.00    +0.060 A 
ATOM     13  C   LIG A   1     -10.389   6.857 129.193  0.00  0.00    +0.162 A 
ATOM     14  C   LIG A   1     -10.498   6.580 130.565  0.00  0.00    +0.165 A 
ATOM     15  C   LIG A   1      -9.864   5.445 131.078  0.00  0.00    +0.095 A 
ATOM     16  C   LIG A   1      -9.099   4.634 130.241  0.00  0.00    +0.131 A 
ATOM     17  O   LIG A   1      -8.468   3.558 130.811  0.00  0.00    -0.488 OA
ATOM     18  C   LIG A   1      -8.556   2.422 129.952  0.00  0.00    +0.277 C 
ATOM     19  C   LIG A   1      -7.960   2.618 128.549  0.00  0.00    +0.254 C 
ATOM     20  O   LIG A   1      -8.773   1.811 127.677  0.00  0.00    -0.480 OA
ATOM     21  O   LIG A   1      -7.641   5.337 126.063  0.00  0.00    -0.288 OA
ATOM     22  C   LIG A   1      -7.583   3.069 124.435  0.00  0.00    +0.135 A 
ATOM     23  C   LIG A   1      -7.620   1.902 123.679  0.00  0.00    +0.092 A 
ATOM     24  C   LIG A   1      -8.016   0.704 124.273  0.00  0.00    +0.136 A 
ATOM     25  O   LIG A   1      -8.010  -0.399 123.463  0.00  0.00    -0.481 OA
ENDROOT
BRANCH  13  26
ATOM     26  O   LIG A   1     -10.941   7.918 128.519  0.00  0.00    -0.491 OA
ATOM     27  C   LIG A   1     -10.923   7.852 127.098  0.00  0.00    +0.277 C 
ENDBRANCH  13  26
BRANCH  14  28
ATOM     28  O   LIG A   1     -11.231   7.429 131.354  0.00  0.00    -0.491 OA
ATOM     29  C   LIG A   1     -12.630   7.171 131.421  0.00  0.00    +0.277 C 
ENDBRANCH  14  28
BRANCH  10  30
ATOM     30  O   LIG A   1      -6.599   4.611 128.542  0.00  0.00    -0.373 OA
ATOM     31  H   LIG A   1      -6.139   3.872 128.986  0.00  0.00    +0.211 HD
ENDBRANCH  10  30
BRANCH  22  32
ATOM     32  O   LIG A   1      -7.179   4.203 123.785  0.00  0.00    -0.506 OA
ATOM     33  H   LIG A   1      -7.119   4.932 124.442  0.00  0.00    +0.292 HD
ENDBRANCH  22  32
TORSDOF 4
ENDMDL
MODEL 2
REMARK VINA RESULT:      -8.3      2.096      2.980
REMARK  Name = NuBBE_1455
REMARK  8 active torsions:
REMARK  status: ('A' for Active; 'I' for Inactive)
REMARK    1  A    between atoms: C_1  and  C_2
REMARK    2  A    between atoms: C_2  and  C_3
REMARK    3  A    between atoms: C_10  and  O_23
REMARK    4  A    between atoms: C_13  and  O_14
REMARK    5  A    between atoms: O_14  and  C_15
REMARK    6  A    between atoms: C_16  and  O_17
REMARK    7  A    between atoms: O_17  and  C_18
REMARK    8  A    between atoms: C_27  and  O_28
REMARK                            x       y       z     vdW  Elec       q    Type
REMARK                         _______ _______ _______ _____ _____    ______ ____
ROOT
ATOM      1  C   LIG A   1      -7.383  -2.499 123.188  0.00  0.00    +0.060 C 
ATOM      2  C   LIG A   1      -8.715  -2.423 123.948  0.00  0.00    +0.123 C 
ATOM      3  C   LIG A   1      -9.746  -3.327 123.263  0.00  0.00    +0.060 C 
ATOM      4  C   LIG A   1      -8.518  -2.877 125.376  0.00  0.00    +0.020 C 
ATOM      5  C   LIG A   1      -8.451  -2.022 126.401  0.00  0.00    +0.015 C 
ATOM      6  C   LIG A   1      -8.558  -0.594 126.112  0.00  0.00    +0.059 A 
ATOM      7  C   LIG A   1      -8.274   0.389 127.075  0.00  0.00    +0.146 A 
ATOM      8  C   LIG A   1      -8.418   1.740 126.764  0.00  0.00    +0.104 A 
ATOM      9  C   LIG A   1      -8.080   2.747 127.786  0.00  0.00    +0.210 C 
ATOM     10  C   LIG A   1      -7.267   2.302 129.001  0.00  0.00    +0.197 C 
ATOM     11  C   LIG A   1      -7.829   2.650 130.362  0.00  0.00    +0.041 A 
ATOM     12  C   LIG A   1      -8.822   3.604 130.607  0.00  0.00    +0.060 A 
ATOM     13  C   LIG A   1      -9.175   3.971 131.919  0.00  0.00    +0.162 A 
ATOM     14  C   LIG A   1      -8.482   3.423 133.011  0.00  0.00    +0.165 A 
ATOM     15  C   LIG A   1      -7.512   2.446 132.774  0.00  0.00    +0.095 A 
ATOM     16  C   LIG A   1      -7.210   2.062 131.469  0.00  0.00    +0.131 A 
ATOM     17  O   LIG A   1      -6.220   1.129 131.298  0.00  0.00    -0.488 OA
ATOM     18  C   LIG A   1      -6.588   0.198 130.282  0.00  0.00    +0.277 C 
ATOM     19  C   LIG A   1      -6.882   0.817 128.906  0.00  0.00    +0.254 C 
ATOM     20  O   LIG A   1      -7.906  -0.014 128.329  0.00  0.00    -0.480 OA
ATOM     21  O   LIG A   1      -8.364   3.926 127.561  0.00  0.00    -0.288 OA
ATOM     22  C   LIG A   1      -8.859   2.118 125.490  0.00  0.00    +0.135 A 
ATOM     23  C   LIG A   1      -9.124   1.153 124.524  0.00  0.00    +0.092 A 
ATOM     24  C   LIG A   1      -8.954  -0.197 124.829  0.00  0.00    +0.136 A 
ATOM     25  O   LIG A   1      -9.223  -1.079 123.817  0.00  0.00    -0.481 OA
ENDROOT
BRANCH  13  26
ATOM     26  O   LIG A   1     -10.153   4.932 131.962  0.00  0.00    -0.491 OA
ATOM     27  C   LIG A   1      -9.786   6.238 131.532  0.00  0.00    +0.277 C 
ENDBRANCH  13  26
BRANCH  14  28
ATOM     28  O   LIG A   1      -8.790   3.860 134.274  0.00  0.00    -0.491 OA
ATOM     29  C   LIG A   1      -7.892   4.808 134.845  0.00  0.00    +0.277 C 
ENDBRANCH  14  28
BRANCH  10  30
ATOM     30  O   LIG A   1      -6.054   3.084 128.869  0.00  0.00    -0.373 OA
ATOM     31  H   LIG A   1      -6.327   3.955 128.523  0.00  0.00    +0.211 HD
ENDBRANCH  10  30
BRANCH  22  32
ATOM     32  O   LIG A   1      -9.043   3.421 125.117  0.00  0.00    -0.506 OA
ATOM     33  H   LIG A   1      -8.507   3.592 124.310  0.00  0.00    +0.292 HD
ENDBRANCH  22  32
TORSDOF 4
ENDMDL
MODEL 3
REMARK VINA RESULT:      -8.2      3.095      4.320
REMARK  Name = NuBBE_1455
REMARK  8 active torsions:
REMARK  status: ('A' for Active; 'I' for Inactive)
REMARK    1  A    between atoms: C_1  and  C_2
REMARK    2  A    between atoms: C_2  and  C_3
REMARK    3  A    between atoms: C_10  and  O_23
REMARK    4  A    between atoms: C_13  and  O_14
REMARK    5  A    between atoms: O_14  and  C_15
REMARK    6  A    between atoms: C_16  and  O_17
REMARK    7  A    between atoms: O_17  and  C_18
REMARK    8  A    between atoms: C_27  and  O_28
REMARK                            x       y       z     vdW  Elec       q    Type
REMARK                         _______ _______ _______ _____ _____    ______ ____
ROOT
ATOM      1  C   LIG A   1      -5.815  -1.282 132.014  0.00  0.00    +0.060 C 
ATOM      2  C   LIG A   1      -7.163  -1.406 131.290  0.00  0.00    +0.123 C 
ATOM      3  C   LIG A   1      -7.501  -2.888 131.090  0.00  0.00    +0.060 C 
ATOM      4  C   LIG A   1      -8.249  -0.749 132.110  0.00  0.00    +0.020 C 
ATOM      5  C   LIG A   1      -8.755   0.450 131.805  0.00  0.00    +0.015 C 
ATOM      6  C   LIG A   1      -8.217   1.147 130.640  0.00  0.00    +0.059 A 
ATOM      7  C   LIG A   1      -8.513   2.494 130.370  0.00  0.00    +0.146 A 
ATOM      8  C   LIG A   1      -8.000   3.111 129.230  0.00  0.00    +0.104 A 
ATOM      9  C   LIG A   1      -8.302   4.534 128.992  0.00  0.00    +0.210 C 
ATOM     10  C   LIG A   1      -8.857   5.360 130.151  0.00  0.00    +0.197 C 
ATOM     11  C   LIG A   1     -10.129   6.137 129.887  0.00  0.00    +0.041 A 
ATOM     12  C   LIG A   1     -10.649   6.431 128.623  0.00  0.00    +0.060 A 
ATOM     13  C   LIG A   1     -11.754   7.288 128.468  0.00  0.00    +0.162 A 
ATOM     14  C   LIG A   1     -12.316   7.917 129.592  0.00  0.00    +0.165 A 
ATOM     15  C   LIG A   1     -11.821   7.603 130.860  0.00  0.00    +0.095 A 
ATOM     16  C   LIG A   1     -10.756   6.714 130.994  0.00  0.00    +0.131 A 
ATOM     17  O   LIG A   1     -10.288   6.478 132.262  0.00  0.00    -0.488 OA
ATOM     18  C   LIG A   1      -9.987   5.093 132.427  0.00  0.00    +0.277 C 
ATOM     19  C   LIG A   1      -8.954   4.527 131.439  0.00  0.00    +0.254 C 
ATOM     20  O   LIG A   1      -9.351   3.161 131.219  0.00  0.00    -0.480 OA
ATOM     21  O   LIG A   1      -7.983   5.025 127.906  0.00  0.00    -0.288 OA
ATOM     22  C   LIG A   1      -7.197   2.382 128.345  0.00  0.00    +0.135 A 
ATOM     23  C   LIG A   1      -6.882   1.054 128.614  0.00  0.00    +0.092 A 
ATOM     24  C   LIG A   1      -7.374   0.446 129.769  0.00  0.00    +0.136 A 
ATOM     25  O   LIG A   1      -7.005  -0.857 129.965  0.00  0.00    -0.481 OA
ENDROOT
BRANCH  13  26
ATOM     26  O   LIG A   1     -12.111   7.472 127.156  0.00  0.00    -0.491 OA
ATOM     27  C   LIG A   1     -11.052   7.683 126.230  0.00  0.00    +0.277 C 
ENDBRANCH  13  26
BRANCH  14  28
ATOM     28  O   LIG A   1     -13.337   8.812 129.404  0.00  0.00    -0.491 OA
ATOM     29  C   LIG A   1     -13.054  10.167 129.745  0.00  0.00    +0.277 C 
ENDBRANCH  14  28
BRANCH  10  30
ATOM     30  O   LIG A   1      -7.825   6.359 130.347  0.00  0.00    -0.373 OA
ATOM     31  H   LIG A   1      -8.178   6.991 131.002  0.00  0.00    +0.211 HD
ENDBRANCH  10  30
BRANCH  22  32
ATOM     32  O   LIG A   1      -6.673   2.911 127.197  0.00  0.00    -0.506 OA
ATOM     33  H   LIG A   1      -7.412   3.087 126.572  0.00  0.00    +0.292 HD
ENDBRANCH  22  32
TORSDOF 4
ENDMDL
MODEL 4
REMARK VINA RESULT:      -7.7      4.940      6.657
REMARK  Name = NuBBE_1455
REMARK  8 active torsions:
REMARK  status: ('A' for Active; 'I' for Inactive)
REMARK    1  A    between atoms: C_1  and  C_2
REMARK    2  A    between atoms: C_2  and  C_3
REMARK    3  A    between atoms: C_10  and  O_23
REMARK    4  A    between atoms: C_13  and  O_14
REMARK    5  A    between atoms: O_14  and  C_15
REMARK    6  A    between atoms: C_16  and  O_17
REMARK    7  A    between atoms: O_17  and  C_18
REMARK    8  A    between atoms: C_27  and  O_28
REMARK                            x       y       z     vdW  Elec       q    Type
REMARK                         _______ _______ _______ _____ _____    ______ ____
ROOT
ATOM      1  C   LIG A   1      -7.372  -3.841 133.834  0.00  0.00    +0.060 C 
ATOM      2  C   LIG A   1      -6.491  -3.188 132.760  0.00  0.00    +0.123 C 
ATOM      3  C   LIG A   1      -5.471  -4.209 132.245  0.00  0.00    +0.060 C 
ATOM      4  C   LIG A   1      -7.349  -2.711 131.612  0.00  0.00    +0.020 C 
ATOM      5  C   LIG A   1      -7.664  -1.423 131.434  0.00  0.00    +0.015 C 
ATOM      6  C   LIG A   1      -7.165  -0.454 132.405  0.00  0.00    +0.059 A 
ATOM      7  C   LIG A   1      -7.621   0.874 132.441  0.00  0.00    +0.146 A 
ATOM      8  C   LIG A   1      -7.095   1.774 133.368  0.00  0.00    +0.104 A 
ATOM      9  C   LIG A   1      -7.619   3.151 133.400  0.00  0.00    +0.210 C 
ATOM     10  C   LIG A   1      -8.933   3.444 132.679  0.00  0.00    +0.197 C 
ATOM     11  C   LIG A   1      -8.931   4.595 131.698  0.00  0.00    +0.041 A 
ATOM     12  C   LIG A   1      -7.962   5.602 131.634  0.00  0.00    +0.060 A 
ATOM     13  C   LIG A   1      -8.120   6.717 130.790  0.00  0.00    +0.162 A 
ATOM     14  C   LIG A   1      -9.298   6.866 130.039  0.00  0.00    +0.165 A 
ATOM     15  C   LIG A   1     -10.255   5.849 130.074  0.00  0.00    +0.095 A 
ATOM     16  C   LIG A   1     -10.057   4.730 130.881  0.00  0.00    +0.131 A 
ATOM     17  O   LIG A   1     -11.051   3.786 130.904  0.00  0.00    -0.488 OA
ATOM     18  C   LIG A   1     -10.487   2.475 130.897  0.00  0.00    +0.277 C 
ATOM     19  C   LIG A   1      -9.532   2.169 132.062  0.00  0.00    +0.254 C 
ATOM     20  O   LIG A   1      -8.549   1.270 131.518  0.00  0.00    -0.480 OA
ATOM     21  O   LIG A   1      -7.039   3.980 134.106  0.00  0.00    -0.288 OA
ATOM     22  C   LIG A   1      -6.099   1.354 134.257  0.00  0.00    +0.135 A 
ATOM     23  C   LIG A   1      -5.655   0.036 134.243  0.00  0.00    +0.092 A 
ATOM     24  C   LIG A   1      -6.201  -0.869 133.333  0.00  0.00    +0.136 A 
ATOM     25  O   LIG A   1      -5.718  -2.148 133.396  0.00  0.00    -0.481 OA
ENDROOT
BRANCH  13  26
ATOM     26  O   LIG A   1      -7.078   7.605 130.876  0.00  0.00    -0.491 OA
ATOM     27  C   LIG A   1      -5.767   7.053 130.883  0.00  0.00    +0.277 C 
ENDBRANCH  13  26
BRANCH  14  28
ATOM     28  O   LIG A   1      -9.462   8.003 129.291  0.00  0.00    -0.491 OA
ATOM     29  C   LIG A   1     -10.692   8.112 128.578  0.00  0.00    +0.277 C 
ENDBRANCH  14  28
BRANCH  10  30
ATOM     30  O   LIG A   1      -9.801   3.859 133.764  0.00  0.00    -0.373 OA
ATOM     31  H   LIG A   1     -10.714   3.692 133.461  0.00  0.00    +0.211 HD
ENDBRANCH  10  30
BRANCH  22  32
ATOM     32  O   LIG A   1      -5.521   2.182 135.180  0.00  0.00    -0.506 OA
ATOM     33  H   LIG A   1      -5.472   3.087 134.798  0.00  0.00    +0.292 HD
ENDBRANCH  22  32
TORSDOF 4
ENDMDL
MODEL 5
REMARK VINA RESULT:      -7.7      2.697      8.739
REMARK  Name = NuBBE_1455
REMARK  8 active torsions:
REMARK  status: ('A' for Active; 'I' for Inactive)
REMARK    1  A    between atoms: C_1  and  C_2
REMARK    2  A    between atoms: C_2  and  C_3
REMARK    3  A    between atoms: C_10  and  O_23
REMARK    4  A    between atoms: C_13  and  O_14
REMARK    5  A    between atoms: O_14  and  C_15
REMARK    6  A    between atoms: C_16  and  O_17
REMARK    7  A    between atoms: O_17  and  C_18
REMARK    8  A    between atoms: C_27  and  O_28
REMARK                            x       y       z     vdW  Elec       q    Type
REMARK                         _______ _______ _______ _____ _____    ______ ____
ROOT
ATOM      1  C   LIG A   1      -8.718   6.092 132.596  0.00  0.00    +0.060 C 
ATOM      2  C   LIG A   1      -9.740   5.626 131.551  0.00  0.00    +0.123 C 
ATOM      3  C   LIG A   1     -10.998   6.496 131.643  0.00  0.00    +0.060 C 
ATOM      4  C   LIG A   1      -9.148   5.744 130.165  0.00  0.00    +0.020 C 
ATOM      5  C   LIG A   1      -8.703   4.686 129.480  0.00  0.00    +0.015 C 
ATOM      6  C   LIG A   1      -8.784   3.373 130.114  0.00  0.00    +0.059 A 
ATOM      7  C   LIG A   1      -8.143   2.242 129.581  0.00  0.00    +0.146 A 
ATOM      8  C   LIG A   1      -8.271   1.002 130.205  0.00  0.00    +0.104 A 
ATOM      9  C   LIG A   1      -7.558  -0.158 129.639  0.00  0.00    +0.210 C 
ATOM     10  C   LIG A   1      -6.448   0.100 128.623  0.00  0.00    +0.197 C 
ATOM     11  C   LIG A   1      -6.533  -0.653 127.313  0.00  0.00    +0.041 A 
ATOM     12  C   LIG A   1      -7.326  -1.781 127.079  0.00  0.00    +0.060 A 
ATOM     13  C   LIG A   1      -7.228  -2.507 125.877  0.00  0.00    +0.162 A 
ATOM     14  C   LIG A   1      -6.277  -2.139 124.912  0.00  0.00    +0.165 A 
ATOM     15  C   LIG A   1      -5.505  -0.994 125.125  0.00  0.00    +0.095 A 
ATOM     16  C   LIG A   1      -5.651  -0.262 126.302  0.00  0.00    +0.131 A 
ATOM     17  O   LIG A   1      -4.835   0.827 126.472  0.00  0.00    -0.488 OA
ATOM     18  C   LIG A   1      -5.569   1.909 127.046  0.00  0.00    +0.277 C 
ATOM     19  C   LIG A   1      -6.225   1.605 128.402  0.00  0.00    +0.254 C 
ATOM     20  O   LIG A   1      -7.438   2.380 128.418  0.00  0.00    -0.480 OA
ATOM     21  O   LIG A   1      -7.806  -1.276 130.097  0.00  0.00    -0.288 OA
ATOM     22  C   LIG A   1      -9.053   0.881 131.359  0.00  0.00    +0.135 A 
ATOM     23  C   LIG A   1      -9.677   1.998 131.905  0.00  0.00    +0.092 A 
ATOM     24  C   LIG A   1      -9.525   3.244 131.296  0.00  0.00    +0.136 A 
ATOM     25  O   LIG A   1     -10.159   4.291 131.906  0.00  0.00    -0.481 OA
ENDROOT
BRANCH  13  26
ATOM     26  O   LIG A   1      -8.069  -3.590 125.836  0.00  0.00    -0.491 OA
ATOM     27  C   LIG A   1      -9.059  -3.670 126.854  0.00  0.00    +0.277 C 
ENDBRANCH  13  26
BRANCH  14  28
ATOM     28  O   LIG A   1      -6.145  -2.913 123.787  0.00  0.00    -0.491 OA
ATOM     29  C   LIG A   1      -4.913  -3.616 123.651  0.00  0.00    +0.277 C 
ENDBRANCH  14  28
BRANCH  10  30
ATOM     30  O   LIG A   1      -5.277  -0.426 129.297  0.00  0.00    -0.373 OA
ATOM     31  H   LIG A   1      -5.101  -1.299 128.896  0.00  0.00    +0.211 HD
ENDBRANCH  10  30
BRANCH  22  32
ATOM     32  O   LIG A   1      -9.243  -0.304 132.016  0.00  0.00    -0.506 OA
ATOM     33  H   LIG A   1      -8.491  -0.901 131.802  0.00  0.00    +0.292 HD
ENDBRANCH  22  32
TORSDOF 4
ENDMDL
MODEL 6
REMARK VINA RESULT:      -7.7      3.430      8.120
REMARK  Name = NuBBE_1455
REMARK  8 active torsions:
REMARK  status: ('A' for Active; 'I' for Inactive)
REMARK    1  A    between atoms: C_1  and  C_2
REMARK    2  A    between atoms: C_2  and  C_3
REMARK    3  A    between atoms: C_10  and  O_23
REMARK    4  A    between atoms: C_13  and  O_14
REMARK    5  A    between atoms: O_14  and  C_15
REMARK    6  A    between atoms: C_16  and  O_17
REMARK    7  A    between atoms: O_17  and  C_18
REMARK    8  A    between atoms: C_27  and  O_28
REMARK                            x       y       z     vdW  Elec       q    Type
REMARK                         _______ _______ _______ _____ _____    ______ ____
ROOT
ATOM      1  C   LIG A   1      -3.404   8.145 131.097  0.00  0.00    +0.060 C 
ATOM      2  C   LIG A   1      -4.016   6.851 131.651  0.00  0.00    +0.123 C 
ATOM      3  C   LIG A   1      -3.862   6.825 133.176  0.00  0.00    +0.060 C 
ATOM      4  C   LIG A   1      -5.482   6.782 131.292  0.00  0.00    +0.020 C 
ATOM      5  C   LIG A   1      -5.948   6.000 130.313  0.00  0.00    +0.015 C 
ATOM      6  C   LIG A   1      -4.988   5.199 129.558  0.00  0.00    +0.059 A 
ATOM      7  C   LIG A   1      -5.338   4.528 128.375  0.00  0.00    +0.146 A 
ATOM      8  C   LIG A   1      -4.396   3.750 127.703  0.00  0.00    +0.104 A 
ATOM      9  C   LIG A   1      -4.787   3.086 126.446  0.00  0.00    +0.210 C 
ATOM     10  C   LIG A   1      -6.067   3.544 125.751  0.00  0.00    +0.197 C 
ATOM     11  C   LIG A   1      -7.073   2.470 125.396  0.00  0.00    +0.041 A 
ATOM     12  C   LIG A   1      -6.805   1.098 125.341  0.00  0.00    +0.060 A 
ATOM     13  C   LIG A   1      -7.759   0.186 124.853  0.00  0.00    +0.162 A 
ATOM     14  C   LIG A   1      -8.984   0.655 124.351  0.00  0.00    +0.165 A 
ATOM     15  C   LIG A   1      -9.270   2.020 124.432  0.00  0.00    +0.095 A 
ATOM     16  C   LIG A   1      -8.329   2.901 124.963  0.00  0.00    +0.131 A 
ATOM     17  O   LIG A   1      -8.652   4.234 124.978  0.00  0.00    -0.488 OA
ATOM     18  C   LIG A   1      -8.229   4.830 126.203  0.00  0.00    +0.277 C 
ATOM     19  C   LIG A   1      -6.725   4.715 126.500  0.00  0.00    +0.254 C 
ATOM     20  O   LIG A   1      -6.629   4.616 127.932  0.00  0.00    -0.480 OA
ATOM     21  O   LIG A   1      -4.004   2.274 125.947  0.00  0.00    -0.288 OA
ATOM     22  C   LIG A   1      -3.100   3.628 128.216  0.00  0.00    +0.135 A 
ATOM     23  C   LIG A   1      -2.738   4.304 129.377  0.00  0.00    +0.092 A 
ATOM     24  C   LIG A   1      -3.674   5.104 130.033  0.00  0.00    +0.136 A 
ATOM     25  O   LIG A   1      -3.231   5.744 131.158  0.00  0.00    -0.481 OA
ENDROOT
BRANCH  13  26
ATOM     26  O   LIG A   1      -7.312  -1.111 124.859  0.00  0.00    -0.491 OA
ATOM     27  C   LIG A   1      -6.552  -1.530 123.731  0.00  0.00    +0.277 C 
ENDBRANCH  13  26
BRANCH  14  28
ATOM     28  O   LIG A   1      -9.861  -0.247 123.805  0.00  0.00    -0.491 OA
ATOM     29  C   LIG A   1     -10.182  -0.056 122.430  0.00  0.00    +0.277 C 
ENDBRANCH  14  28
BRANCH  10  30
ATOM     30  O   LIG A   1      -5.574   4.049 124.485  0.00  0.00    -0.373 OA
ATOM     31  H   LIG A   1      -5.942   3.463 123.796  0.00  0.00    +0.211 HD
ENDBRANCH  10  30
BRANCH  22  32
ATOM     32  O   LIG A   1      -2.128   2.869 127.625  0.00  0.00    -0.506 OA
ATOM     33  H   LIG A   1      -2.245   1.936 127.912  0.00  0.00    +0.292 HD
ENDBRANCH  22  32
TORSDOF 4
ENDMDL
MODEL 7
REMARK VINA RESULT:      -7.6      3.993      8.382
REMARK  Name = NuBBE_1455
REMARK  8 active torsions:
REMARK  status: ('A' for Active; 'I' for Inactive)
REMARK    1  A    between atoms: C_1  and  C_2
REMARK    2  A    between atoms: C_2  and  C_3
REMARK    3  A    between atoms: C_10  and  O_23
REMARK    4  A    between atoms: C_13  and  O_14
REMARK    5  A    between atoms: O_14  and  C_15
REMARK    6  A    between atoms: C_16  and  O_17
REMARK    7  A    between atoms: O_17  and  C_18
REMARK    8  A    between atoms: C_27  and  O_28
REMARK                            x       y       z     vdW  Elec       q    Type
REMARK                         _______ _______ _______ _____ _____    ______ ____
ROOT
ATOM      1  C   LIG A   1      -3.796   9.006 129.921  0.00  0.00    +0.060 C 
ATOM      2  C   LIG A   1      -3.601   7.781 130.824  0.00  0.00    +0.123 C 
ATOM      3  C   LIG A   1      -2.947   8.216 132.141  0.00  0.00    +0.060 C 
ATOM      4  C   LIG A   1      -4.937   7.139 131.115  0.00  0.00    +0.020 C 
ATOM      5  C   LIG A   1      -5.342   6.015 130.514  0.00  0.00    +0.015 C 
ATOM      6  C   LIG A   1      -4.454   5.405 129.529  0.00  0.00    +0.059 A 
ATOM      7  C   LIG A   1      -4.874   4.365 128.683  0.00  0.00    +0.146 A 
ATOM      8  C   LIG A   1      -3.983   3.792 127.777  0.00  0.00    +0.104 A 
ATOM      9  C   LIG A   1      -4.464   2.725 126.881  0.00  0.00    +0.210 C 
ATOM     10  C   LIG A   1      -5.972   2.531 126.730  0.00  0.00    +0.197 C 
ATOM     11  C   LIG A   1      -6.505   1.132 126.949  0.00  0.00    +0.041 A 
ATOM     12  C   LIG A   1      -5.735  -0.036 126.949  0.00  0.00    +0.060 A 
ATOM     13  C   LIG A   1      -6.336  -1.307 127.009  0.00  0.00    +0.162 A 
ATOM     14  C   LIG A   1      -7.736  -1.422 127.007  0.00  0.00    +0.165 A 
ATOM     15  C   LIG A   1      -8.509  -0.259 127.041  0.00  0.00    +0.095 A 
ATOM     16  C   LIG A   1      -7.893   0.991 127.028  0.00  0.00    +0.131 A 
ATOM     17  O   LIG A   1      -8.707   2.095 127.020  0.00  0.00    -0.488 OA
ATOM     18  C   LIG A   1      -8.180   3.103 127.883  0.00  0.00    +0.277 C 
ATOM     19  C   LIG A   1      -6.757   3.574 127.542  0.00  0.00    +0.254 C 
ATOM     20  O   LIG A   1      -6.154   3.900 128.807  0.00  0.00    -0.480 OA
ATOM     21  O   LIG A   1      -3.635   2.115 126.201  0.00  0.00    -0.288 OA
ATOM     22  C   LIG A   1      -2.660   4.247 127.718  0.00  0.00    +0.135 A 
ATOM     23  C   LIG A   1      -2.240   5.289 128.538  0.00  0.00    +0.092 A 
ATOM     24  C   LIG A   1      -3.140   5.880 129.425  0.00  0.00    +0.136 A 
ATOM     25  O   LIG A   1      -2.648   6.907 130.183  0.00  0.00    -0.481 OA
ENDROOT
BRANCH  13  26
ATOM     26  O   LIG A   1      -5.424  -2.332 126.980  0.00  0.00    -0.491 OA
ATOM     27  C   LIG A   1      -4.767  -2.638 128.204  0.00  0.00    +0.277 C 
ENDBRANCH  13  26
BRANCH  14  28
ATOM     28  O   LIG A   1      -8.294  -2.674 126.982  0.00  0.00    -0.491 OA
ATOM     29  C   LIG A   1      -9.321  -2.883 126.017  0.00  0.00    +0.277 C 
ENDBRANCH  14  28
BRANCH  10  30
ATOM     30  O   LIG A   1      -6.185   2.812 125.324  0.00  0.00    -0.373 OA
ATOM     31  H   LIG A   1      -7.044   2.409 125.093  0.00  0.00    +0.211 HD
ENDBRANCH  10  30
BRANCH  22  32
ATOM     32  O   LIG A   1      -1.723   3.723 126.871  0.00  0.00    -0.506 OA
ATOM     33  H   LIG A   1      -1.916   4.041 125.960  0.00  0.00    +0.292 HD
ENDBRANCH  22  32
TORSDOF 4
ENDMDL
MODEL 8
REMARK VINA RESULT:      -7.5      4.142      5.221
REMARK  Name = NuBBE_1455
REMARK  8 active torsions:
REMARK  status: ('A' for Active; 'I' for Inactive)
REMARK    1  A    between atoms: C_1  and  C_2
REMARK    2  A    between atoms: C_2  and  C_3
REMARK    3  A    between atoms: C_10  and  O_23
REMARK    4  A    between atoms: C_13  and  O_14
REMARK    5  A    between atoms: O_14  and  C_15
REMARK    6  A    between atoms: C_16  and  O_17
REMARK    7  A    between atoms: O_17  and  C_18
REMARK    8  A    between atoms: C_27  and  O_28
REMARK                            x       y       z     vdW  Elec       q    Type
REMARK                         _______ _______ _______ _____ _____    ______ ____
ROOT
ATOM      1  C   LIG A   1      -3.895  -0.368 133.384  0.00  0.00    +0.060 C 
ATOM      2  C   LIG A   1      -5.152  -0.802 132.616  0.00  0.00    +0.123 C 
ATOM      3  C   LIG A   1      -5.193  -2.332 132.526  0.00  0.00    +0.060 C 
ATOM      4  C   LIG A   1      -6.387  -0.307 133.332  0.00  0.00    +0.020 C 
ATOM      5  C   LIG A   1      -7.092   0.747 132.907  0.00  0.00    +0.015 C 
ATOM      6  C   LIG A   1      -6.629   1.446 131.712  0.00  0.00    +0.059 A 
ATOM      7  C   LIG A   1      -7.156   2.687 131.318  0.00  0.00    +0.146 A 
ATOM      8  C   LIG A   1      -6.704   3.306 130.153  0.00  0.00    +0.104 A 
ATOM      9  C   LIG A   1      -7.255   4.623 129.785  0.00  0.00    +0.210 C 
ATOM     10  C   LIG A   1      -8.021   5.410 130.847  0.00  0.00    +0.197 C 
ATOM     11  C   LIG A   1      -9.399   5.906 130.465  0.00  0.00    +0.041 A 
ATOM     12  C   LIG A   1      -9.892   6.000 129.160  0.00  0.00    +0.060 A 
ATOM     13  C   LIG A   1     -11.128   6.616 128.888  0.00  0.00    +0.162 A 
ATOM     14  C   LIG A   1     -11.861   7.206 129.930  0.00  0.00    +0.165 A 
ATOM     15  C   LIG A   1     -11.390   7.087 131.240  0.00  0.00    +0.095 A 
ATOM     16  C   LIG A   1     -10.186   6.432 131.493  0.00  0.00    +0.131 A 
ATOM     17  O   LIG A   1      -9.756   6.384 132.794  0.00  0.00    -0.488 OA
ATOM     18  C   LIG A   1      -9.210   5.098 133.087  0.00  0.00    +0.277 C 
ATOM     19  C   LIG A   1      -8.034   4.671 132.195  0.00  0.00    +0.254 C 
ATOM     20  O   LIG A   1      -8.153   3.242 132.073  0.00  0.00    -0.480 OA
ATOM     21  O   LIG A   1      -6.972   5.085 128.677  0.00  0.00    -0.288 OA
ATOM     22  C   LIG A   1      -5.728   2.681 129.367  0.00  0.00    +0.135 A 
ATOM     23  C   LIG A   1      -5.186   1.462 129.759  0.00  0.00    +0.092 A 
ATOM     24  C   LIG A   1      -5.620   0.858 130.939  0.00  0.00    +0.136 A 
ATOM     25  O   LIG A   1      -5.024  -0.332 131.257  0.00  0.00    -0.481 OA
ENDROOT
BRANCH  13  26
ATOM     26  O   LIG A   1     -11.436   6.630 127.551  0.00  0.00    -0.491 OA
ATOM     27  C   LIG A   1     -10.897   7.698 126.782  0.00  0.00    +0.277 C 
ENDBRANCH  13  26
BRANCH  14  28
ATOM     28  O   LIG A   1     -13.020   7.872 129.626  0.00  0.00    -0.491 OA
ATOM     29  C   LIG A   1     -12.900   9.276 129.412  0.00  0.00    +0.277 C 
ENDBRANCH  14  28
BRANCH  10  30
ATOM     30  O   LIG A   1      -7.208   6.600 131.002  0.00  0.00    -0.373 OA
ATOM     31  H   LIG A   1      -6.898   6.599 131.928  0.00  0.00    +0.211 HD
ENDBRANCH  10  30
BRANCH  22  32
ATOM     32  O   LIG A   1      -5.249   3.215 128.202  0.00  0.00    -0.506 OA
ATOM     33  H   LIG A   1      -5.976   3.716 127.768  0.00  0.00    +0.292 HD
ENDBRANCH  22  32
TORSDOF 4
ENDMDL
MODEL 9
REMARK VINA RESULT:      -7.4      6.251      9.456
REMARK  Name = NuBBE_1455
REMARK  8 active torsions:
REMARK  status: ('A' for Active; 'I' for Inactive)
REMARK    1  A    between atoms: C_1  and  C_2
REMARK    2  A    between atoms: C_2  and  C_3
REMARK    3  A    between atoms: C_10  and  O_23
REMARK    4  A    between atoms: C_13  and  O_14
REMARK    5  A    between atoms: O_14  and  C_15
REMARK    6  A    between atoms: C_16  and  O_17
REMARK    7  A    between atoms: O_17  and  C_18
REMARK    8  A    between atoms: C_27  and  O_28
REMARK                            x       y       z     vdW  Elec       q    Type
REMARK                         _______ _______ _______ _____ _____    ______ ____
ROOT
ATOM      1  C   LIG A   1      -4.350  -4.116 135.042  0.00  0.00    +0.060 C 
ATOM      2  C   LIG A   1      -3.653  -4.774 133.843  0.00  0.00    +0.123 C 
ATOM      3  C   LIG A   1      -2.513  -5.668 134.342  0.00  0.00    +0.060 C 
ATOM      4  C   LIG A   1      -4.645  -5.611 133.068  0.00  0.00    +0.020 C 
ATOM      5  C   LIG A   1      -5.177  -5.208 131.909  0.00  0.00    +0.015 C 
ATOM      6  C   LIG A   1      -4.786  -3.900 131.392  0.00  0.00    +0.059 A 
ATOM      7  C   LIG A   1      -5.450  -3.290 130.315  0.00  0.00    +0.146 A 
ATOM      8  C   LIG A   1      -5.024  -2.052 129.835  0.00  0.00    +0.104 A 
ATOM      9  C   LIG A   1      -5.764  -1.425 128.725  0.00  0.00    +0.210 C 
ATOM     10  C   LIG A   1      -7.149  -1.968 128.379  0.00  0.00    +0.197 C 
ATOM     11  C   LIG A   1      -7.394  -2.341 126.933  0.00  0.00    +0.041 A 
ATOM     12  C   LIG A   1      -6.608  -1.936 125.849  0.00  0.00    +0.060 A 
ATOM     13  C   LIG A   1      -6.997  -2.204 124.524  0.00  0.00    +0.162 A 
ATOM     14  C   LIG A   1      -8.226  -2.834 124.267  0.00  0.00    +0.165 A 
ATOM     15  C   LIG A   1      -9.000  -3.269 125.346  0.00  0.00    +0.095 A 
ATOM     16  C   LIG A   1      -8.573  -3.036 126.652  0.00  0.00    +0.131 A 
ATOM     17  O   LIG A   1      -9.397  -3.450 127.668  0.00  0.00    -0.488 OA
ATOM     18  C   LIG A   1      -8.627  -4.024 128.724  0.00  0.00    +0.277 C 
ATOM     19  C   LIG A   1      -7.566  -3.095 129.337  0.00  0.00    +0.254 C 
ATOM     20  O   LIG A   1      -6.484  -3.961 129.722  0.00  0.00    -0.480 OA
ATOM     21  O   LIG A   1      -5.286  -0.415 128.202  0.00  0.00    -0.288 OA
ATOM     22  C   LIG A   1      -3.922  -1.420 130.422  0.00  0.00    +0.135 A 
ATOM     23  C   LIG A   1      -3.269  -2.006 131.502  0.00  0.00    +0.092 A 
ATOM     24  C   LIG A   1      -3.713  -3.232 131.998  0.00  0.00    +0.136 A 
ATOM     25  O   LIG A   1      -3.024  -3.730 133.070  0.00  0.00    -0.481 OA
ENDROOT
BRANCH  13  26
ATOM     26  O   LIG A   1      -6.111  -1.716 123.596  0.00  0.00    -0.491 OA
ATOM     27  C   LIG A   1      -5.166  -2.639 123.068  0.00  0.00    +0.277 C 
ENDBRANCH  13  26
BRANCH  14  28
ATOM     28  O   LIG A   1      -8.619  -3.008 122.965  0.00  0.00    -0.491 OA
ATOM     29  C   LIG A   1      -9.343  -1.929 122.380  0.00  0.00    +0.277 C 
ENDBRANCH  14  28
BRANCH  10  30
ATOM     30  O   LIG A   1      -8.006  -0.828 128.637  0.00  0.00    -0.373 OA
ATOM     31  H   LIG A   1      -8.142  -0.803 129.604  0.00  0.00    +0.211 HD
ENDBRANCH  10  30
BRANCH  22  32
ATOM     32  O   LIG A   1      -3.433  -0.216 129.995  0.00  0.00    -0.506 OA
ATOM     33  H   LIG A   1      -2.605  -0.379 129.489  0.00  0.00    +0.292 HD
ENDBRANCH  22  32
TORSDOF 4
ENDMDL
