MODEL 1
REMARK VINA RESULT:      -7.4      0.000      0.000
REMARK  Name = NuBBE_1129
REMARK  6 active torsions:
REMARK  status: ('A' for Active; 'I' for Inactive)
REMARK    1  A    between atoms: C_1  and  S_2
REMARK    2  A    between atoms: S_2  and  C_3
REMARK    3  A    between atoms: N_16  and  C_17
REMARK    4  A    between atoms: C_17  and  C_18
REMARK    5  A    between atoms: C_18  and  C_19
REMARK    6  A    between atoms: N_25  and  C_26
REMARK                            x       y       z     vdW  Elec       q    Type
REMARK                         _______ _______ _______ _____ _____    ______ ____
ROOT
ATOM      1  C   LIG A   1      -6.601  -2.963 129.710  0.00  0.00    +0.009 A 
ATOM      2  C   LIG A   1      -7.934  -3.356 129.669  0.00  0.00    +0.016 A 
ATOM      3  C   LIG A   1      -8.618  -3.331 128.459  0.00  0.00    +0.020 A 
ATOM      4  C   LIG A   1      -5.980  -2.508 128.536  0.00  0.00    +0.039 A 
ATOM      5  C   LIG A   1      -6.672  -2.413 127.306  0.00  0.00    +0.051 A 
ATOM      6  C   LIG A   1      -7.986  -2.902 127.272  0.00  0.00    +0.065 A 
ATOM      7  S   LIG A   1      -8.948  -3.130 125.790  0.00  0.00    +0.089 S 
ATOM      8  C   LIG A   1      -7.823  -2.505 124.559  0.00  0.00    +0.065 A 
ATOM      9  C   LIG A   1      -8.283  -2.587 123.225  0.00  0.00    +0.019 A 
ATOM     10  C   LIG A   1      -7.443  -2.317 122.148  0.00  0.00    +0.001 A 
ATOM     11  C   LIG A   1      -6.116  -2.018 122.397  0.00  0.00    +0.002 A 
ATOM     12  C   LIG A   1      -5.666  -1.963 123.712  0.00  0.00    +0.024 A 
ATOM     13  C   LIG A   1      -6.518  -2.082 124.833  0.00  0.00    +0.050 A 
ATOM     14  N   LIG A   1      -6.015  -1.878 126.142  0.00  0.00    -0.298 N 
ATOM     15  O   LIG A   1     -10.095  -2.162 125.870  0.00  0.00    -0.247 OA
ENDROOT
BRANCH   1  17
ATOM     16  C   LIG A   1      -5.373  -4.867 131.257  0.00  0.00    +0.090 C 
ATOM     17  S   LIG A   1      -5.677  -3.079 131.230  0.00  0.00    -0.129 S 
ENDBRANCH   1  17
BRANCH  14  18
ATOM     18  C   LIG A   1      -5.453  -0.483 126.455  0.00  0.00    +0.112 C 
BRANCH  18  19
ATOM     19  C   LIG A   1      -6.403   0.720 126.266  0.00  0.00    +0.038 C 
BRANCH  19  20
ATOM     20  C   LIG A   1      -6.148   1.693 125.088  0.00  0.00    +0.058 C 
ATOM     21  C   LIG A   1      -6.978   1.347 123.840  0.00  0.00    +0.019 C 
ATOM     22  C   LIG A   1      -8.472   1.632 124.016  0.00  0.00    +0.003 C 
ATOM     23  C   LIG A   1      -8.742   3.024 124.584  0.00  0.00    +0.015 C 
ATOM     24  C   LIG A   1      -7.853   3.338 125.786  0.00  0.00    +0.084 C 
ATOM     25  N   LIG A   1      -6.424   3.088 125.539  0.00  0.00    -0.302 NA
ATOM     26  C   LIG A   1      -5.871   4.087 124.619  0.00  0.00    +0.105 C 
ENDBRANCH  19  20
ENDBRANCH  18  19
ENDBRANCH  14  18
TORSDOF 4
ENDMDL
MODEL 2
REMARK VINA RESULT:      -6.9      3.559      6.234
REMARK  Name = NuBBE_1129
REMARK  6 active torsions:
REMARK  status: ('A' for Active; 'I' for Inactive)
REMARK    1  A    between atoms: C_1  and  S_2
REMARK    2  A    between atoms: S_2  and  C_3
REMARK    3  A    between atoms: N_16  and  C_17
REMARK    4  A    between atoms: C_17  and  C_18
REMARK    5  A    between atoms: C_18  and  C_19
REMARK    6  A    between atoms: N_25  and  C_26
REMARK                            x       y       z     vdW  Elec       q    Type
REMARK                         _______ _______ _______ _____ _____    ______ ____
ROOT
ATOM      1  C   LIG A   1      -7.847   2.677 129.051  0.00  0.00    +0.009 A 
ATOM      2  C   LIG A   1      -6.679   3.390 129.298  0.00  0.00    +0.016 A 
ATOM      3  C   LIG A   1      -5.897   3.812 128.230  0.00  0.00    +0.020 A 
ATOM      4  C   LIG A   1      -8.195   2.360 127.729  0.00  0.00    +0.039 A 
ATOM      5  C   LIG A   1      -7.384   2.723 126.629  0.00  0.00    +0.051 A 
ATOM      6  C   LIG A   1      -6.262   3.520 126.897  0.00  0.00    +0.065 A 
ATOM      7  S   LIG A   1      -5.256   4.313 125.658  0.00  0.00    +0.089 S 
ATOM      8  C   LIG A   1      -6.032   3.723 124.168  0.00  0.00    +0.065 A 
ATOM      9  C   LIG A   1      -5.482   4.219 122.964  0.00  0.00    +0.019 A 
ATOM     10  C   LIG A   1      -6.101   4.000 121.737  0.00  0.00    +0.001 A 
ATOM     11  C   LIG A   1      -7.310   3.330 121.711  0.00  0.00    +0.002 A 
ATOM     12  C   LIG A   1      -7.857   2.867 122.903  0.00  0.00    +0.024 A 
ATOM     13  C   LIG A   1      -7.189   2.936 124.146  0.00  0.00    +0.050 A 
ATOM     14  N   LIG A   1      -7.745   2.321 125.294  0.00  0.00    -0.298 N 
ATOM     15  O   LIG A   1      -3.900   3.670 125.731  0.00  0.00    -0.247 OA
ENDROOT
BRANCH   1  17
ATOM     16  C   LIG A   1      -9.975   3.680 130.463  0.00  0.00    +0.090 C 
ATOM     17  S   LIG A   1      -8.915   2.209 130.400  0.00  0.00    -0.129 S 
ENDBRANCH   1  17
BRANCH  14  18
ATOM     18  C   LIG A   1      -7.926   0.797 125.241  0.00  0.00    +0.112 C 
BRANCH  18  19
ATOM     19  C   LIG A   1      -6.923  -0.004 124.381  0.00  0.00    +0.038 C 
BRANCH  19  20
ATOM     20  C   LIG A   1      -7.467  -1.085 123.414  0.00  0.00    +0.058 C 
ATOM     21  C   LIG A   1      -6.363  -1.732 122.562  0.00  0.00    +0.019 C 
ATOM     22  C   LIG A   1      -5.434  -2.638 123.374  0.00  0.00    +0.003 C 
ATOM     23  C   LIG A   1      -6.197  -3.619 124.261  0.00  0.00    +0.015 C 
ATOM     24  C   LIG A   1      -7.318  -2.935 125.043  0.00  0.00    +0.084 C 
ATOM     25  N   LIG A   1      -8.205  -2.116 124.201  0.00  0.00    -0.302 NA
ATOM     26  C   LIG A   1      -9.046  -2.964 123.351  0.00  0.00    +0.105 C 
ENDBRANCH  19  20
ENDBRANCH  18  19
ENDBRANCH  14  18
TORSDOF 4
ENDMDL
MODEL 3
REMARK VINA RESULT:      -6.8      3.408      6.602
REMARK  Name = NuBBE_1129
REMARK  6 active torsions:
REMARK  status: ('A' for Active; 'I' for Inactive)
REMARK    1  A    between atoms: C_1  and  S_2
REMARK    2  A    between atoms: S_2  and  C_3
REMARK    3  A    between atoms: N_16  and  C_17
REMARK    4  A    between atoms: C_17  and  C_18
REMARK    5  A    between atoms: C_18  and  C_19
REMARK    6  A    between atoms: N_25  and  C_26
REMARK                            x       y       z     vdW  Elec       q    Type
REMARK                         _______ _______ _______ _____ _____    ______ ____
ROOT
ATOM      1  C   LIG A   1      -8.263   1.285 130.179  0.00  0.00    +0.009 A 
ATOM      2  C   LIG A   1      -8.335   1.532 131.545  0.00  0.00    +0.016 A 
ATOM      3  C   LIG A   1      -7.977   0.532 132.440  0.00  0.00    +0.020 A 
ATOM      4  C   LIG A   1      -7.870   0.016 129.727  0.00  0.00    +0.039 A 
ATOM      5  C   LIG A   1      -7.561  -1.039 130.619  0.00  0.00    +0.051 A 
ATOM      6  C   LIG A   1      -7.552  -0.736 131.987  0.00  0.00    +0.065 A 
ATOM      7  S   LIG A   1      -6.940  -1.818 133.264  0.00  0.00    +0.089 S 
ATOM      8  C   LIG A   1      -6.501  -3.253 132.307  0.00  0.00    +0.065 A 
ATOM      9  C   LIG A   1      -5.925  -4.315 133.041  0.00  0.00    +0.019 A 
ATOM     10  C   LIG A   1      -5.359  -5.416 132.405  0.00  0.00    +0.001 A 
ATOM     11  C   LIG A   1      -5.314  -5.437 131.024  0.00  0.00    +0.002 A 
ATOM     12  C   LIG A   1      -5.862  -4.377 130.309  0.00  0.00    +0.024 A 
ATOM     13  C   LIG A   1      -6.575  -3.317 130.911  0.00  0.00    +0.050 A 
ATOM     14  N   LIG A   1      -7.225  -2.344 130.112  0.00  0.00    -0.298 N 
ATOM     15  O   LIG A   1      -8.124  -2.198 134.108  0.00  0.00    -0.247 OA
ENDROOT
BRANCH   1  17
ATOM     16  C   LIG A   1      -9.560   3.701 130.091  0.00  0.00    +0.090 C 
ATOM     17  S   LIG A   1      -8.625   2.583 129.011  0.00  0.00    -0.129 S 
ENDBRANCH   1  17
BRANCH  14  18
ATOM     18  C   LIG A   1      -8.342  -2.847 129.186  0.00  0.00    +0.112 C 
BRANCH  18  19
ATOM     19  C   LIG A   1      -7.950  -3.201 127.735  0.00  0.00    +0.038 C 
BRANCH  19  20
ATOM     20  C   LIG A   1      -7.766  -2.053 126.711  0.00  0.00    +0.058 C 
ATOM     21  C   LIG A   1      -6.628  -2.323 125.712  0.00  0.00    +0.019 C 
ATOM     22  C   LIG A   1      -6.961  -3.432 124.711  0.00  0.00    +0.003 C 
ATOM     23  C   LIG A   1      -8.333  -3.249 124.066  0.00  0.00    +0.015 C 
ATOM     24  C   LIG A   1      -9.415  -2.929 125.095  0.00  0.00    +0.084 C 
ATOM     25  N   LIG A   1      -9.056  -1.823 125.998  0.00  0.00    -0.302 NA
ATOM     26  C   LIG A   1      -9.074  -0.541 125.286  0.00  0.00    +0.105 C 
ENDBRANCH  19  20
ENDBRANCH  18  19
ENDBRANCH  14  18
TORSDOF 4
ENDMDL
MODEL 4
REMARK VINA RESULT:      -6.8      8.307     10.293
REMARK  Name = NuBBE_1129
REMARK  6 active torsions:
REMARK  status: ('A' for Active; 'I' for Inactive)
REMARK    1  A    between atoms: C_1  and  S_2
REMARK    2  A    between atoms: S_2  and  C_3
REMARK    3  A    between atoms: N_16  and  C_17
REMARK    4  A    between atoms: C_17  and  C_18
REMARK    5  A    between atoms: C_18  and  C_19
REMARK    6  A    between atoms: N_25  and  C_26
REMARK                            x       y       z     vdW  Elec       q    Type
REMARK                         _______ _______ _______ _____ _____    ______ ____
ROOT
ATOM      1  C   LIG A   1     -10.929   6.772 130.045  0.00  0.00    +0.009 A 
ATOM      2  C   LIG A   1     -11.438   5.483 129.929  0.00  0.00    +0.016 A 
ATOM      3  C   LIG A   1     -10.805   4.437 130.589  0.00  0.00    +0.020 A 
ATOM      4  C   LIG A   1      -9.762   6.989 130.794  0.00  0.00    +0.039 A 
ATOM      5  C   LIG A   1      -9.064   5.931 131.423  0.00  0.00    +0.051 A 
ATOM      6  C   LIG A   1      -9.647   4.658 131.367  0.00  0.00    +0.065 A 
ATOM      7  S   LIG A   1      -9.096   3.244 132.301  0.00  0.00    +0.089 S 
ATOM      8  C   LIG A   1      -7.676   3.924 133.133  0.00  0.00    +0.065 A 
ATOM      9  C   LIG A   1      -7.014   3.041 134.016  0.00  0.00    +0.019 A 
ATOM     10  C   LIG A   1      -6.013   3.486 134.875  0.00  0.00    +0.001 A 
ATOM     11  C   LIG A   1      -5.705   4.833 134.897  0.00  0.00    +0.002 A 
ATOM     12  C   LIG A   1      -6.378   5.699 134.042  0.00  0.00    +0.024 A 
ATOM     13  C   LIG A   1      -7.290   5.267 133.054  0.00  0.00    +0.050 A 
ATOM     14  N   LIG A   1      -7.834   6.189 132.127  0.00  0.00    -0.298 N 
ATOM     15  O   LIG A   1      -8.583   2.244 131.303  0.00  0.00    -0.247 OA
ENDROOT
BRANCH   1  17
ATOM     16  C   LIG A   1     -10.732   8.370 127.824  0.00  0.00    +0.090 C 
ATOM     17  S   LIG A   1     -11.779   8.144 129.287  0.00  0.00    -0.129 S 
ENDBRANCH   1  17
BRANCH  14  18
ATOM     18  C   LIG A   1      -6.840   6.897 131.195  0.00  0.00    +0.112 C 
BRANCH  18  19
ATOM     19  C   LIG A   1      -5.683   6.051 130.621  0.00  0.00    +0.038 C 
BRANCH  19  20
ATOM     20  C   LIG A   1      -4.365   6.763 130.223  0.00  0.00    +0.058 C 
ATOM     21  C   LIG A   1      -3.681   7.458 131.412  0.00  0.00    +0.019 C 
ATOM     22  C   LIG A   1      -3.080   6.472 132.418  0.00  0.00    +0.003 C 
ATOM     23  C   LIG A   1      -2.232   5.394 131.748  0.00  0.00    +0.015 C 
ATOM     24  C   LIG A   1      -2.934   4.775 130.540  0.00  0.00    +0.084 C 
ATOM     25  N   LIG A   1      -3.448   5.772 129.587  0.00  0.00    -0.302 NA
ATOM     26  C   LIG A   1      -2.349   6.419 128.866  0.00  0.00    +0.105 C 
ENDBRANCH  19  20
ENDBRANCH  18  19
ENDBRANCH  14  18
TORSDOF 4
ENDMDL
MODEL 5
REMARK VINA RESULT:      -6.7      2.723      5.994
REMARK  Name = NuBBE_1129
REMARK  6 active torsions:
REMARK  status: ('A' for Active; 'I' for Inactive)
REMARK    1  A    between atoms: C_1  and  S_2
REMARK    2  A    between atoms: S_2  and  C_3
REMARK    3  A    between atoms: N_16  and  C_17
REMARK    4  A    between atoms: C_17  and  C_18
REMARK    5  A    between atoms: C_18  and  C_19
REMARK    6  A    between atoms: N_25  and  C_26
REMARK                            x       y       z     vdW  Elec       q    Type
REMARK                         _______ _______ _______ _____ _____    ______ ____
ROOT
ATOM      1  C   LIG A   1      -7.890   2.673 128.106  0.00  0.00    +0.009 A 
ATOM      2  C   LIG A   1      -7.807   3.466 126.967  0.00  0.00    +0.016 A 
ATOM      3  C   LIG A   1      -7.919   2.876 125.714  0.00  0.00    +0.020 A 
ATOM      4  C   LIG A   1      -8.044   1.285 127.971  0.00  0.00    +0.039 A 
ATOM      5  C   LIG A   1      -8.098   0.653 126.707  0.00  0.00    +0.051 A 
ATOM      6  C   LIG A   1      -8.105   1.482 125.577  0.00  0.00    +0.065 A 
ATOM      7  S   LIG A   1      -8.433   0.934 123.913  0.00  0.00    +0.089 S 
ATOM      8  C   LIG A   1      -8.621  -0.818 124.169  0.00  0.00    +0.065 A 
ATOM      9  C   LIG A   1      -8.942  -1.565 123.012  0.00  0.00    +0.019 A 
ATOM     10  C   LIG A   1      -9.306  -2.906 123.090  0.00  0.00    +0.001 A 
ATOM     11  C   LIG A   1      -9.409  -3.497 124.336  0.00  0.00    +0.002 A 
ATOM     12  C   LIG A   1      -9.114  -2.748 125.470  0.00  0.00    +0.024 A 
ATOM     13  C   LIG A   1      -8.598  -1.434 125.425  0.00  0.00    +0.050 A 
ATOM     14  N   LIG A   1      -8.191  -0.781 126.614  0.00  0.00    -0.298 N 
ATOM     15  O   LIG A   1      -7.160   1.131 123.138  0.00  0.00    -0.247 OA
ENDROOT
BRANCH   1  17
ATOM     16  C   LIG A   1      -8.863   4.887 129.402  0.00  0.00    +0.090 C 
ATOM     17  S   LIG A   1      -7.845   3.421 129.724  0.00  0.00    -0.129 S 
ENDBRANCH   1  17
BRANCH  14  18
ATOM     18  C   LIG A   1      -7.039  -1.430 127.397  0.00  0.00    +0.112 C 
BRANCH  18  19
ATOM     19  C   LIG A   1      -7.417  -2.348 128.579  0.00  0.00    +0.038 C 
BRANCH  19  20
ATOM     20  C   LIG A   1      -6.754  -2.099 129.957  0.00  0.00    +0.058 C 
ATOM     21  C   LIG A   1      -6.842  -3.320 130.889  0.00  0.00    +0.019 C 
ATOM     22  C   LIG A   1      -5.948  -4.480 130.443  0.00  0.00    +0.003 C 
ATOM     23  C   LIG A   1      -4.523  -4.035 130.124  0.00  0.00    +0.015 C 
ATOM     24  C   LIG A   1      -4.492  -2.788 129.242  0.00  0.00    +0.084 C 
ATOM     25  N   LIG A   1      -5.334  -1.691 129.749  0.00  0.00    -0.302 NA
ATOM     26  C   LIG A   1      -4.746  -1.096 130.952  0.00  0.00    +0.105 C 
ENDBRANCH  19  20
ENDBRANCH  18  19
ENDBRANCH  14  18
TORSDOF 4
ENDMDL
MODEL 6
REMARK VINA RESULT:      -6.6      3.199      7.045
REMARK  Name = NuBBE_1129
REMARK  6 active torsions:
REMARK  status: ('A' for Active; 'I' for Inactive)
REMARK    1  A    between atoms: C_1  and  S_2
REMARK    2  A    between atoms: S_2  and  C_3
REMARK    3  A    between atoms: N_16  and  C_17
REMARK    4  A    between atoms: C_17  and  C_18
REMARK    5  A    between atoms: C_18  and  C_19
REMARK    6  A    between atoms: N_25  and  C_26
REMARK                            x       y       z     vdW  Elec       q    Type
REMARK                         _______ _______ _______ _____ _____    ______ ____
ROOT
ATOM      1  C   LIG A   1      -8.918   1.475 123.294  0.00  0.00    +0.009 A 
ATOM      2  C   LIG A   1      -8.627   2.670 122.646  0.00  0.00    +0.016 A 
ATOM      3  C   LIG A   1      -7.677   3.528 123.188  0.00  0.00    +0.020 A 
ATOM      4  C   LIG A   1      -8.279   1.174 124.506  0.00  0.00    +0.039 A 
ATOM      5  C   LIG A   1      -7.356   2.059 125.112  0.00  0.00    +0.051 A 
ATOM      6  C   LIG A   1      -7.011   3.212 124.393  0.00  0.00    +0.065 A 
ATOM      7  S   LIG A   1      -5.687   4.323 124.826  0.00  0.00    +0.089 S 
ATOM      8  C   LIG A   1      -5.114   3.587 126.342  0.00  0.00    +0.065 A 
ATOM      9  C   LIG A   1      -4.003   4.226 126.940  0.00  0.00    +0.019 A 
ATOM     10  C   LIG A   1      -3.329   3.656 128.017  0.00  0.00    +0.001 A 
ATOM     11  C   LIG A   1      -3.727   2.412 128.468  0.00  0.00    +0.002 A 
ATOM     12  C   LIG A   1      -4.806   1.780 127.859  0.00  0.00    +0.024 A 
ATOM     13  C   LIG A   1      -5.607   2.388 126.867  0.00  0.00    +0.050 A 
ATOM     14  N   LIG A   1      -6.773   1.740 126.389  0.00  0.00    -0.298 N 
ATOM     15  O   LIG A   1      -6.328   5.634 125.188  0.00  0.00    -0.247 OA
ENDROOT
BRANCH   1  17
ATOM     16  C   LIG A   1      -9.159  -1.226 122.879  0.00  0.00    +0.090 C 
ATOM     17  S   LIG A   1     -10.061   0.316 122.567  0.00  0.00    -0.129 S 
ENDBRANCH   1  17
BRANCH  14  18
ATOM     18  C   LIG A   1      -7.883   1.472 127.416  0.00  0.00    +0.112 C 
BRANCH  18  19
ATOM     19  C   LIG A   1      -7.950   0.057 128.031  0.00  0.00    +0.038 C 
BRANCH  19  20
ATOM     20  C   LIG A   1      -7.015  -1.044 127.470  0.00  0.00    +0.058 C 
ATOM     21  C   LIG A   1      -6.709  -2.146 128.499  0.00  0.00    +0.019 C 
ATOM     22  C   LIG A   1      -7.916  -3.040 128.796  0.00  0.00    +0.003 C 
ATOM     23  C   LIG A   1      -8.604  -3.538 127.527  0.00  0.00    +0.015 C 
ATOM     24  C   LIG A   1      -8.834  -2.416 126.517  0.00  0.00    +0.084 C 
ATOM     25  N   LIG A   1      -7.626  -1.622 126.238  0.00  0.00    -0.302 NA
ATOM     26  C   LIG A   1      -6.661  -2.399 125.454  0.00  0.00    +0.105 C 
ENDBRANCH  19  20
ENDBRANCH  18  19
ENDBRANCH  14  18
TORSDOF 4
ENDMDL
MODEL 7
REMARK VINA RESULT:      -6.5      2.728      6.492
REMARK  Name = NuBBE_1129
REMARK  6 active torsions:
REMARK  status: ('A' for Active; 'I' for Inactive)
REMARK    1  A    between atoms: C_1  and  S_2
REMARK    2  A    between atoms: S_2  and  C_3
REMARK    3  A    between atoms: N_16  and  C_17
REMARK    4  A    between atoms: C_17  and  C_18
REMARK    5  A    between atoms: C_18  and  C_19
REMARK    6  A    between atoms: N_25  and  C_26
REMARK                            x       y       z     vdW  Elec       q    Type
REMARK                         _______ _______ _______ _____ _____    ______ ____
ROOT
ATOM      1  C   LIG A   1      -8.807  -1.416 123.746  0.00  0.00    +0.009 A 
ATOM      2  C   LIG A   1      -9.435  -0.395 123.040  0.00  0.00    +0.016 A 
ATOM      3  C   LIG A   1      -8.995   0.914 123.195  0.00  0.00    +0.020 A 
ATOM      4  C   LIG A   1      -7.767  -1.102 124.635  0.00  0.00    +0.039 A 
ATOM      5  C   LIG A   1      -7.344   0.230 124.858  0.00  0.00    +0.051 A 
ATOM      6  C   LIG A   1      -7.929   1.228 124.067  0.00  0.00    +0.065 A 
ATOM      7  S   LIG A   1      -7.371   2.918 123.982  0.00  0.00    +0.089 S 
ATOM      8  C   LIG A   1      -6.051   2.895 125.176  0.00  0.00    +0.065 A 
ATOM      9  C   LIG A   1      -5.348   4.114 125.323  0.00  0.00    +0.019 A 
ATOM     10  C   LIG A   1      -4.178   4.193 126.072  0.00  0.00    +0.001 A 
ATOM     11  C   LIG A   1      -3.667   3.038 126.634  0.00  0.00    +0.002 A 
ATOM     12  C   LIG A   1      -4.352   1.839 126.465  0.00  0.00    +0.024 A 
ATOM     13  C   LIG A   1      -5.616   1.744 125.842  0.00  0.00    +0.050 A 
ATOM     14  N   LIG A   1      -6.318   0.514 125.827  0.00  0.00    -0.298 N 
ATOM     15  O   LIG A   1      -8.472   3.763 124.561  0.00  0.00    -0.247 OA
ENDROOT
BRANCH   1  17
ATOM     16  C   LIG A   1      -8.193  -3.918 124.689  0.00  0.00    +0.090 C 
ATOM     17  S   LIG A   1      -9.290  -3.113 123.489  0.00  0.00    -0.129 S 
ENDBRANCH   1  17
BRANCH  14  18
ATOM     18  C   LIG A   1      -6.714  -0.071 127.191  0.00  0.00    +0.112 C 
BRANCH  18  19
ATOM     19  C   LIG A   1      -5.825  -1.195 127.764  0.00  0.00    +0.038 C 
BRANCH  19  20
ATOM     20  C   LIG A   1      -5.495  -1.187 129.278  0.00  0.00    +0.058 C 
ATOM     21  C   LIG A   1      -6.629  -1.772 130.137  0.00  0.00    +0.019 C 
ATOM     22  C   LIG A   1      -6.784  -3.286 129.974  0.00  0.00    +0.003 C 
ATOM     23  C   LIG A   1      -5.456  -4.030 130.096  0.00  0.00    +0.015 C 
ATOM     24  C   LIG A   1      -4.351  -3.376 129.268  0.00  0.00    +0.084 C 
ATOM     25  N   LIG A   1      -4.220  -1.929 129.504  0.00  0.00    -0.302 NA
ATOM     26  C   LIG A   1      -3.655  -1.666 130.830  0.00  0.00    +0.105 C 
ENDBRANCH  19  20
ENDBRANCH  18  19
ENDBRANCH  14  18
TORSDOF 4
ENDMDL
MODEL 8
REMARK VINA RESULT:      -6.5      1.796      2.220
REMARK  Name = NuBBE_1129
REMARK  6 active torsions:
REMARK  status: ('A' for Active; 'I' for Inactive)
REMARK    1  A    between atoms: C_1  and  S_2
REMARK    2  A    between atoms: S_2  and  C_3
REMARK    3  A    between atoms: N_16  and  C_17
REMARK    4  A    between atoms: C_17  and  C_18
REMARK    5  A    between atoms: C_18  and  C_19
REMARK    6  A    between atoms: N_25  and  C_26
REMARK                            x       y       z     vdW  Elec       q    Type
REMARK                         _______ _______ _______ _____ _____    ______ ____
ROOT
ATOM      1  C   LIG A   1      -6.805  -2.339 129.992  0.00  0.00    +0.009 A 
ATOM      2  C   LIG A   1      -7.908  -3.184 129.932  0.00  0.00    +0.016 A 
ATOM      3  C   LIG A   1      -8.516  -3.428 128.706  0.00  0.00    +0.020 A 
ATOM      4  C   LIG A   1      -6.349  -1.715 128.821  0.00  0.00    +0.039 A 
ATOM      5  C   LIG A   1      -6.990  -1.897 127.572  0.00  0.00    +0.051 A 
ATOM      6  C   LIG A   1      -8.041  -2.823 127.521  0.00  0.00    +0.065 A 
ATOM      7  S   LIG A   1      -8.810  -3.409 126.025  0.00  0.00    +0.089 S 
ATOM      8  C   LIG A   1      -7.943  -2.447 124.803  0.00  0.00    +0.065 A 
ATOM      9  C   LIG A   1      -8.299  -2.714 123.461  0.00  0.00    +0.019 A 
ATOM     10  C   LIG A   1      -7.576  -2.182 122.397  0.00  0.00    +0.001 A 
ATOM     11  C   LIG A   1      -6.452  -1.425 122.668  0.00  0.00    +0.002 A 
ATOM     12  C   LIG A   1      -6.095  -1.187 123.991  0.00  0.00    +0.024 A 
ATOM     13  C   LIG A   1      -6.884  -1.581 125.095  0.00  0.00    +0.050 A 
ATOM     14  N   LIG A   1      -6.529  -1.185 126.408  0.00  0.00    -0.298 N 
ATOM     15  O   LIG A   1     -10.228  -2.913 126.050  0.00  0.00    -0.247 OA
ENDROOT
BRANCH   1  17
ATOM     16  C   LIG A   1      -4.289  -1.734 130.902  0.00  0.00    +0.090 C 
ATOM     17  S   LIG A   1      -5.950  -2.088 131.537  0.00  0.00    -0.129 S 
ENDBRANCH   1  17
BRANCH  14  18
ATOM     18  C   LIG A   1      -6.512   0.324 126.693  0.00  0.00    +0.112 C 
BRANCH  18  19
ATOM     19  C   LIG A   1      -5.187   0.932 127.202  0.00  0.00    +0.038 C 
BRANCH  19  20
ATOM     20  C   LIG A   1      -4.508   2.045 126.365  0.00  0.00    +0.058 C 
ATOM     21  C   LIG A   1      -5.513   3.067 125.807  0.00  0.00    +0.019 C 
ATOM     22  C   LIG A   1      -6.115   3.968 126.888  0.00  0.00    +0.003 C 
ATOM     23  C   LIG A   1      -5.056   4.568 127.809  0.00  0.00    +0.015 C 
ATOM     24  C   LIG A   1      -4.052   3.523 128.291  0.00  0.00    +0.084 C 
ATOM     25  N   LIG A   1      -3.473   2.721 127.201  0.00  0.00    -0.302 NA
ATOM     26  C   LIG A   1      -2.549   3.525 126.395  0.00  0.00    +0.105 C 
ENDBRANCH  19  20
ENDBRANCH  18  19
ENDBRANCH  14  18
TORSDOF 4
ENDMDL
MODEL 9
REMARK VINA RESULT:      -6.4      3.471      4.460
REMARK  Name = NuBBE_1129
REMARK  6 active torsions:
REMARK  status: ('A' for Active; 'I' for Inactive)
REMARK    1  A    between atoms: C_1  and  S_2
REMARK    2  A    between atoms: S_2  and  C_3
REMARK    3  A    between atoms: N_16  and  C_17
REMARK    4  A    between atoms: C_17  and  C_18
REMARK    5  A    between atoms: C_18  and  C_19
REMARK    6  A    between atoms: N_25  and  C_26
REMARK                            x       y       z     vdW  Elec       q    Type
REMARK                         _______ _______ _______ _____ _____    ______ ____
ROOT
ATOM      1  C   LIG A   1      -7.712  -2.332 130.021  0.00  0.00    +0.009 A 
ATOM      2  C   LIG A   1      -8.112  -3.373 129.190  0.00  0.00    +0.016 A 
ATOM      3  C   LIG A   1      -8.256  -3.143 127.828  0.00  0.00    +0.020 A 
ATOM      4  C   LIG A   1      -7.501  -1.056 129.475  0.00  0.00    +0.039 A 
ATOM      5  C   LIG A   1      -7.702  -0.782 128.102  0.00  0.00    +0.051 A 
ATOM      6  C   LIG A   1      -8.015  -1.867 127.272  0.00  0.00    +0.065 A 
ATOM      7  S   LIG A   1      -8.049  -1.811 125.491  0.00  0.00    +0.089 S 
ATOM      8  C   LIG A   1      -7.689  -0.091 125.203  0.00  0.00    +0.065 A 
ATOM      9  C   LIG A   1      -7.598   0.287 123.844  0.00  0.00    +0.019 A 
ATOM     10  C   LIG A   1      -7.137   1.545 123.468  0.00  0.00    +0.001 A 
ATOM     11  C   LIG A   1      -6.706   2.417 124.450  0.00  0.00    +0.002 A 
ATOM     12  C   LIG A   1      -6.777   2.029 125.784  0.00  0.00    +0.024 A 
ATOM     13  C   LIG A   1      -7.377   0.824 126.215  0.00  0.00    +0.050 A 
ATOM     14  N   LIG A   1      -7.537   0.556 127.596  0.00  0.00    -0.298 N 
ATOM     15  O   LIG A   1      -9.478  -2.035 125.083  0.00  0.00    -0.247 OA
ENDROOT
BRANCH   1  17
ATOM     16  C   LIG A   1      -5.964  -3.691 131.639  0.00  0.00    +0.090 C 
ATOM     17  S   LIG A   1      -7.428  -2.627 131.756  0.00  0.00    -0.129 S 
ENDBRANCH   1  17
BRANCH  14  18
ATOM     18  C   LIG A   1      -8.428   1.526 128.387  0.00  0.00    +0.112 C 
BRANCH  18  19
ATOM     19  C   LIG A   1      -7.736   2.430 129.430  0.00  0.00    +0.038 C 
BRANCH  19  20
ATOM     20  C   LIG A   1      -8.580   3.505 130.161  0.00  0.00    +0.058 C 
ATOM     21  C   LIG A   1      -9.941   2.970 130.638  0.00  0.00    +0.019 C 
ATOM     22  C   LIG A   1      -9.823   1.983 131.801  0.00  0.00    +0.003 C 
ATOM     23  C   LIG A   1      -8.924   2.500 132.922  0.00  0.00    +0.015 C 
ATOM     24  C   LIG A   1      -7.610   3.069 132.391  0.00  0.00    +0.084 C 
ATOM     25  N   LIG A   1      -7.792   4.048 131.306  0.00  0.00    -0.302 NA
ATOM     26  C   LIG A   1      -8.355   5.299 131.821  0.00  0.00    +0.105 C 
ENDBRANCH  19  20
ENDBRANCH  18  19
ENDBRANCH  14  18
TORSDOF 4
ENDMDL
