MODEL 1
REMARK VINA RESULT:      -8.8      0.000      0.000
REMARK  Name = NuBBE_2252
REMARK  14 active torsions:
REMARK  status: ('A' for Active; 'I' for Inactive)
REMARK    1  A    between atoms: C_1  and  C_2
REMARK    2  A    between atoms: C_5  and  C_6
REMARK    3  A    between atoms: C_11  and  C_12
REMARK    4  A    between atoms: C_11  and  C_13
REMARK    5  A    between atoms: C_22  and  C_23
REMARK    6  A    between atoms: C_26  and  C_28
REMARK    7  A    between atoms: C_28  and  C_29
REMARK    8  A    between atoms: C_28  and  C_36
REMARK    9  A    between atoms: C_28  and  O_37
REMARK   10  A    between atoms: C_29  and  C_30
REMARK   11  A    between atoms: C_30  and  C_31
REMARK   12  A    between atoms: C_31  and  C_33
REMARK   13  A    between atoms: C_33  and  C_34
REMARK   14  A    between atoms: C_33  and  C_35
REMARK                            x       y       z     vdW  Elec       q    Type
REMARK                         _______ _______ _______ _____ _____    ______ ____
ROOT
ATOM      1  C   LIG A   1      -5.914   1.065 130.295  0.00  0.00    +0.012 C 
ATOM      2  C   LIG A   1      -7.456   0.846 130.414  0.00  0.00    -0.023 C 
ATOM      3  C   LIG A   1      -8.190   1.232 129.082  0.00  0.00    +0.002 C 
ATOM      4  C   LIG A   1      -7.856   0.343 127.811  0.00  0.00    -0.025 C 
ATOM      5  C   LIG A   1      -6.412   0.574 127.302  0.00  0.00    +0.012 C 
ATOM      6  C   LIG A   1      -8.161  -1.146 128.212  0.00  0.00    +0.008 C 
ATOM      7  C   LIG A   1      -7.368  -1.572 129.466  0.00  0.00    +0.005 C 
ATOM      8  C   LIG A   1      -7.675  -0.674 130.672  0.00  0.00    +0.008 C 
ATOM      9  C   LIG A   1      -8.133  -2.191 127.051  0.00  0.00    +0.027 C 
ATOM     10  C   LIG A   1      -6.735  -2.551 126.530  0.00  0.00    +0.019 C 
ATOM     11  C   LIG A   1      -8.797  -3.505 127.535  0.00  0.00    +0.019 C 
ATOM     12  C   LIG A   1      -8.972  -1.658 125.872  0.00  0.00    +0.139 C 
ATOM     13  O   LIG A   1      -9.673  -2.388 125.190  0.00  0.00    -0.297 OA
ATOM     14  C   LIG A   1      -8.794  -0.209 125.469  0.00  0.00    +0.075 C 
ATOM     15  C   LIG A   1      -8.837   0.726 126.665  0.00  0.00    +0.015 C 
ATOM     16  C   LIG A   1      -8.200   2.750 128.812  0.00  0.00    +0.005 C 
ATOM     17  C   LIG A   1      -7.608   3.627 129.904  0.00  0.00    +0.005 C 
ATOM     18  C   LIG A   1      -7.978   3.272 131.343  0.00  0.00    +0.001 C 
ATOM     19  C   LIG A   1      -8.088   1.726 131.602  0.00  0.00    -0.023 C 
ATOM     20  C   LIG A   1      -9.604   1.450 131.840  0.00  0.00    +0.012 C 
ATOM     21  C   LIG A   1      -7.384   1.479 132.960  0.00  0.00    +0.008 C 
ATOM     22  C   LIG A   1      -7.132   2.848 133.566  0.00  0.00    +0.007 C 
ATOM     23  C   LIG A   1      -6.958   3.819 132.382  0.00  0.00    +0.024 C 
ENDROOT
BRANCH  23  24
ATOM     24  C   LIG A   1      -7.123   5.312 132.823  0.00  0.00    +0.067 C 
ATOM     25  C   LIG A   1      -5.983   6.165 132.236  0.00  0.00    +0.041 C 
BRANCH  24  26
ATOM     26  O   LIG A   1      -6.986   5.356 134.256  0.00  0.00    -0.389 OA
ATOM     27  H   LIG A   1      -7.797   5.740 134.631  0.00  0.00    +0.210 HD
ENDBRANCH  24  26
BRANCH  24  28
ATOM     28  C   LIG A   1      -8.489   5.976 132.502  0.00  0.00    +0.039 C 
BRANCH  28  29
ATOM     29  C   LIG A   1      -8.544   6.850 131.230  0.00  0.00    +0.033 C 
BRANCH  29  30
ATOM     30  C   LIG A   1      -9.889   6.917 130.513  0.00  0.00    -0.074 C 
ATOM     31  C   LIG A   1     -10.066   7.643 129.393  0.00  0.00    +0.008 C 
BRANCH  30  32
ATOM     32  C   LIG A   1     -11.058   6.116 131.101  0.00  0.00    +0.008 C 
ATOM     33  C   LIG A   1     -12.371   6.906 131.176  0.00  0.00    +0.012 C 
ATOM     34  C   LIG A   1     -11.283   4.809 130.337  0.00  0.00    +0.012 C 
ENDBRANCH  30  32
ENDBRANCH  29  30
ENDBRANCH  28  29
ENDBRANCH  24  28
ENDBRANCH  23  24
TORSDOF 6
ENDMDL
MODEL 2
REMARK VINA RESULT:      -8.8      1.370      1.970
REMARK  Name = NuBBE_2252
REMARK  14 active torsions:
REMARK  status: ('A' for Active; 'I' for Inactive)
REMARK    1  A    between atoms: C_1  and  C_2
REMARK    2  A    between atoms: C_5  and  C_6
REMARK    3  A    between atoms: C_11  and  C_12
REMARK    4  A    between atoms: C_11  and  C_13
REMARK    5  A    between atoms: C_22  and  C_23
REMARK    6  A    between atoms: C_26  and  C_28
REMARK    7  A    between atoms: C_28  and  C_29
REMARK    8  A    between atoms: C_28  and  C_36
REMARK    9  A    between atoms: C_28  and  O_37
REMARK   10  A    between atoms: C_29  and  C_30
REMARK   11  A    between atoms: C_30  and  C_31
REMARK   12  A    between atoms: C_31  and  C_33
REMARK   13  A    between atoms: C_33  and  C_34
REMARK   14  A    between atoms: C_33  and  C_35
REMARK                            x       y       z     vdW  Elec       q    Type
REMARK                         _______ _______ _______ _____ _____    ______ ____
ROOT
ATOM      1  C   LIG A   1      -6.366   1.863 130.924  0.00  0.00    +0.012 C 
ATOM      2  C   LIG A   1      -7.797   1.237 130.872  0.00  0.00    -0.023 C 
ATOM      3  C   LIG A   1      -8.329   1.154 129.398  0.00  0.00    +0.002 C 
ATOM      4  C   LIG A   1      -7.540   0.185 128.419  0.00  0.00    -0.025 C 
ATOM      5  C   LIG A   1      -6.130   0.725 128.078  0.00  0.00    +0.012 C 
ATOM      6  C   LIG A   1      -7.535  -1.232 129.098  0.00  0.00    +0.008 C 
ATOM      7  C   LIG A   1      -6.921  -1.184 130.514  0.00  0.00    +0.005 C 
ATOM      8  C   LIG A   1      -7.674  -0.211 131.432  0.00  0.00    +0.008 C 
ATOM      9  C   LIG A   1      -7.019  -2.415 128.217  0.00  0.00    +0.027 C 
ATOM     10  C   LIG A   1      -5.502  -2.447 127.991  0.00  0.00    +0.019 C 
ATOM     11  C   LIG A   1      -7.414  -3.755 128.887  0.00  0.00    +0.019 C 
ATOM     12  C   LIG A   1      -7.718  -2.363 126.844  0.00  0.00    +0.139 C 
ATOM     13  O   LIG A   1      -8.066  -3.373 126.252  0.00  0.00    -0.297 OA
ATOM     14  C   LIG A   1      -7.833  -1.020 126.154  0.00  0.00    +0.075 C 
ATOM     15  C   LIG A   1      -8.343   0.062 127.091  0.00  0.00    +0.015 C 
ATOM     16  C   LIG A   1      -8.666   2.532 128.794  0.00  0.00    +0.005 C 
ATOM     17  C   LIG A   1      -8.537   3.722 129.734  0.00  0.00    +0.005 C 
ATOM     18  C   LIG A   1      -9.081   3.538 131.149  0.00  0.00    +0.001 C 
ATOM     19  C   LIG A   1      -8.849   2.097 131.732  0.00  0.00    -0.023 C 
ATOM     20  C   LIG A   1     -10.264   1.446 131.811  0.00  0.00    +0.012 C 
ATOM     21  C   LIG A   1      -8.385   2.307 133.195  0.00  0.00    +0.008 C 
ATOM     22  C   LIG A   1      -8.608   3.776 133.507  0.00  0.00    +0.007 C 
ATOM     23  C   LIG A   1      -8.455   4.529 132.171  0.00  0.00    +0.024 C 
ENDROOT
BRANCH  23  24
ATOM     24  C   LIG A   1      -9.071   5.967 132.238  0.00  0.00    +0.067 C 
ATOM     25  C   LIG A   1      -8.237   6.940 131.384  0.00  0.00    +0.041 C 
BRANCH  24  26
ATOM     26  O   LIG A   1      -8.974   6.416 133.603  0.00  0.00    -0.389 OA
ATOM     27  H   LIG A   1      -9.853   6.347 134.012  0.00  0.00    +0.210 HD
ENDBRANCH  24  26
BRANCH  24  28
ATOM     28  C   LIG A   1     -10.570   6.090 131.851  0.00  0.00    +0.039 C 
BRANCH  28  29
ATOM     29  C   LIG A   1     -10.871   6.645 130.442  0.00  0.00    +0.033 C 
BRANCH  29  30
ATOM     30  C   LIG A   1     -12.033   7.629 130.337  0.00  0.00    -0.074 C 
ATOM     31  C   LIG A   1     -12.992   7.703 131.279  0.00  0.00    +0.008 C 
BRANCH  30  32
ATOM     32  C   LIG A   1     -12.080   8.559 129.118  0.00  0.00    +0.008 C 
ATOM     33  C   LIG A   1     -10.814   8.505 128.252  0.00  0.00    +0.012 C 
ATOM     34  C   LIG A   1     -13.311   8.285 128.251  0.00  0.00    +0.012 C 
ENDBRANCH  30  32
ENDBRANCH  29  30
ENDBRANCH  28  29
ENDBRANCH  24  28
ENDBRANCH  23  24
TORSDOF 6
ENDMDL
MODEL 3
REMARK VINA RESULT:      -8.7      3.233      9.149
REMARK  Name = NuBBE_2252
REMARK  14 active torsions:
REMARK  status: ('A' for Active; 'I' for Inactive)
REMARK    1  A    between atoms: C_1  and  C_2
REMARK    2  A    between atoms: C_5  and  C_6
REMARK    3  A    between atoms: C_11  and  C_12
REMARK    4  A    between atoms: C_11  and  C_13
REMARK    5  A    between atoms: C_22  and  C_23
REMARK    6  A    between atoms: C_26  and  C_28
REMARK    7  A    between atoms: C_28  and  C_29
REMARK    8  A    between atoms: C_28  and  C_36
REMARK    9  A    between atoms: C_28  and  O_37
REMARK   10  A    between atoms: C_29  and  C_30
REMARK   11  A    between atoms: C_30  and  C_31
REMARK   12  A    between atoms: C_31  and  C_33
REMARK   13  A    between atoms: C_33  and  C_34
REMARK   14  A    between atoms: C_33  and  C_35
REMARK                            x       y       z     vdW  Elec       q    Type
REMARK                         _______ _______ _______ _____ _____    ______ ____
ROOT
ATOM      1  C   LIG A   1      -4.813   1.758 126.372  0.00  0.00    +0.012 C 
ATOM      2  C   LIG A   1      -5.838   2.937 126.338  0.00  0.00    -0.023 C 
ATOM      3  C   LIG A   1      -6.429   3.219 127.763  0.00  0.00    +0.002 C 
ATOM      4  C   LIG A   1      -5.406   3.740 128.859  0.00  0.00    -0.025 C 
ATOM      5  C   LIG A   1      -4.403   2.643 129.288  0.00  0.00    +0.012 C 
ATOM      6  C   LIG A   1      -4.730   5.028 128.264  0.00  0.00    +0.008 C 
ATOM      7  C   LIG A   1      -4.056   4.742 126.905  0.00  0.00    +0.005 C 
ATOM      8  C   LIG A   1      -5.055   4.200 125.873  0.00  0.00    +0.008 C 
ATOM      9  C   LIG A   1      -3.851   5.862 129.251  0.00  0.00    +0.027 C 
ATOM     10  C   LIG A   1      -2.496   5.237 129.606  0.00  0.00    +0.019 C 
ATOM     11  C   LIG A   1      -3.568   7.252 128.626  0.00  0.00    +0.019 C 
ATOM     12  C   LIG A   1      -4.640   6.095 130.554  0.00  0.00    +0.139 C 
ATOM     13  O   LIG A   1      -4.583   7.148 131.171  0.00  0.00    -0.297 OA
ATOM     14  C   LIG A   1      -5.385   4.921 131.155  0.00  0.00    +0.075 C 
ATOM     15  C   LIG A   1      -6.210   4.177 130.119  0.00  0.00    +0.015 C 
ATOM     16  C   LIG A   1      -7.380   2.110 128.258  0.00  0.00    +0.005 C 
ATOM     17  C   LIG A   1      -7.677   0.994 127.267  0.00  0.00    +0.005 C 
ATOM     18  C   LIG A   1      -7.945   1.414 125.823  0.00  0.00    +0.001 C 
ATOM     19  C   LIG A   1      -7.064   2.624 125.345  0.00  0.00    -0.023 C 
ATOM     20  C   LIG A   1      -8.051   3.820 125.183  0.00  0.00    +0.012 C 
ATOM     21  C   LIG A   1      -6.589   2.256 123.916  0.00  0.00    +0.008 C 
ATOM     22  C   LIG A   1      -7.383   1.030 123.505  0.00  0.00    +0.007 C 
ATOM     23  C   LIG A   1      -7.701   0.265 124.805  0.00  0.00    +0.024 C 
ENDROOT
BRANCH  23  24
ATOM     24  C   LIG A   1      -8.861  -0.768 124.605  0.00  0.00    +0.067 C 
ATOM     25  C   LIG A   1      -9.122  -0.984 123.102  0.00  0.00    +0.041 C 
BRANCH  24  26
ATOM     26  O   LIG A   1     -10.056  -0.187 125.160  0.00  0.00    -0.389 OA
ATOM     27  H   LIG A   1     -10.781  -0.309 124.523  0.00  0.00    +0.210 HD
ENDBRANCH  24  26
BRANCH  24  28
ATOM     28  C   LIG A   1      -8.685  -2.142 125.305  0.00  0.00    +0.039 C 
BRANCH  28  29
ATOM     29  C   LIG A   1      -7.601  -3.075 124.722  0.00  0.00    +0.033 C 
BRANCH  29  30
ATOM     30  C   LIG A   1      -6.152  -2.695 125.016  0.00  0.00    -0.074 C 
ATOM     31  C   LIG A   1      -5.744  -2.345 126.250  0.00  0.00    +0.008 C 
BRANCH  30  32
ATOM     32  C   LIG A   1      -5.150  -2.729 123.856  0.00  0.00    +0.008 C 
ATOM     33  C   LIG A   1      -4.480  -4.096 123.660  0.00  0.00    +0.012 C 
ATOM     34  C   LIG A   1      -5.794  -2.277 122.543  0.00  0.00    +0.012 C 
ENDBRANCH  30  32
ENDBRANCH  29  30
ENDBRANCH  28  29
ENDBRANCH  24  28
ENDBRANCH  23  24
TORSDOF 6
ENDMDL
MODEL 4
REMARK VINA RESULT:      -8.3      4.364      8.498
REMARK  Name = NuBBE_2252
REMARK  14 active torsions:
REMARK  status: ('A' for Active; 'I' for Inactive)
REMARK    1  A    between atoms: C_1  and  C_2
REMARK    2  A    between atoms: C_5  and  C_6
REMARK    3  A    between atoms: C_11  and  C_12
REMARK    4  A    between atoms: C_11  and  C_13
REMARK    5  A    between atoms: C_22  and  C_23
REMARK    6  A    between atoms: C_26  and  C_28
REMARK    7  A    between atoms: C_28  and  C_29
REMARK    8  A    between atoms: C_28  and  C_36
REMARK    9  A    between atoms: C_28  and  O_37
REMARK   10  A    between atoms: C_29  and  C_30
REMARK   11  A    between atoms: C_30  and  C_31
REMARK   12  A    between atoms: C_31  and  C_33
REMARK   13  A    between atoms: C_33  and  C_34
REMARK   14  A    between atoms: C_33  and  C_35
REMARK                            x       y       z     vdW  Elec       q    Type
REMARK                         _______ _______ _______ _____ _____    ______ ____
ROOT
ATOM      1  C   LIG A   1      -5.163  -2.714 128.286  0.00  0.00    +0.012 C 
ATOM      2  C   LIG A   1      -5.615  -1.575 129.256  0.00  0.00    -0.023 C 
ATOM      3  C   LIG A   1      -6.587  -2.120 130.360  0.00  0.00    +0.002 C 
ATOM      4  C   LIG A   1      -5.973  -3.164 131.385  0.00  0.00    -0.025 C 
ATOM      5  C   LIG A   1      -5.668  -4.526 130.717  0.00  0.00    +0.012 C 
ATOM      6  C   LIG A   1      -4.718  -2.474 132.030  0.00  0.00    +0.008 C 
ATOM      7  C   LIG A   1      -3.703  -2.020 130.959  0.00  0.00    +0.005 C 
ATOM      8  C   LIG A   1      -4.329  -1.043 129.954  0.00  0.00    +0.008 C 
ATOM      9  C   LIG A   1      -4.075  -3.212 133.248  0.00  0.00    +0.027 C 
ATOM     10  C   LIG A   1      -3.279  -4.476 132.898  0.00  0.00    +0.019 C 
ATOM     11  C   LIG A   1      -3.107  -2.245 133.975  0.00  0.00    +0.019 C 
ATOM     12  C   LIG A   1      -5.183  -3.594 134.249  0.00  0.00    +0.139 C 
ATOM     13  O   LIG A   1      -5.017  -3.537 135.457  0.00  0.00    -0.297 OA
ATOM     14  C   LIG A   1      -6.460  -4.197 133.702  0.00  0.00    +0.075 C 
ATOM     15  C   LIG A   1      -7.006  -3.407 132.524  0.00  0.00    +0.015 C 
ATOM     16  C   LIG A   1      -7.975  -2.510 129.810  0.00  0.00    +0.005 C 
ATOM     17  C   LIG A   1      -8.218  -2.210 128.339  0.00  0.00    +0.005 C 
ATOM     18  C   LIG A   1      -7.727  -0.858 127.825  0.00  0.00    +0.001 C 
ATOM     19  C   LIG A   1      -6.371  -0.394 128.468  0.00  0.00    -0.023 C 
ATOM     20  C   LIG A   1      -6.734   0.822 129.374  0.00  0.00    +0.012 C 
ATOM     21  C   LIG A   1      -5.526   0.172 127.299  0.00  0.00    +0.008 C 
ATOM     22  C   LIG A   1      -6.460   0.274 126.107  0.00  0.00    +0.007 C 
ATOM     23  C   LIG A   1      -7.511  -0.840 126.285  0.00  0.00    +0.024 C 
ENDROOT
BRANCH  23  24
ATOM     24  C   LIG A   1      -8.774  -0.598 125.392  0.00  0.00    +0.067 C 
ATOM     25  C   LIG A   1      -9.527   0.657 125.871  0.00  0.00    +0.041 C 
BRANCH  24  26
ATOM     26  O   LIG A   1      -9.659  -1.718 125.583  0.00  0.00    -0.389 OA
ATOM     27  H   LIG A   1      -9.568  -2.314 124.819  0.00  0.00    +0.210 HD
ENDBRANCH  24  26
BRANCH  24  28
ATOM     28  C   LIG A   1      -8.525  -0.503 123.862  0.00  0.00    +0.039 C 
BRANCH  28  29
ATOM     29  C   LIG A   1      -8.223  -1.831 123.133  0.00  0.00    +0.033 C 
BRANCH  29  30
ATOM     30  C   LIG A   1      -6.769  -2.294 123.147  0.00  0.00    -0.074 C 
ATOM     31  C   LIG A   1      -5.878  -1.875 122.228  0.00  0.00    +0.008 C 
BRANCH  30  32
ATOM     32  C   LIG A   1      -6.332  -3.259 124.256  0.00  0.00    +0.008 C 
ATOM     33  C   LIG A   1      -7.429  -4.244 124.684  0.00  0.00    +0.012 C 
ATOM     34  C   LIG A   1      -5.070  -4.031 123.864  0.00  0.00    +0.012 C 
ENDBRANCH  30  32
ENDBRANCH  29  30
ENDBRANCH  28  29
ENDBRANCH  24  28
ENDBRANCH  23  24
TORSDOF 6
ENDMDL
MODEL 5
REMARK VINA RESULT:      -8.3      4.608      8.292
REMARK  Name = NuBBE_2252
REMARK  14 active torsions:
REMARK  status: ('A' for Active; 'I' for Inactive)
REMARK    1  A    between atoms: C_1  and  C_2
REMARK    2  A    between atoms: C_5  and  C_6
REMARK    3  A    between atoms: C_11  and  C_12
REMARK    4  A    between atoms: C_11  and  C_13
REMARK    5  A    between atoms: C_22  and  C_23
REMARK    6  A    between atoms: C_26  and  C_28
REMARK    7  A    between atoms: C_28  and  C_29
REMARK    8  A    between atoms: C_28  and  C_36
REMARK    9  A    between atoms: C_28  and  O_37
REMARK   10  A    between atoms: C_29  and  C_30
REMARK   11  A    between atoms: C_30  and  C_31
REMARK   12  A    between atoms: C_31  and  C_33
REMARK   13  A    between atoms: C_33  and  C_34
REMARK   14  A    between atoms: C_33  and  C_35
REMARK                            x       y       z     vdW  Elec       q    Type
REMARK                         _______ _______ _______ _____ _____    ______ ____
ROOT
ATOM      1  C   LIG A   1      -4.937  -3.016 128.893  0.00  0.00    +0.012 C 
ATOM      2  C   LIG A   1      -5.820  -1.777 129.250  0.00  0.00    -0.023 C 
ATOM      3  C   LIG A   1      -6.934  -2.153 130.290  0.00  0.00    +0.002 C 
ATOM      4  C   LIG A   1      -6.433  -2.593 131.730  0.00  0.00    -0.025 C 
ATOM      5  C   LIG A   1      -5.729  -3.971 131.705  0.00  0.00    +0.012 C 
ATOM      6  C   LIG A   1      -5.531  -1.424 132.268  0.00  0.00    +0.008 C 
ATOM      7  C   LIG A   1      -4.370  -1.109 131.301  0.00  0.00    +0.005 C 
ATOM      8  C   LIG A   1      -4.875  -0.726 129.903  0.00  0.00    +0.008 C 
ATOM      9  C   LIG A   1      -5.108  -1.516 133.768  0.00  0.00    +0.027 C 
ATOM     10  C   LIG A   1      -4.038  -2.570 134.081  0.00  0.00    +0.019 C 
ATOM     11  C   LIG A   1      -4.549  -0.144 134.223  0.00  0.00    +0.019 C 
ATOM     12  C   LIG A   1      -6.353  -1.814 134.627  0.00  0.00    +0.139 C 
ATOM     13  O   LIG A   1      -6.519  -1.313 135.728  0.00  0.00    -0.297 OA
ATOM     14  C   LIG A   1      -7.316  -2.876 134.140  0.00  0.00    +0.075 C 
ATOM     15  C   LIG A   1      -7.667  -2.700 132.673  0.00  0.00    +0.015 C 
ATOM     16  C   LIG A   1      -8.039  -3.052 129.698  0.00  0.00    +0.005 C 
ATOM     17  C   LIG A   1      -7.939  -3.339 128.208  0.00  0.00    +0.005 C 
ATOM     18  C   LIG A   1      -7.579  -2.160 127.306  0.00  0.00    +0.001 C 
ATOM     19  C   LIG A   1      -6.541  -1.170 127.947  0.00  0.00    -0.023 C 
ATOM     20  C   LIG A   1      -7.337   0.141 128.233  0.00  0.00    +0.012 C 
ATOM     21  C   LIG A   1      -5.535  -0.830 126.819  0.00  0.00    +0.008 C 
ATOM     22  C   LIG A   1      -6.130  -1.382 125.536  0.00  0.00    +0.007 C 
ATOM     23  C   LIG A   1      -6.976  -2.604 125.943  0.00  0.00    +0.024 C 
ENDROOT
BRANCH  23  24
ATOM     24  C   LIG A   1      -7.985  -3.015 124.818  0.00  0.00    +0.067 C 
ATOM     25  C   LIG A   1      -9.430  -2.915 125.343  0.00  0.00    +0.041 C 
BRANCH  24  26
ATOM     26  O   LIG A   1      -7.745  -4.401 124.508  0.00  0.00    -0.389 OA
ATOM     27  H   LIG A   1      -6.988  -4.707 125.036  0.00  0.00    +0.210 HD
ENDBRANCH  24  26
BRANCH  24  28
ATOM     28  C   LIG A   1      -7.866  -2.247 123.475  0.00  0.00    +0.039 C 
BRANCH  28  29
ATOM     29  C   LIG A   1      -9.167  -1.625 122.922  0.00  0.00    +0.033 C 
BRANCH  29  30
ATOM     30  C   LIG A   1      -9.350  -0.127 123.149  0.00  0.00    -0.074 C 
ATOM     31  C   LIG A   1     -10.211   0.605 122.418  0.00  0.00    +0.008 C 
BRANCH  30  32
ATOM     32  C   LIG A   1      -8.523   0.539 124.256  0.00  0.00    +0.008 C 
ATOM     33  C   LIG A   1      -7.577   1.634 123.745  0.00  0.00    +0.012 C 
ATOM     34  C   LIG A   1      -9.417   1.102 125.363  0.00  0.00    +0.012 C 
ENDBRANCH  30  32
ENDBRANCH  29  30
ENDBRANCH  28  29
ENDBRANCH  24  28
ENDBRANCH  23  24
TORSDOF 6
ENDMDL
MODEL 6
REMARK VINA RESULT:      -8.1      2.743      7.632
REMARK  Name = NuBBE_2252
REMARK  14 active torsions:
REMARK  status: ('A' for Active; 'I' for Inactive)
REMARK    1  A    between atoms: C_1  and  C_2
REMARK    2  A    between atoms: C_5  and  C_6
REMARK    3  A    between atoms: C_11  and  C_12
REMARK    4  A    between atoms: C_11  and  C_13
REMARK    5  A    between atoms: C_22  and  C_23
REMARK    6  A    between atoms: C_26  and  C_28
REMARK    7  A    between atoms: C_28  and  C_29
REMARK    8  A    between atoms: C_28  and  C_36
REMARK    9  A    between atoms: C_28  and  O_37
REMARK   10  A    between atoms: C_29  and  C_30
REMARK   11  A    between atoms: C_30  and  C_31
REMARK   12  A    between atoms: C_31  and  C_33
REMARK   13  A    between atoms: C_33  and  C_34
REMARK   14  A    between atoms: C_33  and  C_35
REMARK                            x       y       z     vdW  Elec       q    Type
REMARK                         _______ _______ _______ _____ _____    ______ ____
ROOT
ATOM      1  C   LIG A   1      -6.653   1.584 133.691  0.00  0.00    +0.012 C 
ATOM      2  C   LIG A   1      -6.328   1.846 132.185  0.00  0.00    -0.023 C 
ATOM      3  C   LIG A   1      -7.631   1.833 131.311  0.00  0.00    +0.002 C 
ATOM      4  C   LIG A   1      -8.682   2.987 131.598  0.00  0.00    -0.025 C 
ATOM      5  C   LIG A   1      -9.377   2.814 132.970  0.00  0.00    +0.012 C 
ATOM      6  C   LIG A   1      -7.910   4.347 131.440  0.00  0.00    +0.008 C 
ATOM      7  C   LIG A   1      -6.679   4.414 132.369  0.00  0.00    +0.005 C 
ATOM      8  C   LIG A   1      -5.695   3.266 132.103  0.00  0.00    +0.008 C 
ATOM      9  C   LIG A   1      -8.786   5.640 131.443  0.00  0.00    +0.027 C 
ATOM     10  C   LIG A   1      -9.347   6.045 132.812  0.00  0.00    +0.019 C 
ATOM     11  C   LIG A   1      -7.938   6.828 130.923  0.00  0.00    +0.019 C 
ATOM     12  C   LIG A   1      -9.964   5.453 130.467  0.00  0.00    +0.139 C 
ATOM     13  O   LIG A   1     -10.378   6.363 129.765  0.00  0.00    -0.297 OA
ATOM     14  C   LIG A   1     -10.716   4.139 130.501  0.00  0.00    +0.075 C 
ATOM     15  C   LIG A   1      -9.779   2.944 130.494  0.00  0.00    +0.015 C 
ATOM     16  C   LIG A   1      -8.252   0.429 131.165  0.00  0.00    +0.005 C 
ATOM     17  C   LIG A   1      -7.465  -0.716 131.785  0.00  0.00    +0.005 C 
ATOM     18  C   LIG A   1      -5.953  -0.704 131.569  0.00  0.00    +0.001 C 
ATOM     19  C   LIG A   1      -5.324   0.735 131.597  0.00  0.00    -0.023 C 
ATOM     20  C   LIG A   1      -4.873   1.022 130.132  0.00  0.00    +0.012 C 
ATOM     21  C   LIG A   1      -4.026   0.609 132.434  0.00  0.00    +0.008 C 
ATOM     22  C   LIG A   1      -3.792  -0.877 132.636  0.00  0.00    +0.007 C 
ATOM     23  C   LIG A   1      -5.184  -1.538 132.633  0.00  0.00    +0.024 C 
ENDROOT
BRANCH  23  24
ATOM     24  C   LIG A   1      -5.096  -3.084 132.397  0.00  0.00    +0.067 C 
ATOM     25  C   LIG A   1      -6.412  -3.759 132.824  0.00  0.00    +0.041 C 
BRANCH  24  26
ATOM     26  O   LIG A   1      -4.062  -3.593 133.261  0.00  0.00    -0.389 OA
ATOM     27  H   LIG A   1      -4.259  -4.525 133.459  0.00  0.00    +0.210 HD
ENDBRANCH  24  26
BRANCH  24  28
ATOM     28  C   LIG A   1      -4.719  -3.539 130.962  0.00  0.00    +0.039 C 
BRANCH  28  29
ATOM     29  C   LIG A   1      -5.895  -3.878 130.019  0.00  0.00    +0.033 C 
BRANCH  29  30
ATOM     30  C   LIG A   1      -6.196  -2.861 128.922  0.00  0.00    -0.074 C 
ATOM     31  C   LIG A   1      -5.222  -2.312 128.171  0.00  0.00    +0.008 C 
BRANCH  30  32
ATOM     32  C   LIG A   1      -7.661  -2.476 128.680  0.00  0.00    +0.008 C 
ATOM     33  C   LIG A   1      -7.844  -1.377 127.625  0.00  0.00    +0.012 C 
ATOM     34  C   LIG A   1      -8.507  -3.696 128.307  0.00  0.00    +0.012 C 
ENDBRANCH  30  32
ENDBRANCH  29  30
ENDBRANCH  28  29
ENDBRANCH  24  28
ENDBRANCH  23  24
TORSDOF 6
ENDMDL
MODEL 7
REMARK VINA RESULT:      -7.8      1.816      3.346
REMARK  Name = NuBBE_2252
REMARK  14 active torsions:
REMARK  status: ('A' for Active; 'I' for Inactive)
REMARK    1  A    between atoms: C_1  and  C_2
REMARK    2  A    between atoms: C_5  and  C_6
REMARK    3  A    between atoms: C_11  and  C_12
REMARK    4  A    between atoms: C_11  and  C_13
REMARK    5  A    between atoms: C_22  and  C_23
REMARK    6  A    between atoms: C_26  and  C_28
REMARK    7  A    between atoms: C_28  and  C_29
REMARK    8  A    between atoms: C_28  and  C_36
REMARK    9  A    between atoms: C_28  and  O_37
REMARK   10  A    between atoms: C_29  and  C_30
REMARK   11  A    between atoms: C_30  and  C_31
REMARK   12  A    between atoms: C_31  and  C_33
REMARK   13  A    between atoms: C_33  and  C_34
REMARK   14  A    between atoms: C_33  and  C_35
REMARK                            x       y       z     vdW  Elec       q    Type
REMARK                         _______ _______ _______ _____ _____    ______ ____
ROOT
ATOM      1  C   LIG A   1      -5.969   1.209 130.264  0.00  0.00    +0.012 C 
ATOM      2  C   LIG A   1      -7.502   0.932 130.383  0.00  0.00    -0.023 C 
ATOM      3  C   LIG A   1      -8.254   1.309 129.059  0.00  0.00    +0.002 C 
ATOM      4  C   LIG A   1      -7.891   0.451 127.774  0.00  0.00    -0.025 C 
ATOM      5  C   LIG A   1      -6.458   0.742 127.265  0.00  0.00    +0.012 C 
ATOM      6  C   LIG A   1      -8.141  -1.053 128.155  0.00  0.00    +0.008 C 
ATOM      7  C   LIG A   1      -7.329  -1.468 129.401  0.00  0.00    +0.005 C 
ATOM      8  C   LIG A   1      -7.665  -0.598 130.620  0.00  0.00    +0.008 C 
ATOM      9  C   LIG A   1      -8.078  -2.080 126.980  0.00  0.00    +0.027 C 
ATOM     10  C   LIG A   1      -6.670  -2.382 126.450  0.00  0.00    +0.019 C 
ATOM     11  C   LIG A   1      -8.692  -3.424 127.447  0.00  0.00    +0.019 C 
ATOM     12  C   LIG A   1      -8.940  -1.562 125.811  0.00  0.00    +0.139 C 
ATOM     13  O   LIG A   1      -9.616  -2.308 125.120  0.00  0.00    -0.297 OA
ATOM     14  C   LIG A   1      -8.816  -0.102 125.427  0.00  0.00    +0.075 C 
ATOM     15  C   LIG A   1      -8.890   0.814 126.637  0.00  0.00    +0.015 C 
ATOM     16  C   LIG A   1      -8.320   2.830 128.809  0.00  0.00    +0.005 C 
ATOM     17  C   LIG A   1      -7.756   3.713 129.913  0.00  0.00    +0.005 C 
ATOM     18  C   LIG A   1      -8.110   3.324 131.347  0.00  0.00    +0.001 C 
ATOM     19  C   LIG A   1      -8.162   1.772 131.585  0.00  0.00    -0.023 C 
ATOM     20  C   LIG A   1      -9.667   1.438 131.823  0.00  0.00    +0.012 C 
ATOM     21  C   LIG A   1      -7.445   1.532 132.938  0.00  0.00    +0.008 C 
ATOM     22  C   LIG A   1      -7.241   2.900 133.562  0.00  0.00    +0.007 C 
ATOM     23  C   LIG A   1      -7.107   3.893 132.391  0.00  0.00    +0.024 C 
ENDROOT
BRANCH  23  24
ATOM     24  C   LIG A   1      -7.325   5.373 132.854  0.00  0.00    +0.067 C 
ATOM     25  C   LIG A   1      -7.047   5.500 134.364  0.00  0.00    +0.041 C 
BRANCH  24  26
ATOM     26  O   LIG A   1      -8.716   5.688 132.654  0.00  0.00    -0.389 OA
ATOM     27  H   LIG A   1      -8.816   6.655 132.667  0.00  0.00    +0.210 HD
ENDBRANCH  24  26
BRANCH  24  28
ATOM     28  C   LIG A   1      -6.524   6.458 132.085  0.00  0.00    +0.039 C 
BRANCH  28  29
ATOM     29  C   LIG A   1      -5.232   5.987 131.381  0.00  0.00    +0.033 C 
BRANCH  29  30
ATOM     30  C   LIG A   1      -4.195   7.065 131.080  0.00  0.00    -0.074 C 
ATOM     31  C   LIG A   1      -4.379   7.981 130.110  0.00  0.00    +0.008 C 
BRANCH  30  32
ATOM     32  C   LIG A   1      -2.917   7.090 131.927  0.00  0.00    +0.008 C 
ATOM     33  C   LIG A   1      -1.691   6.508 131.212  0.00  0.00    +0.012 C 
ATOM     34  C   LIG A   1      -2.602   8.502 132.427  0.00  0.00    +0.012 C 
ENDBRANCH  30  32
ENDBRANCH  29  30
ENDBRANCH  28  29
ENDBRANCH  24  28
ENDBRANCH  23  24
TORSDOF 6
ENDMDL
MODEL 8
REMARK VINA RESULT:      -7.8      2.993      8.439
REMARK  Name = NuBBE_2252
REMARK  14 active torsions:
REMARK  status: ('A' for Active; 'I' for Inactive)
REMARK    1  A    between atoms: C_1  and  C_2
REMARK    2  A    between atoms: C_5  and  C_6
REMARK    3  A    between atoms: C_11  and  C_12
REMARK    4  A    between atoms: C_11  and  C_13
REMARK    5  A    between atoms: C_22  and  C_23
REMARK    6  A    between atoms: C_26  and  C_28
REMARK    7  A    between atoms: C_28  and  C_29
REMARK    8  A    between atoms: C_28  and  C_36
REMARK    9  A    between atoms: C_28  and  O_37
REMARK   10  A    between atoms: C_29  and  C_30
REMARK   11  A    between atoms: C_30  and  C_31
REMARK   12  A    between atoms: C_31  and  C_33
REMARK   13  A    between atoms: C_33  and  C_34
REMARK   14  A    between atoms: C_33  and  C_35
REMARK                            x       y       z     vdW  Elec       q    Type
REMARK                         _______ _______ _______ _____ _____    ______ ____
ROOT
ATOM      1  C   LIG A   1      -7.651   2.945 129.122  0.00  0.00    +0.012 C 
ATOM      2  C   LIG A   1      -6.378   2.047 129.000  0.00  0.00    -0.023 C 
ATOM      3  C   LIG A   1      -5.116   2.898 128.619  0.00  0.00    +0.002 C 
ATOM      4  C   LIG A   1      -4.633   3.962 129.693  0.00  0.00    -0.025 C 
ATOM      5  C   LIG A   1      -5.622   5.145 129.826  0.00  0.00    +0.012 C 
ATOM      6  C   LIG A   1      -4.398   3.172 131.031  0.00  0.00    +0.008 C 
ATOM      7  C   LIG A   1      -5.665   2.409 131.473  0.00  0.00    +0.005 C 
ATOM      8  C   LIG A   1      -6.138   1.415 130.402  0.00  0.00    +0.008 C 
ATOM      9  C   LIG A   1      -3.694   3.961 132.181  0.00  0.00    +0.027 C 
ATOM     10  C   LIG A   1      -4.565   5.013 132.880  0.00  0.00    +0.019 C 
ATOM     11  C   LIG A   1      -3.220   2.961 133.266  0.00  0.00    +0.019 C 
ATOM     12  C   LIG A   1      -2.440   4.660 131.619  0.00  0.00    +0.139 C 
ATOM     13  O   LIG A   1      -1.403   4.750 132.258  0.00  0.00    -0.297 OA
ATOM     14  C   LIG A   1      -2.561   5.381 130.293  0.00  0.00    +0.075 C 
ATOM     15  C   LIG A   1      -3.257   4.533 129.242  0.00  0.00    +0.015 C 
ATOM     16  C   LIG A   1      -5.154   3.429 127.171  0.00  0.00    +0.005 C 
ATOM     17  C   LIG A   1      -6.329   2.967 126.322  0.00  0.00    +0.005 C 
ATOM     18  C   LIG A   1      -6.714   1.493 126.431  0.00  0.00    +0.001 C 
ATOM     19  C   LIG A   1      -6.565   0.907 127.881  0.00  0.00    -0.023 C 
ATOM     20  C   LIG A   1      -5.368  -0.090 127.806  0.00  0.00    +0.012 C 
ATOM     21  C   LIG A   1      -7.832   0.048 128.118  0.00  0.00    +0.008 C 
ATOM     22  C   LIG A   1      -8.527  -0.067 126.773  0.00  0.00    +0.007 C 
ATOM     23  C   LIG A   1      -8.182   1.219 125.997  0.00  0.00    +0.024 C 
ENDROOT
BRANCH  23  24
ATOM     24  C   LIG A   1      -8.454   1.064 124.463  0.00  0.00    +0.067 C 
ATOM     25  C   LIG A   1      -8.831   2.428 123.853  0.00  0.00    +0.041 C 
BRANCH  24  26
ATOM     26  O   LIG A   1      -9.600   0.205 124.311  0.00  0.00    -0.389 OA
ATOM     27  H   LIG A   1     -10.065   0.161 125.165  0.00  0.00    +0.210 HD
ENDBRANCH  24  26
BRANCH  24  28
ATOM     28  C   LIG A   1      -7.318   0.417 123.625  0.00  0.00    +0.039 C 
BRANCH  28  29
ATOM     29  C   LIG A   1      -7.574  -1.020 123.118  0.00  0.00    +0.033 C 
BRANCH  29  30
ATOM     30  C   LIG A   1      -7.126  -2.151 124.039  0.00  0.00    -0.074 C 
ATOM     31  C   LIG A   1      -5.939  -2.127 124.674  0.00  0.00    +0.008 C 
BRANCH  30  32
ATOM     32  C   LIG A   1      -8.080  -3.335 124.239  0.00  0.00    +0.008 C 
ATOM     33  C   LIG A   1      -8.427  -3.607 125.709  0.00  0.00    +0.012 C 
ATOM     34  C   LIG A   1      -9.367  -3.163 123.428  0.00  0.00    +0.012 C 
ENDBRANCH  30  32
ENDBRANCH  29  30
ENDBRANCH  28  29
ENDBRANCH  24  28
ENDBRANCH  23  24
TORSDOF 6
ENDMDL
MODEL 9
REMARK VINA RESULT:      -7.8      2.507      4.418
REMARK  Name = NuBBE_2252
REMARK  14 active torsions:
REMARK  status: ('A' for Active; 'I' for Inactive)
REMARK    1  A    between atoms: C_1  and  C_2
REMARK    2  A    between atoms: C_5  and  C_6
REMARK    3  A    between atoms: C_11  and  C_12
REMARK    4  A    between atoms: C_11  and  C_13
REMARK    5  A    between atoms: C_22  and  C_23
REMARK    6  A    between atoms: C_26  and  C_28
REMARK    7  A    between atoms: C_28  and  C_29
REMARK    8  A    between atoms: C_28  and  C_36
REMARK    9  A    between atoms: C_28  and  O_37
REMARK   10  A    between atoms: C_29  and  C_30
REMARK   11  A    between atoms: C_30  and  C_31
REMARK   12  A    between atoms: C_31  and  C_33
REMARK   13  A    between atoms: C_33  and  C_34
REMARK   14  A    between atoms: C_33  and  C_35
REMARK                            x       y       z     vdW  Elec       q    Type
REMARK                         _______ _______ _______ _____ _____    ______ ____
ROOT
ATOM      1  C   LIG A   1      -5.231   1.435 126.787  0.00  0.00    +0.012 C 
ATOM      2  C   LIG A   1      -6.287   0.493 127.450  0.00  0.00    -0.023 C 
ATOM      3  C   LIG A   1      -7.648   0.527 126.672  0.00  0.00    +0.002 C 
ATOM      4  C   LIG A   1      -7.626  -0.041 125.190  0.00  0.00    -0.025 C 
ATOM      5  C   LIG A   1      -6.837   0.878 124.226  0.00  0.00    +0.012 C 
ATOM      6  C   LIG A   1      -7.064  -1.506 125.280  0.00  0.00    +0.008 C 
ATOM      7  C   LIG A   1      -5.677  -1.543 125.956  0.00  0.00    +0.005 C 
ATOM      8  C   LIG A   1      -5.713  -0.952 127.372  0.00  0.00    +0.008 C 
ATOM      9  C   LIG A   1      -7.165  -2.363 123.978  0.00  0.00    +0.027 C 
ATOM     10  C   LIG A   1      -6.175  -1.983 122.869  0.00  0.00    +0.019 C 
ATOM     11  C   LIG A   1      -6.914  -3.851 124.329  0.00  0.00    +0.019 C 
ATOM     12  C   LIG A   1      -8.595  -2.257 123.414  0.00  0.00    +0.139 C 
ATOM     13  O   LIG A   1      -9.166  -3.209 122.905  0.00  0.00    -0.297 OA
ATOM     14  C   LIG A   1      -9.241  -0.888 123.362  0.00  0.00    +0.075 C 
ATOM     15  C   LIG A   1      -9.092  -0.136 124.673  0.00  0.00    +0.015 C 
ATOM     16  C   LIG A   1      -8.407   1.861 126.830  0.00  0.00    +0.005 C 
ATOM     17  C   LIG A   1      -7.786   2.873 127.781  0.00  0.00    +0.005 C 
ATOM     18  C   LIG A   1      -7.247   2.329 129.103  0.00  0.00    +0.001 C 
ATOM     19  C   LIG A   1      -6.576   0.914 128.976  0.00  0.00    -0.023 C 
ATOM     20  C   LIG A   1      -7.533  -0.069 129.718  0.00  0.00    +0.012 C 
ATOM     21  C   LIG A   1      -5.282   0.986 129.825  0.00  0.00    +0.008 C 
ATOM     22  C   LIG A   1      -5.360   2.283 130.611  0.00  0.00    +0.007 C 
ATOM     23  C   LIG A   1      -6.184   3.261 129.751  0.00  0.00    +0.024 C 
ENDROOT
BRANCH  23  24
ATOM     24  C   LIG A   1      -6.714   4.471 130.591  0.00  0.00    +0.067 C 
ATOM     25  C   LIG A   1      -8.028   4.087 131.298  0.00  0.00    +0.041 C 
BRANCH  24  26
ATOM     26  O   LIG A   1      -7.028   5.532 129.669  0.00  0.00    -0.389 OA
ATOM     27  H   LIG A   1      -7.985   5.517 129.497  0.00  0.00    +0.210 HD
ENDBRANCH  24  26
BRANCH  24  28
ATOM     28  C   LIG A   1      -5.726   5.076 131.623  0.00  0.00    +0.039 C 
BRANCH  28  29
ATOM     29  C   LIG A   1      -4.687   6.078 131.072  0.00  0.00    +0.033 C 
BRANCH  29  30
ATOM     30  C   LIG A   1      -3.417   5.476 130.477  0.00  0.00    -0.074 C 
ATOM     31  C   LIG A   1      -2.471   4.905 131.246  0.00  0.00    +0.008 C 
BRANCH  30  32
ATOM     32  C   LIG A   1      -3.242   5.528 128.955  0.00  0.00    +0.008 C 
ATOM     33  C   LIG A   1      -2.204   6.557 128.488  0.00  0.00    +0.012 C 
ATOM     34  C   LIG A   1      -2.898   4.151 128.382  0.00  0.00    +0.012 C 
ENDBRANCH  30  32
ENDBRANCH  29  30
ENDBRANCH  28  29
ENDBRANCH  24  28
ENDBRANCH  23  24
TORSDOF 6
ENDMDL
