MODEL 1
REMARK VINA RESULT:      -6.9      0.000      0.000
REMARK  Name = NuBBE_164
REMARK  5 active torsions:
REMARK  status: ('A' for Active; 'I' for Inactive)
REMARK    1  A    between atoms: C_1  and  O_2
REMARK    2  A    between atoms: O_2  and  C_3
REMARK    3  A    between atoms: C_8  and  O_9
REMARK    4  A    between atoms: O_9  and  C_10
REMARK    5  A    between atoms: C_13  and  O_23
REMARK                            x       y       z     vdW  Elec       q    Type
REMARK                         _______ _______ _______ _____ _____    ______ ____
ROOT
ATOM      1  C   LIG A   1      -7.641   2.257 124.690  0.00  0.00    +0.162 A 
ATOM      2  C   LIG A   1      -7.213   1.371 123.696  0.00  0.00    +0.053 A 
ATOM      3  C   LIG A   1      -7.183  -0.007 123.926  0.00  0.00    -0.037 A 
ATOM      4  C   LIG A   1      -7.580  -0.534 125.170  0.00  0.00    -0.016 A 
ATOM      5  C   LIG A   1      -8.045   0.363 126.147  0.00  0.00    +0.055 A 
ATOM      6  C   LIG A   1      -8.067   1.752 125.927  0.00  0.00    +0.162 A 
ATOM      7  C   LIG A   1      -7.444  -2.055 125.385  0.00  0.00    +0.075 C 
ATOM      8  C   LIG A   1      -5.988  -2.439 125.763  0.00  0.00    +0.067 C 
ATOM      9  C   LIG A   1      -5.638  -2.131 127.235  0.00  0.00    +0.140 C 
ATOM     10  C   LIG A   1      -6.764  -2.320 128.209  0.00  0.00    +0.004 C 
ATOM     11  C   LIG A   1      -8.022  -2.600 127.839  0.00  0.00    +0.004 C 
ATOM     12  C   LIG A   1      -8.361  -2.643 126.444  0.00  0.00    -0.026 C 
ATOM     13  C   LIG A   1      -9.392  -3.288 125.893  0.00  0.00    -0.006 C 
ATOM     14  C   LIG A   1      -9.262  -3.264 124.410  0.00  0.00    +0.113 C 
ATOM     15  N   LIG A   1      -7.874  -2.819 124.169  0.00  0.00    -0.285 NA
ATOM     16  C   LIG A   1      -7.719  -2.166 122.866  0.00  0.00    +0.090 C 
ATOM     17  C   LIG A   1      -6.762  -0.970 122.847  0.00  0.00    +0.051 C 
ENDROOT
BRANCH   1  19
ATOM     18  C   LIG A   1      -6.355   4.213 124.262  0.00  0.00    +0.277 C 
ATOM     19  O   LIG A   1      -7.621   3.567 124.286  0.00  0.00    -0.491 OA
ENDBRANCH   1  19
BRANCH   6  20
ATOM     20  O   LIG A   1      -8.557   2.628 126.860  0.00  0.00    -0.491 OA
ATOM     21  C   LIG A   1      -7.622   3.124 127.813  0.00  0.00    +0.277 C 
ENDBRANCH   6  20
BRANCH   9  22
ATOM     22  O   LIG A   1      -5.121  -0.818 127.410  0.00  0.00    -0.388 OA
ATOM     23  H   LIG A   1      -4.206  -0.804 127.087  0.00  0.00    +0.210 HD
ENDBRANCH   9  22
TORSDOF 3
ENDMDL
MODEL 2
REMARK VINA RESULT:      -6.8      1.984      3.907
REMARK  Name = NuBBE_164
REMARK  5 active torsions:
REMARK  status: ('A' for Active; 'I' for Inactive)
REMARK    1  A    between atoms: C_1  and  O_2
REMARK    2  A    between atoms: O_2  and  C_3
REMARK    3  A    between atoms: C_8  and  O_9
REMARK    4  A    between atoms: O_9  and  C_10
REMARK    5  A    between atoms: C_13  and  O_23
REMARK                            x       y       z     vdW  Elec       q    Type
REMARK                         _______ _______ _______ _____ _____    ______ ____
ROOT
ATOM      1  C   LIG A   1      -8.577   1.294 127.172  0.00  0.00    +0.162 A 
ATOM      2  C   LIG A   1      -7.721   0.401 127.825  0.00  0.00    +0.053 A 
ATOM      3  C   LIG A   1      -7.264  -0.754 127.184  0.00  0.00    -0.037 A 
ATOM      4  C   LIG A   1      -7.661  -1.045 125.864  0.00  0.00    -0.016 A 
ATOM      5  C   LIG A   1      -8.489  -0.121 125.206  0.00  0.00    +0.055 A 
ATOM      6  C   LIG A   1      -8.964   1.037 125.848  0.00  0.00    +0.162 A 
ATOM      7  C   LIG A   1      -7.186  -2.376 125.246  0.00  0.00    +0.075 C 
ATOM      8  C   LIG A   1      -8.083  -3.557 125.706  0.00  0.00    +0.067 C 
ATOM      9  C   LIG A   1      -9.437  -3.620 124.968  0.00  0.00    +0.140 C 
ATOM     10  C   LIG A   1      -9.396  -3.196 123.528  0.00  0.00    +0.004 C 
ATOM     11  C   LIG A   1      -8.310  -2.668 122.944  0.00  0.00    +0.004 C 
ATOM     12  C   LIG A   1      -7.137  -2.404 123.728  0.00  0.00    -0.026 C 
ATOM     13  C   LIG A   1      -5.886  -2.291 123.279  0.00  0.00    -0.006 C 
ATOM     14  C   LIG A   1      -4.944  -2.236 124.430  0.00  0.00    +0.113 C 
ATOM     15  N   LIG A   1      -5.755  -2.658 125.591  0.00  0.00    -0.285 NA
ATOM     16  C   LIG A   1      -5.240  -2.119 126.853  0.00  0.00    +0.090 C 
ATOM     17  C   LIG A   1      -6.310  -1.698 127.865  0.00  0.00    +0.051 C 
ENDROOT
BRANCH   1  19
ATOM     18  C   LIG A   1      -8.577   2.313 129.323  0.00  0.00    +0.277 C 
ATOM     19  O   LIG A   1      -8.912   2.378 127.943  0.00  0.00    -0.491 OA
ENDBRANCH   1  19
BRANCH   6  20
ATOM     20  O   LIG A   1      -9.739   1.963 125.200  0.00  0.00    -0.491 OA
ATOM     21  C   LIG A   1      -9.387   2.245 123.849  0.00  0.00    +0.277 C 
ENDBRANCH   6  20
BRANCH   9  22
ATOM     22  O   LIG A   1     -10.450  -2.864 125.620  0.00  0.00    -0.388 OA
ATOM     23  H   LIG A   1     -11.254  -2.897 125.077  0.00  0.00    +0.210 HD
ENDBRANCH   9  22
TORSDOF 3
ENDMDL
MODEL 3
REMARK VINA RESULT:      -6.7      2.006      3.918
REMARK  Name = NuBBE_164
REMARK  5 active torsions:
REMARK  status: ('A' for Active; 'I' for Inactive)
REMARK    1  A    between atoms: C_1  and  O_2
REMARK    2  A    between atoms: O_2  and  C_3
REMARK    3  A    between atoms: C_8  and  O_9
REMARK    4  A    between atoms: O_9  and  C_10
REMARK    5  A    between atoms: C_13  and  O_23
REMARK                            x       y       z     vdW  Elec       q    Type
REMARK                         _______ _______ _______ _____ _____    ______ ____
ROOT
ATOM      1  C   LIG A   1      -8.379   2.852 124.959  0.00  0.00    +0.162 A 
ATOM      2  C   LIG A   1      -8.519   2.055 126.100  0.00  0.00    +0.053 A 
ATOM      3  C   LIG A   1      -8.178   0.700 126.077  0.00  0.00    -0.037 A 
ATOM      4  C   LIG A   1      -7.690   0.105 124.898  0.00  0.00    -0.016 A 
ATOM      5  C   LIG A   1      -7.518   0.924 123.769  0.00  0.00    +0.055 A 
ATOM      6  C   LIG A   1      -7.870   2.285 123.781  0.00  0.00    +0.162 A 
ATOM      7  C   LIG A   1      -7.412  -1.412 124.918  0.00  0.00    +0.075 C 
ATOM      8  C   LIG A   1      -8.719  -2.224 124.707  0.00  0.00    +0.067 C 
ATOM      9  C   LIG A   1      -9.185  -2.260 123.236  0.00  0.00    +0.140 C 
ATOM     10  C   LIG A   1      -8.080  -2.298 122.221  0.00  0.00    +0.004 C 
ATOM     11  C   LIG A   1      -6.783  -2.171 122.535  0.00  0.00    +0.004 C 
ATOM     12  C   LIG A   1      -6.402  -1.899 123.892  0.00  0.00    -0.026 C 
ATOM     13  C   LIG A   1      -5.219  -2.150 124.455  0.00  0.00    -0.006 C 
ATOM     14  C   LIG A   1      -5.305  -1.924 125.924  0.00  0.00    +0.113 C 
ATOM     15  N   LIG A   1      -6.753  -1.829 126.198  0.00  0.00    -0.285 NA
ATOM     16  C   LIG A   1      -7.041  -1.040 127.400  0.00  0.00    +0.090 C 
ATOM     17  C   LIG A   1      -8.286  -0.154 127.313  0.00  0.00    +0.051 C 
ENDROOT
BRANCH   1  19
ATOM     18  C   LIG A   1      -7.740   5.033 125.661  0.00  0.00    +0.277 C 
ATOM     19  O   LIG A   1      -8.744   4.157 125.167  0.00  0.00    -0.491 OA
ENDBRANCH   1  19
BRANCH   6  20
ATOM     20  O   LIG A   1      -7.667   3.099 122.697  0.00  0.00    -0.491 OA
ATOM     21  C   LIG A   1      -6.324   3.219 122.241  0.00  0.00    +0.277 C 
ENDBRANCH   6  20
BRANCH   9  22
ATOM     22  O   LIG A   1     -10.046  -1.177 122.909  0.00  0.00    -0.388 OA
ATOM     23  H   LIG A   1      -9.524  -0.359 122.915  0.00  0.00    +0.210 HD
ENDBRANCH   9  22
TORSDOF 3
ENDMDL
MODEL 4
REMARK VINA RESULT:      -6.6      2.263      3.258
REMARK  Name = NuBBE_164
REMARK  5 active torsions:
REMARK  status: ('A' for Active; 'I' for Inactive)
REMARK    1  A    between atoms: C_1  and  O_2
REMARK    2  A    between atoms: O_2  and  C_3
REMARK    3  A    between atoms: C_8  and  O_9
REMARK    4  A    between atoms: O_9  and  C_10
REMARK    5  A    between atoms: C_13  and  O_23
REMARK                            x       y       z     vdW  Elec       q    Type
REMARK                         _______ _______ _______ _____ _____    ______ ____
ROOT
ATOM      1  C   LIG A   1      -8.481   1.968 128.754  0.00  0.00    +0.162 A 
ATOM      2  C   LIG A   1      -8.434   1.566 127.415  0.00  0.00    +0.053 A 
ATOM      3  C   LIG A   1      -8.097   0.255 127.069  0.00  0.00    -0.037 A 
ATOM      4  C   LIG A   1      -7.791  -0.692 128.066  0.00  0.00    -0.016 A 
ATOM      5  C   LIG A   1      -7.878  -0.287 129.409  0.00  0.00    +0.055 A 
ATOM      6  C   LIG A   1      -8.205   1.034 129.764  0.00  0.00    +0.162 A 
ATOM      7  C   LIG A   1      -7.347  -2.098 127.613  0.00  0.00    +0.075 C 
ATOM      8  C   LIG A   1      -5.842  -2.113 127.230  0.00  0.00    +0.067 C 
ATOM      9  C   LIG A   1      -4.901  -2.136 128.454  0.00  0.00    +0.140 C 
ATOM     10  C   LIG A   1      -5.407  -2.920 129.629  0.00  0.00    +0.004 C 
ATOM     11  C   LIG A   1      -6.636  -3.452 129.689  0.00  0.00    +0.004 C 
ATOM     12  C   LIG A   1      -7.571  -3.206 128.628  0.00  0.00    -0.026 C 
ATOM     13  C   LIG A   1      -8.631  -3.951 128.309  0.00  0.00    -0.006 C 
ATOM     14  C   LIG A   1      -9.207  -3.478 127.020  0.00  0.00    +0.113 C 
ATOM     15  N   LIG A   1      -8.171  -2.585 126.459  0.00  0.00    -0.285 NA
ATOM     16  C   LIG A   1      -8.736  -1.580 125.554  0.00  0.00    +0.090 C 
ATOM     17  C   LIG A   1      -8.086  -0.196 125.633  0.00  0.00    +0.051 C 
ENDROOT
BRANCH   1  19
ATOM     18  C   LIG A   1      -7.799   4.244 128.881  0.00  0.00    +0.277 C 
ATOM     19  O   LIG A   1      -8.844   3.281 128.909  0.00  0.00    -0.491 OA
ENDBRANCH   1  19
BRANCH   6  20
ATOM     20  O   LIG A   1      -8.332   1.426 131.071  0.00  0.00    -0.491 OA
ATOM     21  C   LIG A   1      -9.450   0.902 131.781  0.00  0.00    +0.277 C 
ENDBRANCH   6  20
BRANCH   9  22
ATOM     22  O   LIG A   1      -4.563  -0.831 128.907  0.00  0.00    -0.388 OA
ATOM     23  H   LIG A   1      -3.831  -0.498 128.364  0.00  0.00    +0.210 HD
ENDBRANCH   9  22
TORSDOF 3
ENDMDL
MODEL 5
REMARK VINA RESULT:      -6.5      2.411      5.599
REMARK  Name = NuBBE_164
REMARK  5 active torsions:
REMARK  status: ('A' for Active; 'I' for Inactive)
REMARK    1  A    between atoms: C_1  and  O_2
REMARK    2  A    between atoms: O_2  and  C_3
REMARK    3  A    between atoms: C_8  and  O_9
REMARK    4  A    between atoms: O_9  and  C_10
REMARK    5  A    between atoms: C_13  and  O_23
REMARK                            x       y       z     vdW  Elec       q    Type
REMARK                         _______ _______ _______ _____ _____    ______ ____
ROOT
ATOM      1  C   LIG A   1      -7.906  -1.656 123.886  0.00  0.00    +0.162 A 
ATOM      2  C   LIG A   1      -8.925  -0.865 123.345  0.00  0.00    +0.053 A 
ATOM      3  C   LIG A   1      -8.801   0.525 123.285  0.00  0.00    -0.037 A 
ATOM      4  C   LIG A   1      -7.644   1.163 123.774  0.00  0.00    -0.016 A 
ATOM      5  C   LIG A   1      -6.611   0.355 124.279  0.00  0.00    +0.055 A 
ATOM      6  C   LIG A   1      -6.734  -1.044 124.354  0.00  0.00    +0.162 A 
ATOM      7  C   LIG A   1      -7.607   2.704 123.753  0.00  0.00    +0.075 C 
ATOM      8  C   LIG A   1      -8.367   3.299 124.969  0.00  0.00    +0.067 C 
ATOM      9  C   LIG A   1      -7.564   3.230 126.286  0.00  0.00    +0.140 C 
ATOM     10  C   LIG A   1      -6.082   3.415 126.135  0.00  0.00    +0.004 C 
ATOM     11  C   LIG A   1      -5.464   3.498 124.948  0.00  0.00    +0.004 C 
ATOM     12  C   LIG A   1      -6.217   3.318 123.739  0.00  0.00    -0.026 C 
ATOM     13  C   LIG A   1      -5.892   3.761 122.523  0.00  0.00    -0.006 C 
ATOM     14  C   LIG A   1      -7.037   3.558 121.594  0.00  0.00    +0.113 C 
ATOM     15  N   LIG A   1      -8.180   3.247 122.478  0.00  0.00    -0.285 NA
ATOM     16  C   LIG A   1      -9.206   2.450 121.800  0.00  0.00    +0.090 C 
ATOM     17  C   LIG A   1      -9.876   1.379 122.667  0.00  0.00    +0.051 C 
ENDROOT
BRANCH   1  19
ATOM     18  C   LIG A   1      -9.520  -3.363 123.508  0.00  0.00    +0.277 C 
ATOM     19  O   LIG A   1      -8.190  -2.997 123.849  0.00  0.00    -0.491 OA
ENDBRANCH   1  19
BRANCH   6  20
ATOM     20  O   LIG A   1      -5.715  -1.841 124.807  0.00  0.00    -0.491 OA
ATOM     21  C   LIG A   1      -5.669  -2.067 126.212  0.00  0.00    +0.277 C 
ENDBRANCH   6  20
BRANCH   9  22
ATOM     22  O   LIG A   1      -7.786   2.019 126.998  0.00  0.00    -0.388 OA
ATOM     23  H   LIG A   1      -8.512   1.540 126.568  0.00  0.00    +0.210 HD
ENDBRANCH   9  22
TORSDOF 3
ENDMDL
MODEL 6
REMARK VINA RESULT:      -6.4      1.613      5.023
REMARK  Name = NuBBE_164
REMARK  5 active torsions:
REMARK  status: ('A' for Active; 'I' for Inactive)
REMARK    1  A    between atoms: C_1  and  O_2
REMARK    2  A    between atoms: O_2  and  C_3
REMARK    3  A    between atoms: C_8  and  O_9
REMARK    4  A    between atoms: O_9  and  C_10
REMARK    5  A    between atoms: C_13  and  O_23
REMARK                            x       y       z     vdW  Elec       q    Type
REMARK                         _______ _______ _______ _____ _____    ______ ____
ROOT
ATOM      1  C   LIG A   1      -6.874  -2.449 129.121  0.00  0.00    +0.162 A 
ATOM      2  C   LIG A   1      -7.907  -3.050 128.396  0.00  0.00    +0.053 A 
ATOM      3  C   LIG A   1      -8.268  -2.577 127.132  0.00  0.00    -0.037 A 
ATOM      4  C   LIG A   1      -7.600  -1.476 126.561  0.00  0.00    -0.016 A 
ATOM      5  C   LIG A   1      -6.538  -0.905 127.283  0.00  0.00    +0.055 A 
ATOM      6  C   LIG A   1      -6.176  -1.368 128.561  0.00  0.00    +0.162 A 
ATOM      7  C   LIG A   1      -8.102  -0.953 125.201  0.00  0.00    +0.075 C 
ATOM      8  C   LIG A   1      -9.336  -0.027 125.378  0.00  0.00    +0.067 C 
ATOM      9  C   LIG A   1      -8.969   1.392 125.864  0.00  0.00    +0.140 C 
ATOM     10  C   LIG A   1      -7.670   1.928 125.337  0.00  0.00    +0.004 C 
ATOM     11  C   LIG A   1      -6.810   1.199 124.611  0.00  0.00    +0.004 C 
ATOM     12  C   LIG A   1      -7.075  -0.193 124.379  0.00  0.00    -0.026 C 
ATOM     13  C   LIG A   1      -6.595  -0.942 123.384  0.00  0.00    -0.006 C 
ATOM     14  C   LIG A   1      -7.281  -2.264 123.378  0.00  0.00    +0.113 C 
ATOM     15  N   LIG A   1      -8.442  -2.082 124.274  0.00  0.00    -0.285 NA
ATOM     16  C   LIG A   1      -8.884  -3.344 124.873  0.00  0.00    +0.090 C 
ATOM     17  C   LIG A   1      -9.352  -3.245 126.328  0.00  0.00    +0.051 C 
ENDROOT
BRANCH   1  19
ATOM     18  C   LIG A   1      -5.990  -4.313 130.306  0.00  0.00    +0.277 C 
ATOM     19  O   LIG A   1      -6.645  -3.051 130.331  0.00  0.00    -0.491 OA
ENDBRANCH   1  19
BRANCH   6  20
ATOM     20  O   LIG A   1      -5.116  -0.842 129.252  0.00  0.00    -0.491 OA
ATOM     21  C   LIG A   1      -5.354   0.385 129.935  0.00  0.00    +0.277 C 
ENDBRANCH   6  20
BRANCH   9  22
ATOM     22  O   LIG A   1      -8.943   1.494 127.282  0.00  0.00    -0.388 OA
ATOM     23  H   LIG A   1      -8.062   1.230 127.592  0.00  0.00    +0.210 HD
ENDBRANCH   9  22
TORSDOF 3
ENDMDL
MODEL 7
REMARK VINA RESULT:      -6.2      2.259      4.029
REMARK  Name = NuBBE_164
REMARK  5 active torsions:
REMARK  status: ('A' for Active; 'I' for Inactive)
REMARK    1  A    between atoms: C_1  and  O_2
REMARK    2  A    between atoms: O_2  and  C_3
REMARK    3  A    between atoms: C_8  and  O_9
REMARK    4  A    between atoms: O_9  and  C_10
REMARK    5  A    between atoms: C_13  and  O_23
REMARK                            x       y       z     vdW  Elec       q    Type
REMARK                         _______ _______ _______ _____ _____    ______ ____
ROOT
ATOM      1  C   LIG A   1      -4.529   2.546 126.491  0.00  0.00    +0.162 A 
ATOM      2  C   LIG A   1      -4.578   1.269 127.059  0.00  0.00    +0.053 A 
ATOM      3  C   LIG A   1      -5.472   0.306 126.586  0.00  0.00    -0.037 A 
ATOM      4  C   LIG A   1      -6.350   0.603 125.525  0.00  0.00    -0.016 A 
ATOM      5  C   LIG A   1      -6.264   1.877 124.937  0.00  0.00    +0.055 A 
ATOM      6  C   LIG A   1      -5.376   2.855 125.416  0.00  0.00    +0.162 A 
ATOM      7  C   LIG A   1      -7.367  -0.477 125.106  0.00  0.00    +0.075 C 
ATOM      8  C   LIG A   1      -8.605  -0.473 126.043  0.00  0.00    +0.067 C 
ATOM      9  C   LIG A   1      -9.596   0.672 125.742  0.00  0.00    +0.140 C 
ATOM     10  C   LIG A   1      -9.724   1.035 124.291  0.00  0.00    +0.004 C 
ATOM     11  C   LIG A   1      -8.948   0.517 123.328  0.00  0.00    +0.004 C 
ATOM     12  C   LIG A   1      -7.875  -0.370 123.678  0.00  0.00    -0.026 C 
ATOM     13  C   LIG A   1      -7.297  -1.275 122.886  0.00  0.00    -0.006 C 
ATOM     14  C   LIG A   1      -6.384  -2.133 123.690  0.00  0.00    +0.113 C 
ATOM     15  N   LIG A   1      -6.742  -1.840 125.093  0.00  0.00    -0.285 NA
ATOM     16  C   LIG A   1      -5.628  -2.086 126.013  0.00  0.00    +0.090 C 
ATOM     17  C   LIG A   1      -5.502  -1.084 127.165  0.00  0.00    +0.051 C 
ENDROOT
BRANCH   1  19
ATOM     18  C   LIG A   1      -2.244   3.200 126.617  0.00  0.00    +0.277 C 
ATOM     19  O   LIG A   1      -3.584   3.355 127.068  0.00  0.00    -0.491 OA
ENDBRANCH   1  19
BRANCH   6  20
ATOM     20  O   LIG A   1      -5.258   4.085 124.822  0.00  0.00    -0.491 OA
ATOM     21  C   LIG A   1      -5.753   4.192 123.491  0.00  0.00    +0.277 C 
ENDBRANCH   6  20
BRANCH   9  22
ATOM     22  O   LIG A   1      -9.297   1.857 126.468  0.00  0.00    -0.388 OA
ATOM     23  H   LIG A   1      -9.345   2.610 125.858  0.00  0.00    +0.210 HD
ENDBRANCH   9  22
TORSDOF 3
ENDMDL
MODEL 8
REMARK VINA RESULT:      -6.2      2.767      5.142
REMARK  Name = NuBBE_164
REMARK  5 active torsions:
REMARK  status: ('A' for Active; 'I' for Inactive)
REMARK    1  A    between atoms: C_1  and  O_2
REMARK    2  A    between atoms: O_2  and  C_3
REMARK    3  A    between atoms: C_8  and  O_9
REMARK    4  A    between atoms: O_9  and  C_10
REMARK    5  A    between atoms: C_13  and  O_23
REMARK                            x       y       z     vdW  Elec       q    Type
REMARK                         _______ _______ _______ _____ _____    ______ ____
ROOT
ATOM      1  C   LIG A   1      -9.158  -2.186 125.690  0.00  0.00    +0.162 A 
ATOM      2  C   LIG A   1      -8.657  -2.991 126.718  0.00  0.00    +0.053 A 
ATOM      3  C   LIG A   1      -8.022  -2.426 127.828  0.00  0.00    -0.037 A 
ATOM      4  C   LIG A   1      -7.870  -1.030 127.932  0.00  0.00    -0.016 A 
ATOM      5  C   LIG A   1      -8.412  -0.230 126.912  0.00  0.00    +0.055 A 
ATOM      6  C   LIG A   1      -9.041  -0.791 125.786  0.00  0.00    +0.162 A 
ATOM      7  C   LIG A   1      -7.087  -0.478 129.141  0.00  0.00    +0.075 C 
ATOM      8  C   LIG A   1      -5.555  -0.560 128.901  0.00  0.00    +0.067 C 
ATOM      9  C   LIG A   1      -5.023   0.547 127.966  0.00  0.00    +0.140 C 
ATOM     10  C   LIG A   1      -5.715   1.873 128.094  0.00  0.00    +0.004 C 
ATOM     11  C   LIG A   1      -6.803   2.069 128.853  0.00  0.00    +0.004 C 
ATOM     12  C   LIG A   1      -7.413   0.956 129.524  0.00  0.00    -0.026 C 
ATOM     13  C   LIG A   1      -8.196   1.006 130.603  0.00  0.00    -0.006 C 
ATOM     14  C   LIG A   1      -8.439  -0.372 131.110  0.00  0.00    +0.113 C 
ATOM     15  N   LIG A   1      -7.446  -1.206 130.402  0.00  0.00    -0.285 NA
ATOM     16  C   LIG A   1      -7.878  -2.602 130.282  0.00  0.00    +0.090 C 
ATOM     17  C   LIG A   1      -7.516  -3.283 128.958  0.00  0.00    +0.051 C 
ENDROOT
BRANCH   1  19
ATOM     18  C   LIG A   1      -8.946  -3.288 123.592  0.00  0.00    +0.277 C 
ATOM     19  O   LIG A   1      -9.762  -2.905 124.691  0.00  0.00    -0.491 OA
ENDBRANCH   1  19
BRANCH   6  20
ATOM     20  O   LIG A   1      -9.608  -0.017 124.808  0.00  0.00    -0.491 OA
ATOM     21  C   LIG A   1      -8.750   0.384 123.744  0.00  0.00    +0.277 C 
ENDBRANCH   6  20
BRANCH   9  22
ATOM     22  O   LIG A   1      -5.053   0.165 126.597  0.00  0.00    -0.388 OA
ATOM     23  H   LIG A   1      -5.963  -0.078 126.367  0.00  0.00    +0.210 HD
ENDBRANCH   9  22
TORSDOF 3
ENDMDL
MODEL 9
REMARK VINA RESULT:      -6.1      5.916      8.447
REMARK  Name = NuBBE_164
REMARK  5 active torsions:
REMARK  status: ('A' for Active; 'I' for Inactive)
REMARK    1  A    between atoms: C_1  and  O_2
REMARK    2  A    between atoms: O_2  and  C_3
REMARK    3  A    between atoms: C_8  and  O_9
REMARK    4  A    between atoms: O_9  and  C_10
REMARK    5  A    between atoms: C_13  and  O_23
REMARK                            x       y       z     vdW  Elec       q    Type
REMARK                         _______ _______ _______ _____ _____    ______ ____
ROOT
ATOM      1  C   LIG A   1      -9.118   6.574 129.903  0.00  0.00    +0.162 A 
ATOM      2  C   LIG A   1      -8.987   6.758 131.283  0.00  0.00    +0.053 A 
ATOM      3  C   LIG A   1      -8.547   5.719 132.108  0.00  0.00    -0.037 A 
ATOM      4  C   LIG A   1      -8.229   4.459 131.565  0.00  0.00    -0.016 A 
ATOM      5  C   LIG A   1      -8.327   4.298 130.172  0.00  0.00    +0.055 A 
ATOM      6  C   LIG A   1      -8.782   5.335 129.337  0.00  0.00    +0.162 A 
ATOM      7  C   LIG A   1      -7.829   3.334 132.540  0.00  0.00    +0.075 C 
ATOM      8  C   LIG A   1      -9.081   2.671 133.174  0.00  0.00    +0.067 C 
ATOM      9  C   LIG A   1      -9.797   1.685 132.225  0.00  0.00    +0.140 C 
ATOM     10  C   LIG A   1      -8.890   0.911 131.313  0.00  0.00    +0.004 C 
ATOM     11  C   LIG A   1      -7.572   1.138 131.213  0.00  0.00    +0.004 C 
ATOM     12  C   LIG A   1      -6.980   2.226 131.938  0.00  0.00    -0.026 C 
ATOM     13  C   LIG A   1      -5.699   2.347 132.291  0.00  0.00    -0.006 C 
ATOM     14  C   LIG A   1      -5.541   3.504 133.214  0.00  0.00    +0.113 C 
ATOM     15  N   LIG A   1      -6.921   3.844 133.619  0.00  0.00    -0.285 NA
ATOM     16  C   LIG A   1      -7.054   5.250 134.011  0.00  0.00    +0.090 C 
ATOM     17  C   LIG A   1      -8.363   5.922 133.588  0.00  0.00    +0.051 C 
ENDROOT
BRANCH   1  19
ATOM     18  C   LIG A   1     -10.948   7.844 129.066  0.00  0.00    +0.277 C 
ATOM     19  O   LIG A   1      -9.546   7.700 129.249  0.00  0.00    -0.491 OA
ENDBRANCH   1  19
BRANCH   6  20
ATOM     20  O   LIG A   1      -8.842   5.198 127.975  0.00  0.00    -0.491 OA
ATOM     21  C   LIG A   1      -7.924   4.279 127.392  0.00  0.00    +0.277 C 
ENDBRANCH   6  20
BRANCH   9  22
ATOM     22  O   LIG A   1     -10.788   2.319 131.426  0.00  0.00    -0.388 OA
ATOM     23  H   LIG A   1     -10.946   1.770 130.642  0.00  0.00    +0.210 HD
ENDBRANCH   9  22
TORSDOF 3
ENDMDL
