MODEL 1
REMARK VINA RESULT:      -7.7      0.000      0.000
REMARK  Name = NuBBE_1717
REMARK  8 active torsions:
REMARK  status: ('A' for Active; 'I' for Inactive)
REMARK    1  A    between atoms: C_1  and  C_2
REMARK    2  A    between atoms: C_7  and  C_9
REMARK    3  A    between atoms: C_9  and  O_11
REMARK    4  A    between atoms: O_11  and  C_12
REMARK    5  A    between atoms: C_19  and  O_32
REMARK    6  A    between atoms: C_21  and  O_31
REMARK    7  A    between atoms: C_25  and  C_26
REMARK    8  A    between atoms: C_25  and  C_27
REMARK                            x       y       z     vdW  Elec       q    Type
REMARK                         _______ _______ _______ _____ _____    ______ ____
ROOT
ATOM      1  C   LIG A   1      -6.166  -2.970 124.698  0.00  0.00    +0.012 C 
ATOM      2  C   LIG A   1      -7.185  -2.420 125.746  0.00  0.00    -0.023 C 
ATOM      3  C   LIG A   1      -7.617  -0.965 125.360  0.00  0.00    +0.009 C 
ATOM      4  C   LIG A   1      -6.387   0.018 125.248  0.00  0.00    +0.042 C 
ATOM      5  C   LIG A   1      -6.831   1.519 125.197  0.00  0.00    +0.137 C 
ATOM      6  C   LIG A   1      -7.876   1.660 124.130  0.00  0.00    +0.008 A 
ATOM      7  C   LIG A   1      -8.612   0.586 123.681  0.00  0.00    +0.109 A 
ATOM      8  C   LIG A   1      -8.518  -0.839 124.089  0.00  0.00    +0.079 C 
ATOM      9  O   LIG A   1      -9.481   0.956 122.711  0.00  0.00    -0.468 OA
ATOM     10  C   LIG A   1      -9.305   2.295 122.539  0.00  0.00    +0.195 A 
ATOM     11  C   LIG A   1      -8.324   2.774 123.383  0.00  0.00    +0.045 A 
ATOM     12  C   LIG A   1      -5.247  -0.296 126.224  0.00  0.00    +0.148 C 
ATOM     13  C   LIG A   1      -5.690  -1.082 127.456  0.00  0.00    +0.147 C 
ATOM     14  C   LIG A   1      -6.505  -2.388 127.190  0.00  0.00    +0.032 C 
ATOM     15  C   LIG A   1      -7.446  -2.720 128.440  0.00  0.00    -0.029 C 
ATOM     16  C   LIG A   1      -6.584  -3.265 129.608  0.00  0.00    +0.011 C 
ATOM     17  C   LIG A   1      -8.230  -1.508 129.004  0.00  0.00    +0.011 C 
ATOM     18  C   LIG A   1      -8.470  -3.819 128.091  0.00  0.00    +0.007 C 
ATOM     19  C   LIG A   1      -9.281  -3.463 126.859  0.00  0.00    +0.001 C 
ATOM     20  C   LIG A   1      -8.357  -3.441 125.663  0.00  0.00    +0.007 C 
ENDROOT
BRANCH   5  21
ATOM     21  C   LIG A   1      -7.390   2.048 126.517  0.00  0.00    +0.315 C 
ATOM     22  O   LIG A   1      -8.539   1.868 126.919  0.00  0.00    -0.250 OA
BRANCH  21  23
ATOM     23  O   LIG A   1      -6.472   2.839 127.141  0.00  0.00    -0.468 OA
ATOM     24  C   LIG A   1      -6.182   4.068 126.474  0.00  0.00    +0.280 C 
ENDBRANCH  21  23
ENDBRANCH   5  21
BRANCH  13  25
ATOM     25  O   LIG A   1      -4.508  -1.374 128.220  0.00  0.00    -0.389 OA
ATOM     26  H   LIG A   1      -4.712  -2.115 128.819  0.00  0.00    +0.210 HD
ENDBRANCH  13  25
BRANCH  12  27
ATOM     27  O   LIG A   1      -4.582   0.901 126.635  0.00  0.00    -0.389 OA
ATOM     28  H   LIG A   1      -5.166   1.318 127.301  0.00  0.00    +0.210 HD
ENDBRANCH  12  27
TORSDOF 4
ENDMDL
MODEL 2
REMARK VINA RESULT:      -7.3      2.077      4.662
REMARK  Name = NuBBE_1717
REMARK  8 active torsions:
REMARK  status: ('A' for Active; 'I' for Inactive)
REMARK    1  A    between atoms: C_1  and  C_2
REMARK    2  A    between atoms: C_7  and  C_9
REMARK    3  A    between atoms: C_9  and  O_11
REMARK    4  A    between atoms: O_11  and  C_12
REMARK    5  A    between atoms: C_19  and  O_32
REMARK    6  A    between atoms: C_21  and  O_31
REMARK    7  A    between atoms: C_25  and  C_26
REMARK    8  A    between atoms: C_25  and  C_27
REMARK                            x       y       z     vdW  Elec       q    Type
REMARK                         _______ _______ _______ _____ _____    ______ ____
ROOT
ATOM      1  C   LIG A   1      -7.883  -0.725 127.489  0.00  0.00    +0.012 C 
ATOM      2  C   LIG A   1      -7.238  -0.897 126.077  0.00  0.00    -0.023 C 
ATOM      3  C   LIG A   1      -6.454   0.400 125.685  0.00  0.00    +0.009 C 
ATOM      4  C   LIG A   1      -7.371   1.686 125.697  0.00  0.00    +0.042 C 
ATOM      5  C   LIG A   1      -6.690   2.907 124.993  0.00  0.00    +0.137 C 
ATOM      6  C   LIG A   1      -5.319   3.079 125.580  0.00  0.00    +0.008 A 
ATOM      7  C   LIG A   1      -4.666   2.052 126.224  0.00  0.00    +0.109 A 
ATOM      8  C   LIG A   1      -5.144   0.673 126.494  0.00  0.00    +0.079 C 
ATOM      9  O   LIG A   1      -3.454   2.449 126.678  0.00  0.00    -0.468 OA
ATOM     10  C   LIG A   1      -3.323   3.754 126.312  0.00  0.00    +0.195 A 
ATOM     11  C   LIG A   1      -4.447   4.190 125.640  0.00  0.00    +0.045 A 
ATOM     12  C   LIG A   1      -8.823   1.418 125.287  0.00  0.00    +0.148 C 
ATOM     13  C   LIG A   1      -9.001   0.166 124.430  0.00  0.00    +0.147 C 
ATOM     14  C   LIG A   1      -8.381  -1.153 124.992  0.00  0.00    +0.032 C 
ATOM     15  C   LIG A   1      -8.032  -2.156 123.796  0.00  0.00    -0.029 C 
ATOM     16  C   LIG A   1      -9.340  -2.778 123.242  0.00  0.00    +0.011 C 
ATOM     17  C   LIG A   1      -7.313  -1.503 122.589  0.00  0.00    +0.011 C 
ATOM     18  C   LIG A   1      -7.155  -3.326 124.287  0.00  0.00    +0.007 C 
ATOM     19  C   LIG A   1      -5.903  -2.835 124.989  0.00  0.00    +0.001 C 
ATOM     20  C   LIG A   1      -6.309  -2.132 126.264  0.00  0.00    +0.007 C 
ENDROOT
BRANCH   5  21
ATOM     21  C   LIG A   1      -6.568   2.762 123.476  0.00  0.00    +0.315 C 
ATOM     22  O   LIG A   1      -6.480   1.692 122.874  0.00  0.00    -0.250 OA
BRANCH  21  23
ATOM     23  O   LIG A   1      -6.463   3.986 122.887  0.00  0.00    -0.468 OA
ATOM     24  C   LIG A   1      -5.651   4.024 121.713  0.00  0.00    +0.280 C 
ENDBRANCH  21  23
ENDBRANCH   5  21
BRANCH  13  25
ATOM     25  O   LIG A   1     -10.412   0.003 124.206  0.00  0.00    -0.389 OA
ATOM     26  H   LIG A   1     -10.774  -0.528 124.938  0.00  0.00    +0.210 HD
ENDBRANCH  13  25
BRANCH  12  27
ATOM     27  O   LIG A   1      -9.378   2.545 124.605  0.00  0.00    -0.389 OA
ATOM     28  H   LIG A   1     -10.109   2.869 125.170  0.00  0.00    +0.210 HD
ENDBRANCH  12  27
TORSDOF 4
ENDMDL
MODEL 3
REMARK VINA RESULT:      -7.0      6.211      8.995
REMARK  Name = NuBBE_1717
REMARK  8 active torsions:
REMARK  status: ('A' for Active; 'I' for Inactive)
REMARK    1  A    between atoms: C_1  and  C_2
REMARK    2  A    between atoms: C_7  and  C_9
REMARK    3  A    between atoms: C_9  and  O_11
REMARK    4  A    between atoms: O_11  and  C_12
REMARK    5  A    between atoms: C_19  and  O_32
REMARK    6  A    between atoms: C_21  and  O_31
REMARK    7  A    between atoms: C_25  and  C_26
REMARK    8  A    between atoms: C_25  and  C_27
REMARK                            x       y       z     vdW  Elec       q    Type
REMARK                         _______ _______ _______ _____ _____    ______ ____
ROOT
ATOM      1  C   LIG A   1      -8.003   5.371 134.220  0.00  0.00    +0.012 C 
ATOM      2  C   LIG A   1      -7.836   4.384 133.021  0.00  0.00    -0.023 C 
ATOM      3  C   LIG A   1      -6.377   4.469 132.457  0.00  0.00    +0.009 C 
ATOM      4  C   LIG A   1      -5.992   5.930 132.000  0.00  0.00    +0.042 C 
ATOM      5  C   LIG A   1      -4.684   5.956 131.140  0.00  0.00    +0.137 C 
ATOM      6  C   LIG A   1      -3.620   5.206 131.886  0.00  0.00    +0.008 A 
ATOM      7  C   LIG A   1      -3.924   4.284 132.863  0.00  0.00    +0.109 A 
ATOM      8  C   LIG A   1      -5.257   3.887 133.381  0.00  0.00    +0.079 C 
ATOM      9  O   LIG A   1      -2.803   3.749 133.400  0.00  0.00    -0.468 OA
ATOM     10  C   LIG A   1      -1.758   4.333 132.749  0.00  0.00    +0.195 A 
ATOM     11  C   LIG A   1      -2.208   5.242 131.814  0.00  0.00    +0.045 A 
ATOM     12  C   LIG A   1      -7.167   6.735 131.433  0.00  0.00    +0.148 C 
ATOM     13  C   LIG A   1      -8.304   5.869 130.894  0.00  0.00    +0.147 C 
ATOM     14  C   LIG A   1      -8.859   4.773 131.858  0.00  0.00    +0.032 C 
ATOM     15  C   LIG A   1      -9.495   3.567 131.023  0.00  0.00    -0.029 C 
ATOM     16  C   LIG A   1     -10.857   4.009 130.429  0.00  0.00    +0.011 C 
ATOM     17  C   LIG A   1      -8.637   3.079 129.829  0.00  0.00    +0.011 C 
ATOM     18  C   LIG A   1      -9.776   2.349 131.926  0.00  0.00    +0.007 C 
ATOM     19  C   LIG A   1      -8.537   1.911 132.683  0.00  0.00    +0.001 C 
ATOM     20  C   LIG A   1      -8.158   3.002 133.659  0.00  0.00    +0.007 C 
ENDROOT
BRANCH   5  21
ATOM     21  C   LIG A   1      -4.843   5.346 129.747  0.00  0.00    +0.315 C 
ATOM     22  O   LIG A   1      -4.890   4.140 129.507  0.00  0.00    -0.250 OA
BRANCH  21  23
ATOM     23  O   LIG A   1      -4.816   6.319 128.794  0.00  0.00    -0.468 OA
ATOM     24  C   LIG A   1      -3.530   6.889 128.549  0.00  0.00    +0.280 C 
ENDBRANCH  21  23
ENDBRANCH   5  21
BRANCH  13  25
ATOM     25  O   LIG A   1      -9.357   6.758 130.485  0.00  0.00    -0.389 OA
ATOM     26  H   LIG A   1      -8.987   7.658 130.431  0.00  0.00    +0.210 HD
ENDBRANCH  13  25
BRANCH  12  27
ATOM     27  O   LIG A   1      -6.726   7.632 130.411  0.00  0.00    -0.389 OA
ATOM     28  H   LIG A   1      -7.496   7.770 129.823  0.00  0.00    +0.210 HD
ENDBRANCH  12  27
TORSDOF 4
ENDMDL
MODEL 4
REMARK VINA RESULT:      -7.0      4.265      7.877
REMARK  Name = NuBBE_1717
REMARK  8 active torsions:
REMARK  status: ('A' for Active; 'I' for Inactive)
REMARK    1  A    between atoms: C_1  and  C_2
REMARK    2  A    between atoms: C_7  and  C_9
REMARK    3  A    between atoms: C_9  and  O_11
REMARK    4  A    between atoms: O_11  and  C_12
REMARK    5  A    between atoms: C_19  and  O_32
REMARK    6  A    between atoms: C_21  and  O_31
REMARK    7  A    between atoms: C_25  and  C_26
REMARK    8  A    between atoms: C_25  and  C_27
REMARK                            x       y       z     vdW  Elec       q    Type
REMARK                         _______ _______ _______ _____ _____    ______ ____
ROOT
ATOM      1  C   LIG A   1      -3.926   4.586 131.808  0.00  0.00    +0.012 C 
ATOM      2  C   LIG A   1      -4.317   5.030 130.363  0.00  0.00    -0.023 C 
ATOM      3  C   LIG A   1      -5.876   5.081 130.222  0.00  0.00    +0.009 C 
ATOM      4  C   LIG A   1      -6.556   3.695 130.553  0.00  0.00    +0.042 C 
ATOM      5  C   LIG A   1      -8.053   3.645 130.096  0.00  0.00    +0.137 C 
ATOM      6  C   LIG A   1      -8.747   4.859 130.641  0.00  0.00    +0.008 A 
ATOM      7  C   LIG A   1      -8.057   5.989 131.018  0.00  0.00    +0.109 A 
ATOM      8  C   LIG A   1      -6.592   6.227 131.008  0.00  0.00    +0.079 C 
ATOM      9  O   LIG A   1      -8.895   6.942 131.488  0.00  0.00    -0.468 OA
ATOM     10  C   LIG A   1     -10.148   6.417 131.405  0.00  0.00    +0.195 A 
ATOM     11  C   LIG A   1     -10.111   5.135 130.897  0.00  0.00    +0.045 A 
ATOM     12  C   LIG A   1      -5.710   2.478 130.165  0.00  0.00    +0.148 C 
ATOM     13  C   LIG A   1      -4.685   2.763 129.069  0.00  0.00    +0.147 C 
ATOM     14  C   LIG A   1      -3.740   3.984 129.304  0.00  0.00    +0.032 C 
ATOM     15  C   LIG A   1      -3.235   4.574 127.905  0.00  0.00    -0.029 C 
ATOM     16  C   LIG A   1      -2.175   3.623 127.293  0.00  0.00    +0.011 C 
ATOM     17  C   LIG A   1      -4.342   4.742 126.834  0.00  0.00    +0.011 C 
ATOM     18  C   LIG A   1      -2.552   5.944 128.091  0.00  0.00    +0.007 C 
ATOM     19  C   LIG A   1      -3.449   6.926 128.822  0.00  0.00    +0.001 C 
ATOM     20  C   LIG A   1      -3.653   6.432 130.236  0.00  0.00    +0.007 C 
ENDROOT
BRANCH   5  21
ATOM     21  C   LIG A   1      -8.239   3.601 128.580  0.00  0.00    +0.315 C 
ATOM     22  O   LIG A   1      -8.104   4.564 127.825  0.00  0.00    -0.250 OA
BRANCH  21  23
ATOM     23  O   LIG A   1      -8.681   2.373 128.189  0.00  0.00    -0.468 OA
ATOM     24  C   LIG A   1      -8.243   1.957 126.895  0.00  0.00    +0.280 C 
ENDBRANCH  21  23
ENDBRANCH   5  21
BRANCH  13  25
ATOM     25  O   LIG A   1      -3.918   1.562 128.881  0.00  0.00    -0.389 OA
ATOM     26  H   LIG A   1      -3.073   1.668 129.353  0.00  0.00    +0.210 HD
ENDBRANCH  13  25
BRANCH  12  27
ATOM     27  O   LIG A   1      -6.541   1.384 129.768  0.00  0.00    -0.389 OA
ATOM     28  H   LIG A   1      -6.832   0.952 130.597  0.00  0.00    +0.210 HD
ENDBRANCH  12  27
TORSDOF 4
ENDMDL
MODEL 5
REMARK VINA RESULT:      -6.8      1.743      2.345
REMARK  Name = NuBBE_1717
REMARK  8 active torsions:
REMARK  status: ('A' for Active; 'I' for Inactive)
REMARK    1  A    between atoms: C_1  and  C_2
REMARK    2  A    between atoms: C_7  and  C_9
REMARK    3  A    between atoms: C_9  and  O_11
REMARK    4  A    between atoms: O_11  and  C_12
REMARK    5  A    between atoms: C_19  and  O_32
REMARK    6  A    between atoms: C_21  and  O_31
REMARK    7  A    between atoms: C_25  and  C_26
REMARK    8  A    between atoms: C_25  and  C_27
REMARK                            x       y       z     vdW  Elec       q    Type
REMARK                         _______ _______ _______ _____ _____    ______ ____
ROOT
ATOM      1  C   LIG A   1      -5.262  -2.249 124.070  0.00  0.00    +0.012 C 
ATOM      2  C   LIG A   1      -6.743  -1.838 124.344  0.00  0.00    -0.023 C 
ATOM      3  C   LIG A   1      -6.872  -0.277 124.354  0.00  0.00    +0.009 C 
ATOM      4  C   LIG A   1      -5.926   0.399 125.421  0.00  0.00    +0.042 C 
ATOM      5  C   LIG A   1      -6.289   1.902 125.667  0.00  0.00    +0.137 C 
ATOM      6  C   LIG A   1      -6.362   2.588 124.334  0.00  0.00    +0.008 A 
ATOM      7  C   LIG A   1      -6.563   1.891 123.163  0.00  0.00    +0.109 A 
ATOM      8  C   LIG A   1      -6.700   0.426 122.968  0.00  0.00    +0.079 C 
ATOM      9  O   LIG A   1      -6.579   2.721 122.095  0.00  0.00    -0.468 OA
ATOM     10  C   LIG A   1      -6.393   3.976 122.589  0.00  0.00    +0.195 A 
ATOM     11  C   LIG A   1      -6.247   3.948 123.961  0.00  0.00    +0.045 A 
ATOM     12  C   LIG A   1      -5.714  -0.440 126.686  0.00  0.00    +0.148 C 
ATOM     13  C   LIG A   1      -6.830  -1.449 126.951  0.00  0.00    +0.147 C 
ATOM     14  C   LIG A   1      -7.201  -2.399 125.768  0.00  0.00    +0.032 C 
ATOM     15  C   LIG A   1      -8.719  -2.884 125.899  0.00  0.00    -0.029 C 
ATOM     16  C   LIG A   1      -8.832  -3.934 127.033  0.00  0.00    +0.011 C 
ATOM     17  C   LIG A   1      -9.732  -1.762 126.240  0.00  0.00    +0.011 C 
ATOM     18  C   LIG A   1      -9.200  -3.571 124.605  0.00  0.00    +0.007 C 
ATOM     19  C   LIG A   1      -8.999  -2.686 123.389  0.00  0.00    +0.001 C 
ATOM     20  C   LIG A   1      -7.515  -2.502 123.167  0.00  0.00    +0.007 C 
ENDROOT
BRANCH   5  21
ATOM     21  C   LIG A   1      -7.608   2.111 126.409  0.00  0.00    +0.315 C 
ATOM     22  O   LIG A   1      -8.725   2.049 125.894  0.00  0.00    -0.250 OA
BRANCH  21  23
ATOM     23  O   LIG A   1      -7.376   2.480 127.700  0.00  0.00    -0.468 OA
ATOM     24  C   LIG A   1      -8.428   2.171 128.615  0.00  0.00    +0.280 C 
ENDBRANCH  21  23
ENDBRANCH   5  21
BRANCH  13  25
ATOM     25  O   LIG A   1      -6.447  -2.212 128.107  0.00  0.00    -0.389 OA
ATOM     26  H   LIG A   1      -5.503  -2.042 128.280  0.00  0.00    +0.210 HD
ENDBRANCH  13  25
BRANCH  12  27
ATOM     27  O   LIG A   1      -5.547   0.397 127.833  0.00  0.00    -0.389 OA
ATOM     28  H   LIG A   1      -6.446   0.693 128.084  0.00  0.00    +0.210 HD
ENDBRANCH  12  27
TORSDOF 4
ENDMDL
MODEL 6
REMARK VINA RESULT:      -6.7      2.743      5.879
REMARK  Name = NuBBE_1717
REMARK  8 active torsions:
REMARK  status: ('A' for Active; 'I' for Inactive)
REMARK    1  A    between atoms: C_1  and  C_2
REMARK    2  A    between atoms: C_7  and  C_9
REMARK    3  A    between atoms: C_9  and  O_11
REMARK    4  A    between atoms: O_11  and  C_12
REMARK    5  A    between atoms: C_19  and  O_32
REMARK    6  A    between atoms: C_21  and  O_31
REMARK    7  A    between atoms: C_25  and  C_26
REMARK    8  A    between atoms: C_25  and  C_27
REMARK                            x       y       z     vdW  Elec       q    Type
REMARK                         _______ _______ _______ _____ _____    ______ ____
ROOT
ATOM      1  C   LIG A   1      -5.953   5.017 125.506  0.00  0.00    +0.012 C 
ATOM      2  C   LIG A   1      -5.276   3.948 126.421  0.00  0.00    -0.023 C 
ATOM      3  C   LIG A   1      -6.160   2.657 126.480  0.00  0.00    +0.009 C 
ATOM      4  C   LIG A   1      -7.622   2.951 126.998  0.00  0.00    +0.042 C 
ATOM      5  C   LIG A   1      -8.392   1.641 127.374  0.00  0.00    +0.137 C 
ATOM      6  C   LIG A   1      -8.290   0.691 126.216  0.00  0.00    +0.008 A 
ATOM      7  C   LIG A   1      -7.297   0.799 125.267  0.00  0.00    +0.109 A 
ATOM      8  C   LIG A   1      -6.220   1.815 125.163  0.00  0.00    +0.079 C 
ATOM      9  O   LIG A   1      -7.419  -0.158 124.318  0.00  0.00    -0.468 OA
ATOM     10  C   LIG A   1      -8.506  -0.900 124.668  0.00  0.00    +0.195 A 
ATOM     11  C   LIG A   1      -9.081  -0.414 125.824  0.00  0.00    +0.045 A 
ATOM     12  C   LIG A   1      -7.700   4.079 128.033  0.00  0.00    +0.148 C 
ATOM     13  C   LIG A   1      -6.391   4.322 128.780  0.00  0.00    +0.147 C 
ATOM     14  C   LIG A   1      -5.118   4.529 127.900  0.00  0.00    +0.032 C 
ATOM     15  C   LIG A   1      -3.806   4.102 128.708  0.00  0.00    -0.029 C 
ATOM     16  C   LIG A   1      -3.480   5.178 129.776  0.00  0.00    +0.011 C 
ATOM     17  C   LIG A   1      -3.921   2.755 129.467  0.00  0.00    +0.011 C 
ATOM     18  C   LIG A   1      -2.580   4.012 127.777  0.00  0.00    +0.007 C 
ATOM     19  C   LIG A   1      -2.835   3.092 126.598  0.00  0.00    +0.001 C 
ATOM     20  C   LIG A   1      -3.904   3.711 125.726  0.00  0.00    +0.007 C 
ENDROOT
BRANCH   5  21
ATOM     21  C   LIG A   1      -7.868   0.951 128.633  0.00  0.00    +0.315 C 
ATOM     22  O   LIG A   1      -6.916   0.172 128.666  0.00  0.00    -0.250 OA
BRANCH  21  23
ATOM     23  O   LIG A   1      -8.669   1.232 129.699  0.00  0.00    -0.468 OA
ATOM     24  C   LIG A   1      -8.333   0.546 130.905  0.00  0.00    +0.280 C 
ENDBRANCH  21  23
ENDBRANCH   5  21
BRANCH  13  25
ATOM     25  O   LIG A   1      -6.597   5.455 129.640  0.00  0.00    -0.389 OA
ATOM     26  H   LIG A   1      -6.792   6.227 129.079  0.00  0.00    +0.210 HD
ENDBRANCH  13  25
BRANCH  12  27
ATOM     27  O   LIG A   1      -8.749   3.835 128.974  0.00  0.00    -0.389 OA
ATOM     28  H   LIG A   1      -8.479   3.040 129.478  0.00  0.00    +0.210 HD
ENDBRANCH  12  27
TORSDOF 4
ENDMDL
MODEL 7
REMARK VINA RESULT:      -6.6      1.978      3.213
REMARK  Name = NuBBE_1717
REMARK  8 active torsions:
REMARK  status: ('A' for Active; 'I' for Inactive)
REMARK    1  A    between atoms: C_1  and  C_2
REMARK    2  A    between atoms: C_7  and  C_9
REMARK    3  A    between atoms: C_9  and  O_11
REMARK    4  A    between atoms: O_11  and  C_12
REMARK    5  A    between atoms: C_19  and  O_32
REMARK    6  A    between atoms: C_21  and  O_31
REMARK    7  A    between atoms: C_25  and  C_26
REMARK    8  A    between atoms: C_25  and  C_27
REMARK                            x       y       z     vdW  Elec       q    Type
REMARK                         _______ _______ _______ _____ _____    ______ ____
ROOT
ATOM      1  C   LIG A   1      -5.050  -2.709 127.956  0.00  0.00    +0.012 C 
ATOM      2  C   LIG A   1      -6.341  -1.905 128.312  0.00  0.00    -0.023 C 
ATOM      3  C   LIG A   1      -7.209  -1.690 127.026  0.00  0.00    +0.009 C 
ATOM      4  C   LIG A   1      -6.417  -0.943 125.883  0.00  0.00    +0.042 C 
ATOM      5  C   LIG A   1      -7.361  -0.434 124.743  0.00  0.00    +0.137 C 
ATOM      6  C   LIG A   1      -8.218  -1.583 124.299  0.00  0.00    +0.008 A 
ATOM      7  C   LIG A   1      -8.441  -2.681 125.099  0.00  0.00    +0.109 A 
ATOM      8  C   LIG A   1      -7.897  -2.970 126.450  0.00  0.00    +0.079 C 
ATOM      9  O   LIG A   1      -9.232  -3.588 124.480  0.00  0.00    -0.468 OA
ATOM     10  C   LIG A   1      -9.530  -3.058 123.261  0.00  0.00    +0.195 A 
ATOM     11  C   LIG A   1      -8.925  -1.829 123.098  0.00  0.00    +0.045 A 
ATOM     12  C   LIG A   1      -5.397   0.079 126.397  0.00  0.00    +0.148 C 
ATOM     13  C   LIG A   1      -5.701   0.600 127.800  0.00  0.00    +0.147 C 
ATOM     14  C   LIG A   1      -5.939  -0.478 128.904  0.00  0.00    +0.032 C 
ATOM     15  C   LIG A   1      -6.868   0.111 130.065  0.00  0.00    -0.029 C 
ATOM     16  C   LIG A   1      -6.049   1.100 130.934  0.00  0.00    +0.011 C 
ATOM     17  C   LIG A   1      -8.111   0.891 129.570  0.00  0.00    +0.011 C 
ATOM     18  C   LIG A   1      -7.361  -1.007 131.006  0.00  0.00    +0.007 C 
ATOM     19  C   LIG A   1      -8.056  -2.119 130.244  0.00  0.00    +0.001 C 
ATOM     20  C   LIG A   1      -7.038  -2.812 129.367  0.00  0.00    +0.007 C 
ENDROOT
BRANCH   5  21
ATOM     21  C   LIG A   1      -8.262   0.731 125.155  0.00  0.00    +0.315 C 
ATOM     22  O   LIG A   1      -9.219   0.644 125.924  0.00  0.00    -0.250 OA
BRANCH  21  23
ATOM     23  O   LIG A   1      -7.925   1.860 124.470  0.00  0.00    -0.468 OA
ATOM     24  C   LIG A   1      -8.289   3.084 125.108  0.00  0.00    +0.280 C 
ENDBRANCH  21  23
ENDBRANCH   5  21
BRANCH  13  25
ATOM     25  O   LIG A   1      -4.619   1.471 128.172  0.00  0.00    -0.389 OA
ATOM     26  H   LIG A   1      -4.116   1.688 127.366  0.00  0.00    +0.210 HD
ENDBRANCH  13  25
BRANCH  12  27
ATOM     27  O   LIG A   1      -5.279   1.181 125.494  0.00  0.00    -0.389 OA
ATOM     28  H   LIG A   1      -4.519   0.973 124.913  0.00  0.00    +0.210 HD
ENDBRANCH  12  27
TORSDOF 4
ENDMDL
MODEL 8
REMARK VINA RESULT:      -6.5      1.532      1.879
REMARK  Name = NuBBE_1717
REMARK  8 active torsions:
REMARK  status: ('A' for Active; 'I' for Inactive)
REMARK    1  A    between atoms: C_1  and  C_2
REMARK    2  A    between atoms: C_7  and  C_9
REMARK    3  A    between atoms: C_9  and  O_11
REMARK    4  A    between atoms: O_11  and  C_12
REMARK    5  A    between atoms: C_19  and  O_32
REMARK    6  A    between atoms: C_21  and  O_31
REMARK    7  A    between atoms: C_25  and  C_26
REMARK    8  A    between atoms: C_25  and  C_27
REMARK                            x       y       z     vdW  Elec       q    Type
REMARK                         _______ _______ _______ _____ _____    ______ ____
ROOT
ATOM      1  C   LIG A   1      -5.579  -2.249 126.612  0.00  0.00    +0.012 C 
ATOM      2  C   LIG A   1      -6.664  -1.707 127.596  0.00  0.00    -0.023 C 
ATOM      3  C   LIG A   1      -7.482  -0.561 126.911  0.00  0.00    +0.009 C 
ATOM      4  C   LIG A   1      -6.564   0.628 126.426  0.00  0.00    +0.042 C 
ATOM      5  C   LIG A   1      -7.393   1.903 126.053  0.00  0.00    +0.137 C 
ATOM      6  C   LIG A   1      -8.480   1.491 125.104  0.00  0.00    +0.008 A 
ATOM      7  C   LIG A   1      -8.921   0.190 125.018  0.00  0.00    +0.109 A 
ATOM      8  C   LIG A   1      -8.435  -1.005 125.753  0.00  0.00    +0.079 C 
ATOM      9  O   LIG A   1      -9.895   0.061 124.088  0.00  0.00    -0.468 OA
ATOM     10  C   LIG A   1     -10.089   1.306 123.571  0.00  0.00    +0.195 A 
ATOM     11  C   LIG A   1      -9.238   2.220 124.158  0.00  0.00    +0.045 A 
ATOM     12  C   LIG A   1      -5.344   0.877 127.319  0.00  0.00    +0.148 C 
ATOM     13  C   LIG A   1      -5.511   0.365 128.749  0.00  0.00    +0.147 C 
ATOM     14  C   LIG A   1      -5.960  -1.123 128.905  0.00  0.00    +0.032 C 
ATOM     15  C   LIG A   1      -6.727  -1.330 130.292  0.00  0.00    -0.029 C 
ATOM     16  C   LIG A   1      -5.706  -1.313 131.458  0.00  0.00    +0.011 C 
ATOM     17  C   LIG A   1      -7.782  -0.243 130.620  0.00  0.00    +0.011 C 
ATOM     18  C   LIG A   1      -7.436  -2.699 130.340  0.00  0.00    +0.007 C 
ATOM     19  C   LIG A   1      -8.361  -2.896 129.154  0.00  0.00    +0.001 C 
ATOM     20  C   LIG A   1      -7.525  -2.968 127.897  0.00  0.00    +0.007 C 
ENDROOT
BRANCH   5  21
ATOM     21  C   LIG A   1      -8.019   2.612 127.254  0.00  0.00    +0.315 C 
ATOM     22  O   LIG A   1      -8.959   2.176 127.918  0.00  0.00    -0.250 OA
BRANCH  21  23
ATOM     23  O   LIG A   1      -7.464   3.844 127.424  0.00  0.00    -0.468 OA
ATOM     24  C   LIG A   1      -7.548   4.706 126.288  0.00  0.00    +0.280 C 
ENDBRANCH  21  23
ENDBRANCH   5  21
BRANCH  13  25
ATOM     25  O   LIG A   1      -4.265   0.588 129.428  0.00  0.00    -0.389 OA
ATOM     26  H   LIG A   1      -3.569   0.690 128.754  0.00  0.00    +0.210 HD
ENDBRANCH  13  25
BRANCH  12  27
ATOM     27  O   LIG A   1      -5.005   2.266 127.347  0.00  0.00    -0.389 OA
ATOM     28  H   LIG A   1      -5.420   2.660 126.553  0.00  0.00    +0.210 HD
ENDBRANCH  12  27
TORSDOF 4
ENDMDL
MODEL 9
REMARK VINA RESULT:      -6.5      4.839      6.685
REMARK  Name = NuBBE_1717
REMARK  8 active torsions:
REMARK  status: ('A' for Active; 'I' for Inactive)
REMARK    1  A    between atoms: C_1  and  C_2
REMARK    2  A    between atoms: C_7  and  C_9
REMARK    3  A    between atoms: C_9  and  O_11
REMARK    4  A    between atoms: O_11  and  C_12
REMARK    5  A    between atoms: C_19  and  O_32
REMARK    6  A    between atoms: C_21  and  O_31
REMARK    7  A    between atoms: C_25  and  C_26
REMARK    8  A    between atoms: C_25  and  C_27
REMARK                            x       y       z     vdW  Elec       q    Type
REMARK                         _______ _______ _______ _____ _____    ______ ____
ROOT
ATOM      1  C   LIG A   1      -8.677   2.688 129.850  0.00  0.00    +0.012 C 
ATOM      2  C   LIG A   1      -8.080   4.131 129.812  0.00  0.00    -0.023 C 
ATOM      3  C   LIG A   1      -7.155   4.295 128.559  0.00  0.00    +0.009 C 
ATOM      4  C   LIG A   1      -5.986   3.235 128.530  0.00  0.00    +0.042 C 
ATOM      5  C   LIG A   1      -4.882   3.598 127.481  0.00  0.00    +0.137 C 
ATOM      6  C   LIG A   1      -5.556   3.860 126.166  0.00  0.00    +0.008 A 
ATOM      7  C   LIG A   1      -6.890   4.194 126.082  0.00  0.00    +0.109 A 
ATOM      8  C   LIG A   1      -7.885   4.321 127.176  0.00  0.00    +0.079 C 
ATOM      9  O   LIG A   1      -7.272   4.369 124.796  0.00  0.00    -0.468 OA
ATOM     10  C   LIG A   1      -6.161   4.151 124.040  0.00  0.00    +0.195 A 
ATOM     11  C   LIG A   1      -5.081   3.827 124.835  0.00  0.00    +0.045 A 
ATOM     12  C   LIG A   1      -5.469   2.841 129.918  0.00  0.00    +0.148 C 
ATOM     13  C   LIG A   1      -5.737   3.888 130.997  0.00  0.00    +0.147 C 
ATOM     14  C   LIG A   1      -7.211   4.387 131.128  0.00  0.00    +0.032 C 
ATOM     15  C   LIG A   1      -7.247   5.863 131.741  0.00  0.00    -0.029 C 
ATOM     16  C   LIG A   1      -6.927   5.803 133.257  0.00  0.00    +0.011 C 
ATOM     17  C   LIG A   1      -6.227   6.850 131.119  0.00  0.00    +0.011 C 
ATOM     18  C   LIG A   1      -8.648   6.491 131.605  0.00  0.00    +0.007 C 
ATOM     19  C   LIG A   1      -9.138   6.471 130.169  0.00  0.00    +0.001 C 
ATOM     20  C   LIG A   1      -9.347   5.033 129.752  0.00  0.00    +0.007 C 
ENDROOT
BRANCH   5  21
ATOM     21  C   LIG A   1      -4.039   4.816 127.862  0.00  0.00    +0.315 C 
ATOM     22  O   LIG A   1      -4.427   5.983 127.820  0.00  0.00    -0.250 OA
BRANCH  21  23
ATOM     23  O   LIG A   1      -2.762   4.439 128.151  0.00  0.00    -0.468 OA
ATOM     24  C   LIG A   1      -2.151   3.583 127.185  0.00  0.00    +0.280 C 
ENDBRANCH  21  23
ENDBRANCH   5  21
BRANCH  13  25
ATOM     25  O   LIG A   1      -5.279   3.340 132.244  0.00  0.00    -0.389 OA
ATOM     26  H   LIG A   1      -4.803   2.512 132.052  0.00  0.00    +0.210 HD
ENDBRANCH  13  25
BRANCH  12  27
ATOM     27  O   LIG A   1      -4.070   2.546 129.877  0.00  0.00    -0.389 OA
ATOM     28  H   LIG A   1      -3.613   3.369 130.149  0.00  0.00    +0.210 HD
ENDBRANCH  12  27
TORSDOF 4
ENDMDL
