MODEL 1
REMARK VINA RESULT:      -9.2      0.000      0.000
REMARK  Name = NuBBE_1149
REMARK  14 active torsions:
REMARK  status: ('A' for Active; 'I' for Inactive)
REMARK    1  A    between atoms: C_1  and  C_2
REMARK    2  A    between atoms: C_8  and  C_22
REMARK    3  A    between atoms: C_11  and  C_13
REMARK    4  A    between atoms: C_13  and  C_14
REMARK    5  A    between atoms: C_13  and  O_15
REMARK    6  A    between atoms: C_13  and  C_16
REMARK    7  A    between atoms: C_16  and  C_17
REMARK    8  A    between atoms: C_17  and  C_18
REMARK    9  A    between atoms: C_19  and  C_20
REMARK   10  A    between atoms: C_19  and  C_21
REMARK   11  A    between atoms: C_24  and  C_37
REMARK   12  A    between atoms: C_26  and  C_27
REMARK   13  A    between atoms: C_26  and  C_33
REMARK   14  A    between atoms: C_28  and  O_30
REMARK                            x       y       z     vdW  Elec       q    Type
REMARK                         _______ _______ _______ _____ _____    ______ ____
ROOT
ATOM      1  C   LIG A   1      -6.748  -0.468 126.370  0.00  0.00    +0.012 C 
ATOM      2  C   LIG A   1      -6.645  -2.016 126.264  0.00  0.00    -0.023 C 
ATOM      3  C   LIG A   1      -7.497  -2.799 127.345  0.00  0.00    +0.002 C 
ATOM      4  C   LIG A   1      -9.010  -2.898 127.010  0.00  0.00    +0.005 C 
ATOM      5  C   LIG A   1      -9.467  -2.058 125.824  0.00  0.00    +0.005 C 
ATOM      6  C   LIG A   1      -8.646  -2.316 124.568  0.00  0.00    +0.001 C 
ATOM      7  C   LIG A   1      -7.102  -2.513 124.810  0.00  0.00    -0.023 C 
ATOM      8  C   LIG A   1      -6.447  -1.778 123.613  0.00  0.00    +0.008 C 
ATOM      9  C   LIG A   1      -7.533  -1.697 122.544  0.00  0.00    +0.007 C 
ATOM     10  C   LIG A   1      -8.849  -1.417 123.302  0.00  0.00    +0.024 C 
ATOM     11  C   LIG A   1      -6.792  -4.030 124.595  0.00  0.00    +0.012 C 
ATOM     12  C   LIG A   1      -7.170  -2.450 128.857  0.00  0.00    -0.025 C 
ATOM     13  C   LIG A   1      -5.615  -2.642 129.080  0.00  0.00    +0.003 C 
ATOM     14  C   LIG A   1      -5.126  -2.427 130.563  0.00  0.00    -0.006 C 
ATOM     15  C   LIG A   1      -3.626  -2.801 130.694  0.00  0.00    +0.014 C 
ATOM     16  C   LIG A   1      -5.931  -3.397 131.479  0.00  0.00    +0.120 C 
ATOM     17  C   LIG A   1      -7.444  -3.350 131.272  0.00  0.00    +0.032 C 
ATOM     18  C   LIG A   1      -7.861  -3.483 129.806  0.00  0.00    +0.010 C 
ATOM     19  C   LIG A   1      -5.235  -0.970 131.061  0.00  0.00    +0.014 C 
ATOM     20  C   LIG A   1      -4.732  -1.972 128.003  0.00  0.00    +0.005 C 
ATOM     21  C   LIG A   1      -5.157  -2.340 126.568  0.00  0.00    +0.008 C 
ATOM     22  C   LIG A   1      -7.727  -1.050 129.207  0.00  0.00    +0.012 C 
ENDROOT
BRANCH  10  23
ATOM     23  C   LIG A   1      -9.213   0.108 123.403  0.00  0.00    +0.067 C 
ATOM     24  C   LIG A   1     -10.238   0.568 122.348  0.00  0.00    +0.041 C 
BRANCH  23  25
ATOM     25  O   LIG A   1      -9.762   0.377 124.693  0.00  0.00    -0.389 OA
ATOM     26  H   LIG A   1     -10.730   0.302 124.638  0.00  0.00    +0.210 HD
ENDBRANCH  23  25
BRANCH  23  27
ATOM     27  C   LIG A   1      -7.964   1.032 123.277  0.00  0.00    +0.039 C 
BRANCH  27  28
ATOM     28  C   LIG A   1      -8.270   2.517 123.061  0.00  0.00    +0.030 C 
BRANCH  28  29
ATOM     29  C   LIG A   1      -7.277   3.148 122.128  0.00  0.00    -0.028 C 
ATOM     30  C   LIG A   1      -7.540   3.714 120.929  0.00  0.00    -0.080 C 
ATOM     31  C   LIG A   1      -8.911   3.845 120.329  0.00  0.00    +0.038 C 
ATOM     32  C   LIG A   1      -6.433   4.296 120.093  0.00  0.00    +0.038 C 
ENDBRANCH  28  29
ENDBRANCH  27  28
ENDBRANCH  23  27
ENDBRANCH  10  23
BRANCH  16  33
ATOM     33  O   LIG A   1      -5.647  -3.130 132.854  0.00  0.00    -0.391 OA
ATOM     34  H   LIG A   1      -4.886  -2.525 132.887  0.00  0.00    +0.210 HD
ENDBRANCH  16  33
TORSDOF 6
ENDMDL
MODEL 2
REMARK VINA RESULT:      -8.9      3.913      7.738
REMARK  Name = NuBBE_1149
REMARK  14 active torsions:
REMARK  status: ('A' for Active; 'I' for Inactive)
REMARK    1  A    between atoms: C_1  and  C_2
REMARK    2  A    between atoms: C_8  and  C_22
REMARK    3  A    between atoms: C_11  and  C_13
REMARK    4  A    between atoms: C_13  and  C_14
REMARK    5  A    between atoms: C_13  and  O_15
REMARK    6  A    between atoms: C_13  and  C_16
REMARK    7  A    between atoms: C_16  and  C_17
REMARK    8  A    between atoms: C_17  and  C_18
REMARK    9  A    between atoms: C_19  and  C_20
REMARK   10  A    between atoms: C_19  and  C_21
REMARK   11  A    between atoms: C_24  and  C_37
REMARK   12  A    between atoms: C_26  and  C_27
REMARK   13  A    between atoms: C_26  and  C_33
REMARK   14  A    between atoms: C_28  and  O_30
REMARK                            x       y       z     vdW  Elec       q    Type
REMARK                         _______ _______ _______ _____ _____    ______ ____
ROOT
ATOM      1  C   LIG A   1      -7.916  -0.058 129.918  0.00  0.00    +0.012 C 
ATOM      2  C   LIG A   1      -6.765   0.842 130.452  0.00  0.00    -0.023 C 
ATOM      3  C   LIG A   1      -7.015   1.420 131.906  0.00  0.00    +0.002 C 
ATOM      4  C   LIG A   1      -6.727   0.409 133.048  0.00  0.00    +0.005 C 
ATOM      5  C   LIG A   1      -6.460  -1.021 132.597  0.00  0.00    +0.005 C 
ATOM      6  C   LIG A   1      -5.364  -1.112 131.544  0.00  0.00    +0.001 C 
ATOM      7  C   LIG A   1      -5.380   0.035 130.465  0.00  0.00    -0.023 C 
ATOM      8  C   LIG A   1      -5.017  -0.695 129.148  0.00  0.00    +0.008 C 
ATOM      9  C   LIG A   1      -4.318  -1.982 129.578  0.00  0.00    +0.007 C 
ATOM     10  C   LIG A   1      -5.078  -2.476 130.828  0.00  0.00    +0.024 C 
ATOM     11  C   LIG A   1      -4.169   0.975 130.775  0.00  0.00    +0.012 C 
ATOM     12  C   LIG A   1      -8.341   2.270 132.085  0.00  0.00    -0.025 C 
ATOM     13  C   LIG A   1      -8.346   3.410 130.988  0.00  0.00    +0.003 C 
ATOM     14  C   LIG A   1      -9.557   4.415 131.081  0.00  0.00    -0.006 C 
ATOM     15  C   LIG A   1      -9.370   5.577 130.070  0.00  0.00    +0.014 C 
ATOM     16  C   LIG A   1      -9.557   5.036 132.510  0.00  0.00    +0.120 C 
ATOM     17  C   LIG A   1      -9.462   4.013 133.642  0.00  0.00    +0.032 C 
ATOM     18  C   LIG A   1      -8.319   3.011 133.462  0.00  0.00    +0.010 C 
ATOM     19  C   LIG A   1     -10.927   3.789 130.744  0.00  0.00    +0.014 C 
ATOM     20  C   LIG A   1      -8.021   2.918 129.559  0.00  0.00    +0.005 C 
ATOM     21  C   LIG A   1      -6.738   2.066 129.498  0.00  0.00    +0.008 C 
ATOM     22  C   LIG A   1      -9.572   1.333 132.079  0.00  0.00    +0.012 C 
ENDROOT
BRANCH  10  23
ATOM     23  C   LIG A   1      -6.213  -3.515 130.514  0.00  0.00    +0.067 C 
ATOM     24  C   LIG A   1      -5.786  -4.979 130.738  0.00  0.00    +0.041 C 
BRANCH  23  25
ATOM     25  O   LIG A   1      -7.337  -3.254 131.355  0.00  0.00    -0.389 OA
ATOM     26  H   LIG A   1      -7.298  -2.326 131.643  0.00  0.00    +0.210 HD
ENDBRANCH  23  25
BRANCH  23  27
ATOM     27  C   LIG A   1      -6.745  -3.399 129.054  0.00  0.00    +0.039 C 
BRANCH  27  28
ATOM     28  C   LIG A   1      -8.270  -3.355 128.917  0.00  0.00    +0.030 C 
BRANCH  28  29
ATOM     29  C   LIG A   1      -8.699  -3.646 127.507  0.00  0.00    -0.028 C 
ATOM     30  C   LIG A   1      -8.734  -2.774 126.476  0.00  0.00    -0.080 C 
ATOM     31  C   LIG A   1      -8.301  -1.337 126.557  0.00  0.00    +0.038 C 
ATOM     32  C   LIG A   1      -9.205  -3.210 125.115  0.00  0.00    +0.038 C 
ENDBRANCH  28  29
ENDBRANCH  27  28
ENDBRANCH  23  27
ENDBRANCH  10  23
BRANCH  16  33
ATOM     33  O   LIG A   1     -10.729   5.830 132.705  0.00  0.00    -0.391 OA
ATOM     34  H   LIG A   1     -10.589   6.680 132.256  0.00  0.00    +0.210 HD
ENDBRANCH  16  33
TORSDOF 6
ENDMDL
MODEL 3
REMARK VINA RESULT:      -8.8      2.811      7.492
REMARK  Name = NuBBE_1149
REMARK  14 active torsions:
REMARK  status: ('A' for Active; 'I' for Inactive)
REMARK    1  A    between atoms: C_1  and  C_2
REMARK    2  A    between atoms: C_8  and  C_22
REMARK    3  A    between atoms: C_11  and  C_13
REMARK    4  A    between atoms: C_13  and  C_14
REMARK    5  A    between atoms: C_13  and  O_15
REMARK    6  A    between atoms: C_13  and  C_16
REMARK    7  A    between atoms: C_16  and  C_17
REMARK    8  A    between atoms: C_17  and  C_18
REMARK    9  A    between atoms: C_19  and  C_20
REMARK   10  A    between atoms: C_19  and  C_21
REMARK   11  A    between atoms: C_24  and  C_37
REMARK   12  A    between atoms: C_26  and  C_27
REMARK   13  A    between atoms: C_26  and  C_33
REMARK   14  A    between atoms: C_28  and  O_30
REMARK                            x       y       z     vdW  Elec       q    Type
REMARK                         _______ _______ _______ _____ _____    ______ ____
ROOT
ATOM      1  C   LIG A   1      -7.888  -1.279 129.486  0.00  0.00    +0.012 C 
ATOM      2  C   LIG A   1      -7.168  -2.629 129.204  0.00  0.00    -0.023 C 
ATOM      3  C   LIG A   1      -6.021  -2.538 128.115  0.00  0.00    +0.002 C 
ATOM      4  C   LIG A   1      -4.683  -1.961 128.651  0.00  0.00    +0.005 C 
ATOM      5  C   LIG A   1      -4.744  -1.383 130.059  0.00  0.00    +0.005 C 
ATOM      6  C   LIG A   1      -5.323  -2.361 131.073  0.00  0.00    +0.001 C 
ATOM      7  C   LIG A   1      -6.534  -3.222 130.552  0.00  0.00    -0.023 C 
ATOM      8  C   LIG A   1      -7.489  -3.287 131.770  0.00  0.00    +0.008 C 
ATOM      9  C   LIG A   1      -6.616  -2.985 132.985  0.00  0.00    +0.007 C 
ATOM     10  C   LIG A   1      -5.632  -1.884 132.532  0.00  0.00    +0.024 C 
ATOM     11  C   LIG A   1      -6.008  -4.680 130.348  0.00  0.00    +0.012 C 
ATOM     12  C   LIG A   1      -6.466  -1.984 126.697  0.00  0.00    -0.025 C 
ATOM     13  C   LIG A   1      -7.690  -2.852 126.194  0.00  0.00    +0.003 C 
ATOM     14  C   LIG A   1      -8.203  -2.498 124.746  0.00  0.00    -0.006 C 
ATOM     15  C   LIG A   1      -9.286  -3.514 124.296  0.00  0.00    +0.014 C 
ATOM     16  C   LIG A   1      -7.001  -2.630 123.764  0.00  0.00    +0.120 C 
ATOM     17  C   LIG A   1      -5.738  -1.897 124.212  0.00  0.00    +0.032 C 
ATOM     18  C   LIG A   1      -5.328  -2.216 125.651  0.00  0.00    +0.010 C 
ATOM     19  C   LIG A   1      -8.866  -1.108 124.633  0.00  0.00    +0.014 C 
ATOM     20  C   LIG A   1      -8.804  -3.051 127.246  0.00  0.00    +0.005 C 
ATOM     21  C   LIG A   1      -8.265  -3.549 128.601  0.00  0.00    +0.008 C 
ATOM     22  C   LIG A   1      -6.719  -0.460 126.782  0.00  0.00    +0.012 C 
ENDROOT
BRANCH  10  23
ATOM     23  C   LIG A   1      -6.118  -0.425 132.855  0.00  0.00    +0.067 C 
ATOM     24  C   LIG A   1      -7.255   0.062 131.937  0.00  0.00    +0.041 C 
BRANCH  23  25
ATOM     25  O   LIG A   1      -6.589  -0.373 134.201  0.00  0.00    -0.389 OA
ATOM     26  H   LIG A   1      -7.487  -0.001 134.200  0.00  0.00    +0.210 HD
ENDBRANCH  23  25
BRANCH  23  27
ATOM     27  C   LIG A   1      -4.966   0.623 132.771  0.00  0.00    +0.039 C 
BRANCH  27  28
ATOM     28  C   LIG A   1      -5.319   1.922 132.042  0.00  0.00    +0.030 C 
BRANCH  28  29
ATOM     29  C   LIG A   1      -4.415   2.148 130.863  0.00  0.00    -0.028 C 
ATOM     30  C   LIG A   1      -4.790   2.303 129.574  0.00  0.00    -0.080 C 
ATOM     31  C   LIG A   1      -6.213   2.313 129.094  0.00  0.00    +0.038 C 
ATOM     32  C   LIG A   1      -3.763   2.507 128.494  0.00  0.00    +0.038 C 
ENDBRANCH  28  29
ENDBRANCH  27  28
ENDBRANCH  23  27
ENDBRANCH  10  23
BRANCH  16  33
ATOM     33  O   LIG A   1      -7.369  -2.161 122.465  0.00  0.00    -0.391 OA
ATOM     34  H   LIG A   1      -6.770  -2.574 121.821  0.00  0.00    +0.210 HD
ENDBRANCH  16  33
TORSDOF 6
ENDMDL
MODEL 4
REMARK VINA RESULT:      -8.8      2.824      8.161
REMARK  Name = NuBBE_1149
REMARK  14 active torsions:
REMARK  status: ('A' for Active; 'I' for Inactive)
REMARK    1  A    between atoms: C_1  and  C_2
REMARK    2  A    between atoms: C_8  and  C_22
REMARK    3  A    between atoms: C_11  and  C_13
REMARK    4  A    between atoms: C_13  and  C_14
REMARK    5  A    between atoms: C_13  and  O_15
REMARK    6  A    between atoms: C_13  and  C_16
REMARK    7  A    between atoms: C_16  and  C_17
REMARK    8  A    between atoms: C_17  and  C_18
REMARK    9  A    between atoms: C_19  and  C_20
REMARK   10  A    between atoms: C_19  and  C_21
REMARK   11  A    between atoms: C_24  and  C_37
REMARK   12  A    between atoms: C_26  and  C_27
REMARK   13  A    between atoms: C_26  and  C_33
REMARK   14  A    between atoms: C_28  and  O_30
REMARK                            x       y       z     vdW  Elec       q    Type
REMARK                         _______ _______ _______ _____ _____    ______ ____
ROOT
ATOM      1  C   LIG A   1      -8.146  -1.316 129.541  0.00  0.00    +0.012 C 
ATOM      2  C   LIG A   1      -7.244  -2.548 129.248  0.00  0.00    -0.023 C 
ATOM      3  C   LIG A   1      -6.094  -2.274 128.194  0.00  0.00    +0.002 C 
ATOM      4  C   LIG A   1      -4.859  -1.537 128.780  0.00  0.00    +0.005 C 
ATOM      5  C   LIG A   1      -5.032  -1.010 130.199  0.00  0.00    +0.005 C 
ATOM      6  C   LIG A   1      -5.498  -2.084 131.173  0.00  0.00    +0.001 C 
ATOM      7  C   LIG A   1      -6.568  -3.086 130.599  0.00  0.00    -0.023 C 
ATOM      8  C   LIG A   1      -7.535  -3.312 131.788  0.00  0.00    +0.008 C 
ATOM      9  C   LIG A   1      -6.741  -2.927 133.034  0.00  0.00    +0.007 C 
ATOM     10  C   LIG A   1      -5.904  -1.692 132.634  0.00  0.00    +0.024 C 
ATOM     11  C   LIG A   1      -5.845  -4.454 130.376  0.00  0.00    +0.012 C 
ATOM     12  C   LIG A   1      -6.575  -1.748 126.777  0.00  0.00    -0.025 C 
ATOM     13  C   LIG A   1      -7.657  -2.760 126.220  0.00  0.00    +0.003 C 
ATOM     14  C   LIG A   1      -8.178  -2.439 124.767  0.00  0.00    -0.006 C 
ATOM     15  C   LIG A   1      -9.102  -3.579 124.264  0.00  0.00    +0.014 C 
ATOM     16  C   LIG A   1      -6.945  -2.382 123.816  0.00  0.00    +0.120 C 
ATOM     17  C   LIG A   1      -5.804  -1.498 124.316  0.00  0.00    +0.032 C 
ATOM     18  C   LIG A   1      -5.390  -1.797 125.758  0.00  0.00    +0.010 C 
ATOM     19  C   LIG A   1      -9.020  -1.148 124.667  0.00  0.00    +0.014 C 
ATOM     20  C   LIG A   1      -8.759  -3.134 127.236  0.00  0.00    +0.005 C 
ATOM     21  C   LIG A   1      -8.191  -3.591 128.594  0.00  0.00    +0.008 C 
ATOM     22  C   LIG A   1      -7.033  -0.275 126.890  0.00  0.00    +0.012 C 
ENDROOT
BRANCH  10  23
ATOM     23  C   LIG A   1      -6.591  -0.321 132.976  0.00  0.00    +0.067 C 
ATOM     24  C   LIG A   1      -7.983  -0.153 132.338  0.00  0.00    +0.041 C 
BRANCH  23  25
ATOM     25  O   LIG A   1      -6.742  -0.211 134.392  0.00  0.00    -0.389 OA
ATOM     26  H   LIG A   1      -7.680  -0.342 134.613  0.00  0.00    +0.210 HD
ENDBRANCH  23  25
BRANCH  23  27
ATOM     27  C   LIG A   1      -5.728   0.905 132.550  0.00  0.00    +0.039 C 
BRANCH  27  28
ATOM     28  C   LIG A   1      -6.521   2.138 132.108  0.00  0.00    +0.030 C 
BRANCH  28  29
ATOM     29  C   LIG A   1      -6.656   3.129 133.229  0.00  0.00    -0.028 C 
ATOM     30  C   LIG A   1      -7.807   3.572 133.782  0.00  0.00    -0.080 C 
ATOM     31  C   LIG A   1      -9.180   3.109 133.385  0.00  0.00    +0.038 C 
ATOM     32  C   LIG A   1      -7.786   4.585 134.895  0.00  0.00    +0.038 C 
ENDBRANCH  28  29
ENDBRANCH  27  28
ENDBRANCH  23  27
ENDBRANCH  10  23
BRANCH  16  33
ATOM     33  O   LIG A   1      -7.341  -1.932 122.519  0.00  0.00    -0.391 OA
ATOM     34  H   LIG A   1      -7.285  -2.690 121.913  0.00  0.00    +0.210 HD
ENDBRANCH  16  33
TORSDOF 6
ENDMDL
MODEL 5
REMARK VINA RESULT:      -8.7      4.238      6.561
REMARK  Name = NuBBE_1149
REMARK  14 active torsions:
REMARK  status: ('A' for Active; 'I' for Inactive)
REMARK    1  A    between atoms: C_1  and  C_2
REMARK    2  A    between atoms: C_8  and  C_22
REMARK    3  A    between atoms: C_11  and  C_13
REMARK    4  A    between atoms: C_13  and  C_14
REMARK    5  A    between atoms: C_13  and  O_15
REMARK    6  A    between atoms: C_13  and  C_16
REMARK    7  A    between atoms: C_16  and  C_17
REMARK    8  A    between atoms: C_17  and  C_18
REMARK    9  A    between atoms: C_19  and  C_20
REMARK   10  A    between atoms: C_19  and  C_21
REMARK   11  A    between atoms: C_24  and  C_37
REMARK   12  A    between atoms: C_26  and  C_27
REMARK   13  A    between atoms: C_26  and  C_33
REMARK   14  A    between atoms: C_28  and  O_30
REMARK                            x       y       z     vdW  Elec       q    Type
REMARK                         _______ _______ _______ _____ _____    ______ ____
ROOT
ATOM      1  C   LIG A   1      -8.063   1.813 128.233  0.00  0.00    +0.012 C 
ATOM      2  C   LIG A   1      -6.881   1.702 129.237  0.00  0.00    -0.023 C 
ATOM      3  C   LIG A   1      -7.325   1.550 130.750  0.00  0.00    +0.002 C 
ATOM      4  C   LIG A   1      -7.763   0.113 131.140  0.00  0.00    +0.005 C 
ATOM      5  C   LIG A   1      -7.900  -0.862 129.977  0.00  0.00    +0.005 C 
ATOM      6  C   LIG A   1      -6.650  -0.925 129.111  0.00  0.00    +0.001 C 
ATOM      7  C   LIG A   1      -5.940   0.459 128.863  0.00  0.00    -0.023 C 
ATOM      8  C   LIG A   1      -5.488   0.380 127.383  0.00  0.00    +0.008 C 
ATOM      9  C   LIG A   1      -5.450  -1.109 127.051  0.00  0.00    +0.007 C 
ATOM     10  C   LIG A   1      -6.667  -1.732 127.769  0.00  0.00    +0.024 C 
ATOM     11  C   LIG A   1      -4.624   0.458 129.708  0.00  0.00    +0.012 C 
ATOM     12  C   LIG A   1      -8.255   2.707 131.309  0.00  0.00    -0.025 C 
ATOM     13  C   LIG A   1      -7.532   4.089 131.042  0.00  0.00    +0.003 C 
ATOM     14  C   LIG A   1      -8.279   5.350 131.624  0.00  0.00    -0.006 C 
ATOM     15  C   LIG A   1      -7.404   6.620 131.450  0.00  0.00    +0.014 C 
ATOM     16  C   LIG A   1      -8.480   5.127 133.153  0.00  0.00    +0.120 C 
ATOM     17  C   LIG A   1      -9.091   3.774 133.517  0.00  0.00    +0.032 C 
ATOM     18  C   LIG A   1      -8.377   2.589 132.863  0.00  0.00    +0.010 C 
ATOM     19  C   LIG A   1      -9.618   5.671 130.926  0.00  0.00    +0.014 C 
ATOM     20  C   LIG A   1      -6.997   4.259 129.603  0.00  0.00    +0.005 C 
ATOM     21  C   LIG A   1      -6.142   3.065 129.137  0.00  0.00    +0.008 C 
ATOM     22  C   LIG A   1      -9.677   2.572 130.716  0.00  0.00    +0.012 C 
ENDROOT
BRANCH  10  23
ATOM     23  C   LIG A   1      -7.951  -1.839 126.868  0.00  0.00    +0.067 C 
ATOM     24  C   LIG A   1      -8.793  -3.098 127.145  0.00  0.00    +0.041 C 
BRANCH  23  25
ATOM     25  O   LIG A   1      -8.780  -0.699 127.094  0.00  0.00    -0.389 OA
ATOM     26  H   LIG A   1      -8.235   0.009 127.478  0.00  0.00    +0.210 HD
ENDBRANCH  23  25
BRANCH  23  27
ATOM     27  C   LIG A   1      -7.618  -1.821 125.346  0.00  0.00    +0.039 C 
BRANCH  27  28
ATOM     28  C   LIG A   1      -7.743  -3.172 124.636  0.00  0.00    +0.030 C 
BRANCH  28  29
ATOM     29  C   LIG A   1      -6.403  -3.836 124.487  0.00  0.00    -0.028 C 
ATOM     30  C   LIG A   1      -5.428  -3.500 123.614  0.00  0.00    -0.080 C 
ATOM     31  C   LIG A   1      -5.505  -2.354 122.646  0.00  0.00    +0.038 C 
ATOM     32  C   LIG A   1      -4.137  -4.272 123.570  0.00  0.00    +0.038 C 
ENDBRANCH  28  29
ENDBRANCH  27  28
ENDBRANCH  23  27
ENDBRANCH  10  23
BRANCH  16  33
ATOM     33  O   LIG A   1      -9.296   6.163 133.701  0.00  0.00    -0.391 OA
ATOM     34  H   LIG A   1      -9.393   5.991 134.653  0.00  0.00    +0.210 HD
ENDBRANCH  16  33
TORSDOF 6
ENDMDL
MODEL 6
REMARK VINA RESULT:      -8.6      2.701      4.046
REMARK  Name = NuBBE_1149
REMARK  14 active torsions:
REMARK  status: ('A' for Active; 'I' for Inactive)
REMARK    1  A    between atoms: C_1  and  C_2
REMARK    2  A    between atoms: C_8  and  C_22
REMARK    3  A    between atoms: C_11  and  C_13
REMARK    4  A    between atoms: C_13  and  C_14
REMARK    5  A    between atoms: C_13  and  O_15
REMARK    6  A    between atoms: C_13  and  C_16
REMARK    7  A    between atoms: C_16  and  C_17
REMARK    8  A    between atoms: C_17  and  C_18
REMARK    9  A    between atoms: C_19  and  C_20
REMARK   10  A    between atoms: C_19  and  C_21
REMARK   11  A    between atoms: C_24  and  C_37
REMARK   12  A    between atoms: C_26  and  C_27
REMARK   13  A    between atoms: C_26  and  C_33
REMARK   14  A    between atoms: C_28  and  O_30
REMARK                            x       y       z     vdW  Elec       q    Type
REMARK                         _______ _______ _______ _____ _____    ______ ____
ROOT
ATOM      1  C   LIG A   1      -5.383   0.424 126.297  0.00  0.00    +0.012 C 
ATOM      2  C   LIG A   1      -6.696  -0.354 126.595  0.00  0.00    -0.023 C 
ATOM      3  C   LIG A   1      -7.282  -0.107 128.046  0.00  0.00    +0.002 C 
ATOM      4  C   LIG A   1      -8.064   1.227 128.194  0.00  0.00    +0.005 C 
ATOM      5  C   LIG A   1      -7.964   2.173 127.004  0.00  0.00    +0.005 C 
ATOM      6  C   LIG A   1      -8.337   1.505 125.688  0.00  0.00    +0.001 C 
ATOM      7  C   LIG A   1      -7.829   0.023 125.525  0.00  0.00    -0.023 C 
ATOM      8  C   LIG A   1      -7.401  -0.057 124.038  0.00  0.00    +0.008 C 
ATOM      9  C   LIG A   1      -8.141   1.082 123.343  0.00  0.00    +0.007 C 
ATOM     10  C   LIG A   1      -8.120   2.265 124.336  0.00  0.00    +0.024 C 
ATOM     11  C   LIG A   1      -9.078  -0.908 125.657  0.00  0.00    +0.012 C 
ATOM     12  C   LIG A   1      -6.302  -0.443 129.246  0.00  0.00    -0.025 C 
ATOM     13  C   LIG A   1      -5.793  -1.930 129.061  0.00  0.00    +0.003 C 
ATOM     14  C   LIG A   1      -4.877  -2.467 130.226  0.00  0.00    -0.006 C 
ATOM     15  C   LIG A   1      -4.577  -3.976 130.023  0.00  0.00    +0.014 C 
ATOM     16  C   LIG A   1      -5.665  -2.323 131.563  0.00  0.00    +0.120 C 
ATOM     17  C   LIG A   1      -6.275  -0.941 131.789  0.00  0.00    +0.032 C 
ATOM     18  C   LIG A   1      -7.089  -0.433 130.597  0.00  0.00    +0.010 C 
ATOM     19  C   LIG A   1      -3.498  -1.778 130.315  0.00  0.00    +0.014 C 
ATOM     20  C   LIG A   1      -5.290  -2.257 127.638  0.00  0.00    +0.005 C 
ATOM     21  C   LIG A   1      -6.294  -1.853 126.540  0.00  0.00    +0.008 C 
ATOM     22  C   LIG A   1      -5.196   0.634 129.342  0.00  0.00    +0.012 C 
ENDROOT
BRANCH  10  23
ATOM     23  C   LIG A   1      -6.927   3.263 124.114  0.00  0.00    +0.067 C 
ATOM     24  C   LIG A   1      -6.440   3.323 122.653  0.00  0.00    +0.041 C 
BRANCH  23  25
ATOM     25  O   LIG A   1      -7.335   4.577 124.493  0.00  0.00    -0.389 OA
ATOM     26  H   LIG A   1      -7.130   5.187 123.764  0.00  0.00    +0.210 HD
ENDBRANCH  23  25
BRANCH  23  27
ATOM     27  C   LIG A   1      -5.694   2.931 125.007  0.00  0.00    +0.039 C 
BRANCH  27  28
ATOM     28  C   LIG A   1      -4.786   4.121 125.332  0.00  0.00    +0.030 C 
BRANCH  28  29
ATOM     29  C   LIG A   1      -4.486   4.193 126.802  0.00  0.00    -0.028 C 
ATOM     30  C   LIG A   1      -3.367   3.757 127.421  0.00  0.00    -0.080 C 
ATOM     31  C   LIG A   1      -2.186   3.145 126.722  0.00  0.00    +0.038 C 
ATOM     32  C   LIG A   1      -3.215   3.883 128.913  0.00  0.00    +0.038 C 
ENDBRANCH  28  29
ENDBRANCH  27  28
ENDBRANCH  23  27
ENDBRANCH  10  23
BRANCH  16  33
ATOM     33  O   LIG A   1      -4.821  -2.641 132.672  0.00  0.00    -0.391 OA
ATOM     34  H   LIG A   1      -5.376  -3.047 133.359  0.00  0.00    +0.210 HD
ENDBRANCH  16  33
TORSDOF 6
ENDMDL
MODEL 7
REMARK VINA RESULT:      -8.4      2.813      8.894
REMARK  Name = NuBBE_1149
REMARK  14 active torsions:
REMARK  status: ('A' for Active; 'I' for Inactive)
REMARK    1  A    between atoms: C_1  and  C_2
REMARK    2  A    between atoms: C_8  and  C_22
REMARK    3  A    between atoms: C_11  and  C_13
REMARK    4  A    between atoms: C_13  and  C_14
REMARK    5  A    between atoms: C_13  and  O_15
REMARK    6  A    between atoms: C_13  and  C_16
REMARK    7  A    between atoms: C_16  and  C_17
REMARK    8  A    between atoms: C_17  and  C_18
REMARK    9  A    between atoms: C_19  and  C_20
REMARK   10  A    between atoms: C_19  and  C_21
REMARK   11  A    between atoms: C_24  and  C_37
REMARK   12  A    between atoms: C_26  and  C_27
REMARK   13  A    between atoms: C_26  and  C_33
REMARK   14  A    between atoms: C_28  and  O_30
REMARK                            x       y       z     vdW  Elec       q    Type
REMARK                         _______ _______ _______ _____ _____    ______ ____
ROOT
ATOM      1  C   LIG A   1      -7.832  -1.259 129.624  0.00  0.00    +0.012 C 
ATOM      2  C   LIG A   1      -7.093  -2.592 129.316  0.00  0.00    -0.023 C 
ATOM      3  C   LIG A   1      -5.961  -2.467 128.216  0.00  0.00    +0.002 C 
ATOM      4  C   LIG A   1      -4.626  -1.875 128.745  0.00  0.00    +0.005 C 
ATOM      5  C   LIG A   1      -4.681  -1.316 130.161  0.00  0.00    +0.005 C 
ATOM      6  C   LIG A   1      -5.231  -2.317 131.168  0.00  0.00    +0.001 C 
ATOM      7  C   LIG A   1      -6.434  -3.191 130.649  0.00  0.00    -0.023 C 
ATOM      8  C   LIG A   1      -7.373  -3.289 131.877  0.00  0.00    +0.008 C 
ATOM      9  C   LIG A   1      -6.492  -2.987 133.086  0.00  0.00    +0.007 C 
ATOM     10  C   LIG A   1      -5.532  -1.864 132.637  0.00  0.00    +0.024 C 
ATOM     11  C   LIG A   1      -5.885  -4.638 130.420  0.00  0.00    +0.012 C 
ATOM     12  C   LIG A   1      -6.431  -1.903 126.811  0.00  0.00    -0.025 C 
ATOM     13  C   LIG A   1      -7.645  -2.786 126.310  0.00  0.00    +0.003 C 
ATOM     14  C   LIG A   1      -8.181  -2.421 124.873  0.00  0.00    -0.006 C 
ATOM     15  C   LIG A   1      -9.251  -3.450 124.421  0.00  0.00    +0.014 C 
ATOM     16  C   LIG A   1      -6.988  -2.521 123.875  0.00  0.00    +0.120 C 
ATOM     17  C   LIG A   1      -5.732  -1.772 124.319  0.00  0.00    +0.032 C 
ATOM     18  C   LIG A   1      -5.300  -2.102 125.749  0.00  0.00    +0.010 C 
ATOM     19  C   LIG A   1      -8.868  -1.042 124.784  0.00  0.00    +0.014 C 
ATOM     20  C   LIG A   1      -8.744  -3.016 127.372  0.00  0.00    +0.005 C 
ATOM     21  C   LIG A   1      -8.181  -3.523 128.714  0.00  0.00    +0.008 C 
ATOM     22  C   LIG A   1      -6.709  -0.385 126.918  0.00  0.00    +0.012 C 
ENDROOT
BRANCH  10  23
ATOM     23  C   LIG A   1      -6.039  -0.417 132.984  0.00  0.00    +0.067 C 
ATOM     24  C   LIG A   1      -6.053   0.536 131.774  0.00  0.00    +0.041 C 
BRANCH  23  25
ATOM     25  O   LIG A   1      -7.369  -0.495 133.496  0.00  0.00    -0.389 OA
ATOM     26  H   LIG A   1      -7.846  -1.192 133.013  0.00  0.00    +0.210 HD
ENDBRANCH  23  25
BRANCH  23  27
ATOM     27  C   LIG A   1      -5.195   0.260 134.106  0.00  0.00    +0.039 C 
BRANCH  27  28
ATOM     28  C   LIG A   1      -4.379  -0.699 134.976  0.00  0.00    +0.030 C 
BRANCH  28  29
ATOM     29  C   LIG A   1      -2.913  -0.610 134.658  0.00  0.00    -0.028 C 
ATOM     30  C   LIG A   1      -2.083  -1.639 134.377  0.00  0.00    -0.080 C 
ATOM     31  C   LIG A   1      -2.503  -3.079 134.295  0.00  0.00    +0.038 C 
ATOM     32  C   LIG A   1      -0.626  -1.395 134.093  0.00  0.00    +0.038 C 
ENDBRANCH  28  29
ENDBRANCH  27  28
ENDBRANCH  23  27
ENDBRANCH  10  23
BRANCH  16  33
ATOM     33  O   LIG A   1      -7.378  -2.041 122.587  0.00  0.00    -0.391 OA
ATOM     34  H   LIG A   1      -6.889  -2.553 121.920  0.00  0.00    +0.210 HD
ENDBRANCH  16  33
TORSDOF 6
ENDMDL
MODEL 8
REMARK VINA RESULT:      -8.2      5.302      7.504
REMARK  Name = NuBBE_1149
REMARK  14 active torsions:
REMARK  status: ('A' for Active; 'I' for Inactive)
REMARK    1  A    between atoms: C_1  and  C_2
REMARK    2  A    between atoms: C_8  and  C_22
REMARK    3  A    between atoms: C_11  and  C_13
REMARK    4  A    between atoms: C_13  and  C_14
REMARK    5  A    between atoms: C_13  and  O_15
REMARK    6  A    between atoms: C_13  and  C_16
REMARK    7  A    between atoms: C_16  and  C_17
REMARK    8  A    between atoms: C_17  and  C_18
REMARK    9  A    between atoms: C_19  and  C_20
REMARK   10  A    between atoms: C_19  and  C_21
REMARK   11  A    between atoms: C_24  and  C_37
REMARK   12  A    between atoms: C_26  and  C_27
REMARK   13  A    between atoms: C_26  and  C_33
REMARK   14  A    between atoms: C_28  and  O_30
REMARK                            x       y       z     vdW  Elec       q    Type
REMARK                         _______ _______ _______ _____ _____    ______ ____
ROOT
ATOM      1  C   LIG A   1      -4.029   2.929 130.707  0.00  0.00    +0.012 C 
ATOM      2  C   LIG A   1      -4.657   2.100 129.551  0.00  0.00    -0.023 C 
ATOM      3  C   LIG A   1      -6.223   1.894 129.677  0.00  0.00    +0.002 C 
ATOM      4  C   LIG A   1      -7.062   3.121 129.225  0.00  0.00    +0.005 C 
ATOM      5  C   LIG A   1      -6.260   4.385 128.940  0.00  0.00    +0.005 C 
ATOM      6  C   LIG A   1      -5.122   4.151 127.955  0.00  0.00    +0.001 C 
ATOM      7  C   LIG A   1      -4.354   2.788 128.135  0.00  0.00    -0.023 C 
ATOM      8  C   LIG A   1      -2.874   3.164 127.876  0.00  0.00    +0.008 C 
ATOM      9  C   LIG A   1      -2.921   4.464 127.076  0.00  0.00    +0.007 C 
ATOM     10  C   LIG A   1      -4.080   5.287 127.680  0.00  0.00    +0.024 C 
ATOM     11  C   LIG A   1      -4.771   1.864 126.945  0.00  0.00    +0.012 C 
ATOM     12  C   LIG A   1      -6.717   1.205 131.017  0.00  0.00    -0.025 C 
ATOM     13  C   LIG A   1      -5.928  -0.156 131.188  0.00  0.00    +0.003 C 
ATOM     14  C   LIG A   1      -6.366  -1.024 132.428  0.00  0.00    -0.006 C 
ATOM     15  C   LIG A   1      -5.648  -2.400 132.402  0.00  0.00    +0.014 C 
ATOM     16  C   LIG A   1      -7.896  -1.294 132.311  0.00  0.00    +0.120 C 
ATOM     17  C   LIG A   1      -8.738  -0.045 132.052  0.00  0.00    +0.032 C 
ATOM     18  C   LIG A   1      -8.223   0.805 130.888  0.00  0.00    +0.010 C 
ATOM     19  C   LIG A   1      -6.013  -0.399 133.795  0.00  0.00    +0.014 C 
ATOM     20  C   LIG A   1      -4.401  -0.034 130.989  0.00  0.00    +0.005 C 
ATOM     21  C   LIG A   1      -4.024   0.688 129.680  0.00  0.00    +0.008 C 
ATOM     22  C   LIG A   1      -6.598   2.199 132.196  0.00  0.00    +0.012 C 
ENDROOT
BRANCH  10  23
ATOM     23  C   LIG A   1      -3.629   6.302 128.791  0.00  0.00    +0.067 C 
ATOM     24  C   LIG A   1      -2.130   6.654 128.731  0.00  0.00    +0.041 C 
BRANCH  23  25
ATOM     25  O   LIG A   1      -4.369   7.514 128.649  0.00  0.00    -0.389 OA
ATOM     26  H   LIG A   1      -4.934   7.441 127.861  0.00  0.00    +0.210 HD
ENDBRANCH  23  25
BRANCH  23  27
ATOM     27  C   LIG A   1      -3.934   5.789 130.231  0.00  0.00    +0.039 C 
BRANCH  27  28
ATOM     28  C   LIG A   1      -4.511   6.836 131.187  0.00  0.00    +0.030 C 
BRANCH  28  29
ATOM     29  C   LIG A   1      -5.518   6.226 132.120  0.00  0.00    -0.028 C 
ATOM     30  C   LIG A   1      -6.863   6.309 132.025  0.00  0.00    -0.080 C 
ATOM     31  C   LIG A   1      -7.600   7.011 130.919  0.00  0.00    +0.038 C 
ATOM     32  C   LIG A   1      -7.749   5.655 133.050  0.00  0.00    +0.038 C 
ENDBRANCH  28  29
ENDBRANCH  27  28
ENDBRANCH  23  27
ENDBRANCH  10  23
BRANCH  16  33
ATOM     33  O   LIG A   1      -8.378  -1.936 133.493  0.00  0.00    -0.391 OA
ATOM     34  H   LIG A   1      -7.707  -1.823 134.186  0.00  0.00    +0.210 HD
ENDBRANCH  16  33
TORSDOF 6
ENDMDL
MODEL 9
REMARK VINA RESULT:      -8.2      4.598      8.044
REMARK  Name = NuBBE_1149
REMARK  14 active torsions:
REMARK  status: ('A' for Active; 'I' for Inactive)
REMARK    1  A    between atoms: C_1  and  C_2
REMARK    2  A    between atoms: C_8  and  C_22
REMARK    3  A    between atoms: C_11  and  C_13
REMARK    4  A    between atoms: C_13  and  C_14
REMARK    5  A    between atoms: C_13  and  O_15
REMARK    6  A    between atoms: C_13  and  C_16
REMARK    7  A    between atoms: C_16  and  C_17
REMARK    8  A    between atoms: C_17  and  C_18
REMARK    9  A    between atoms: C_19  and  C_20
REMARK   10  A    between atoms: C_19  and  C_21
REMARK   11  A    between atoms: C_24  and  C_37
REMARK   12  A    between atoms: C_26  and  C_27
REMARK   13  A    between atoms: C_26  and  C_33
REMARK   14  A    between atoms: C_28  and  O_30
REMARK                            x       y       z     vdW  Elec       q    Type
REMARK                         _______ _______ _______ _____ _____    ______ ____
ROOT
ATOM      1  C   LIG A   1      -6.142   1.325 128.247  0.00  0.00    +0.012 C 
ATOM      2  C   LIG A   1      -5.682   2.074 126.964  0.00  0.00    -0.023 C 
ATOM      3  C   LIG A   1      -6.867   2.674 126.102  0.00  0.00    +0.002 C 
ATOM      4  C   LIG A   1      -7.438   4.010 126.651  0.00  0.00    +0.005 C 
ATOM      5  C   LIG A   1      -6.925   4.418 128.026  0.00  0.00    +0.005 C 
ATOM      6  C   LIG A   1      -5.404   4.440 128.104  0.00  0.00    +0.001 C 
ATOM      7  C   LIG A   1      -4.680   3.269 127.339  0.00  0.00    -0.023 C 
ATOM      8  C   LIG A   1      -3.505   2.890 128.275  0.00  0.00    +0.008 C 
ATOM      9  C   LIG A   1      -3.285   4.112 129.163  0.00  0.00    +0.007 C 
ATOM     10  C   LIG A   1      -4.694   4.658 129.483  0.00  0.00    +0.024 C 
ATOM     11  C   LIG A   1      -4.022   3.891 126.064  0.00  0.00    +0.012 C 
ATOM     12  C   LIG A   1      -7.959   1.630 125.619  0.00  0.00    -0.025 C 
ATOM     13  C   LIG A   1      -7.214   0.456 124.863  0.00  0.00    +0.003 C 
ATOM     14  C   LIG A   1      -8.163  -0.631 124.229  0.00  0.00    -0.006 C 
ATOM     15  C   LIG A   1      -7.339  -1.633 123.378  0.00  0.00    +0.014 C 
ATOM     16  C   LIG A   1      -9.152   0.095 123.268  0.00  0.00    +0.120 C 
ATOM     17  C   LIG A   1      -9.855   1.304 123.883  0.00  0.00    +0.032 C 
ATOM     18  C   LIG A   1      -8.895   2.289 124.555  0.00  0.00    +0.010 C 
ATOM     19  C   LIG A   1      -8.921  -1.490 125.264  0.00  0.00    +0.014 C 
ATOM     20  C   LIG A   1      -5.992  -0.111 125.618  0.00  0.00    +0.005 C 
ATOM     21  C   LIG A   1      -5.013   0.985 126.082  0.00  0.00    +0.008 C 
ATOM     22  C   LIG A   1      -8.841   1.200 126.815  0.00  0.00    +0.012 C 
ENDROOT
BRANCH  10  23
ATOM     23  C   LIG A   1      -5.294   4.119 130.832  0.00  0.00    +0.067 C 
ATOM     24  C   LIG A   1      -6.461   3.133 130.636  0.00  0.00    +0.041 C 
BRANCH  23  25
ATOM     25  O   LIG A   1      -4.272   3.447 131.566  0.00  0.00    -0.389 OA
ATOM     26  H   LIG A   1      -4.023   4.000 132.327  0.00  0.00    +0.210 HD
ENDBRANCH  23  25
BRANCH  23  27
ATOM     27  C   LIG A   1      -5.797   5.263 131.763  0.00  0.00    +0.039 C 
BRANCH  27  28
ATOM     28  C   LIG A   1      -7.297   5.238 132.074  0.00  0.00    +0.030 C 
BRANCH  28  29
ATOM     29  C   LIG A   1      -8.019   6.350 131.367  0.00  0.00    -0.028 C 
ATOM     30  C   LIG A   1      -9.089   6.229 130.550  0.00  0.00    -0.080 C 
ATOM     31  C   LIG A   1      -9.779   4.932 130.233  0.00  0.00    +0.038 C 
ATOM     32  C   LIG A   1      -9.699   7.439 129.896  0.00  0.00    +0.038 C 
ENDBRANCH  28  29
ENDBRANCH  27  28
ENDBRANCH  23  27
ENDBRANCH  10  23
BRANCH  16  33
ATOM     33  O   LIG A   1     -10.141  -0.819 122.792  0.00  0.00    -0.391 OA
ATOM     34  H   LIG A   1      -9.703  -1.443 122.189  0.00  0.00    +0.210 HD
ENDBRANCH  16  33
TORSDOF 6
ENDMDL
