MODEL 1
REMARK VINA RESULT:      -8.4      0.000      0.000
REMARK  Name = NuBBE_1477
REMARK  6 active torsions:
REMARK  status: ('A' for Active; 'I' for Inactive)
REMARK    1  A    between atoms: C_5  and  O_6
REMARK    2  A    between atoms: O_6  and  C_7
REMARK    3  A    between atoms: C_10  and  C_11
REMARK    4  A    between atoms: C_10  and  C_12
REMARK    5  A    between atoms: N_17  and  C_18
REMARK    6  A    between atoms: C_24  and  O_25
REMARK                            x       y       z     vdW  Elec       q    Type
REMARK                         _______ _______ _______ _____ _____    ______ ____
ROOT
ATOM      1  O   LIG A   1      -4.267   4.478 122.420  0.00  0.00    -0.286 OA
ATOM      2  C   LIG A   1      -5.456   4.177 122.373  0.00  0.00    +0.197 A 
ATOM      3  C   LIG A   1      -6.166   3.733 123.591  0.00  0.00    +0.050 A 
ATOM      4  C   LIG A   1      -7.498   3.297 123.488  0.00  0.00    +0.099 A 
ATOM      5  C   LIG A   1      -8.154   2.986 124.701  0.00  0.00    +0.186 A 
ATOM      6  C   LIG A   1      -7.477   3.003 125.937  0.00  0.00    +0.172 A 
ATOM      7  O   LIG A   1      -8.196   2.645 127.046  0.00  0.00    -0.478 OA
ATOM      8  C   LIG A   1      -7.560   2.637 128.338  0.00  0.00    +0.124 C 
ATOM      9  C   LIG A   1      -7.679   1.204 128.871  0.00  0.00    +0.060 C 
ATOM     10  C   LIG A   1      -8.376   3.586 129.223  0.00  0.00    +0.060 C 
ATOM     11  C   LIG A   1      -6.111   3.060 128.359  0.00  0.00    +0.020 C 
ATOM     12  C   LIG A   1      -5.435   3.415 127.264  0.00  0.00    +0.011 C 
ATOM     13  C   LIG A   1      -6.138   3.389 125.993  0.00  0.00    +0.021 A 
ATOM     14  C   LIG A   1      -5.488   3.769 124.819  0.00  0.00    +0.025 A 
ATOM     15  N   LIG A   1      -8.108   3.242 122.212  0.00  0.00    -0.337 N 
ATOM     16  C   LIG A   1      -9.087   2.168 121.990  0.00  0.00    +0.149 C 
ATOM     17  C   LIG A   1      -7.537   3.827 121.054  0.00  0.00    +0.095 A 
ATOM     18  C   LIG A   1      -6.211   4.292 121.106  0.00  0.00    +0.049 A 
ATOM     19  C   LIG A   1      -5.580   4.865 119.992  0.00  0.00    +0.014 A 
ATOM     20  C   LIG A   1      -6.277   5.011 118.797  0.00  0.00    +0.004 A 
ATOM     21  C   LIG A   1      -7.604   4.599 118.722  0.00  0.00    +0.047 A 
ATOM     22  C   LIG A   1      -8.227   4.025 119.838  0.00  0.00    +0.141 A 
ENDROOT
BRANCH   5  23
ATOM     23  O   LIG A   1      -9.493   2.651 124.702  0.00  0.00    -0.489 OA
ATOM     24  C   LIG A   1      -9.638   1.251 124.939  0.00  0.00    +0.277 C 
ENDBRANCH   5  23
BRANCH  22  25
ATOM     25  O   LIG A   1      -9.554   3.693 119.736  0.00  0.00    -0.505 OA
ATOM     26  H   LIG A   1     -10.092   4.407 120.115  0.00  0.00    +0.292 HD
ENDBRANCH  22  25
TORSDOF 2
ENDMDL
MODEL 2
REMARK VINA RESULT:      -8.0      3.125      7.372
REMARK  Name = NuBBE_1477
REMARK  6 active torsions:
REMARK  status: ('A' for Active; 'I' for Inactive)
REMARK    1  A    between atoms: C_5  and  O_6
REMARK    2  A    between atoms: O_6  and  C_7
REMARK    3  A    between atoms: C_10  and  C_11
REMARK    4  A    between atoms: C_10  and  C_12
REMARK    5  A    between atoms: N_17  and  C_18
REMARK    6  A    between atoms: C_24  and  O_25
REMARK                            x       y       z     vdW  Elec       q    Type
REMARK                         _______ _______ _______ _____ _____    ______ ____
ROOT
ATOM      1  O   LIG A   1      -6.580   1.463 128.743  0.00  0.00    -0.286 OA
ATOM      2  C   LIG A   1      -6.964   0.636 127.922  0.00  0.00    +0.197 A 
ATOM      3  C   LIG A   1      -7.002   0.972 126.482  0.00  0.00    +0.050 A 
ATOM      4  C   LIG A   1      -7.542   0.043 125.576  0.00  0.00    +0.099 A 
ATOM      5  C   LIG A   1      -7.455   0.377 124.206  0.00  0.00    +0.186 A 
ATOM      6  C   LIG A   1      -6.955   1.623 123.775  0.00  0.00    +0.172 A 
ATOM      7  O   LIG A   1      -6.952   1.860 122.427  0.00  0.00    -0.478 OA
ATOM      8  C   LIG A   1      -6.459   3.117 121.924  0.00  0.00    +0.124 C 
ATOM      9  C   LIG A   1      -7.618   3.760 121.153  0.00  0.00    +0.060 C 
ATOM     10  C   LIG A   1      -5.321   2.774 120.955  0.00  0.00    +0.060 C 
ATOM     11  C   LIG A   1      -5.951   4.087 122.964  0.00  0.00    +0.020 C 
ATOM     12  C   LIG A   1      -5.955   3.826 124.274  0.00  0.00    +0.011 C 
ATOM     13  C   LIG A   1      -6.478   2.542 124.709  0.00  0.00    +0.021 A 
ATOM     14  C   LIG A   1      -6.488   2.208 126.063  0.00  0.00    +0.025 A 
ATOM     15  N   LIG A   1      -8.087  -1.167 126.071  0.00  0.00    -0.337 N 
ATOM     16  C   LIG A   1      -9.239  -1.722 125.345  0.00  0.00    +0.149 C 
ATOM     17  C   LIG A   1      -7.906  -1.608 127.405  0.00  0.00    +0.095 A 
ATOM     18  C   LIG A   1      -7.357  -0.724 128.350  0.00  0.00    +0.049 A 
ATOM     19  C   LIG A   1      -7.168  -1.093 129.691  0.00  0.00    +0.014 A 
ATOM     20  C   LIG A   1      -7.503  -2.374 130.113  0.00  0.00    +0.004 A 
ATOM     21  C   LIG A   1      -8.010  -3.289 129.196  0.00  0.00    +0.047 A 
ATOM     22  C   LIG A   1      -8.199  -2.913 127.859  0.00  0.00    +0.141 A 
ENDROOT
BRANCH   5  23
ATOM     23  O   LIG A   1      -7.864  -0.523 123.242  0.00  0.00    -0.489 OA
ATOM     24  C   LIG A   1      -6.760  -1.337 122.845  0.00  0.00    +0.277 C 
ENDBRANCH   5  23
BRANCH  22  25
ATOM     25  O   LIG A   1      -8.642  -3.868 126.978  0.00  0.00    -0.505 OA
ATOM     26  H   LIG A   1      -8.819  -3.450 126.119  0.00  0.00    +0.292 HD
ENDBRANCH  22  25
TORSDOF 2
ENDMDL
MODEL 3
REMARK VINA RESULT:      -7.9      5.370      8.159
REMARK  Name = NuBBE_1477
REMARK  6 active torsions:
REMARK  status: ('A' for Active; 'I' for Inactive)
REMARK    1  A    between atoms: C_5  and  O_6
REMARK    2  A    between atoms: O_6  and  C_7
REMARK    3  A    between atoms: C_10  and  C_11
REMARK    4  A    between atoms: C_10  and  C_12
REMARK    5  A    between atoms: N_17  and  C_18
REMARK    6  A    between atoms: C_24  and  O_25
REMARK                            x       y       z     vdW  Elec       q    Type
REMARK                         _______ _______ _______ _____ _____    ______ ____
ROOT
ATOM      1  O   LIG A   1      -9.416   2.814 133.044  0.00  0.00    -0.286 OA
ATOM      2  C   LIG A   1      -9.234   3.034 131.851  0.00  0.00    +0.197 A 
ATOM      3  C   LIG A   1      -8.710   1.973 130.965  0.00  0.00    +0.050 A 
ATOM      4  C   LIG A   1      -8.413   2.282 129.626  0.00  0.00    +0.099 A 
ATOM      5  C   LIG A   1      -8.016   1.203 128.804  0.00  0.00    +0.186 A 
ATOM      6  C   LIG A   1      -7.818  -0.093 129.324  0.00  0.00    +0.172 A 
ATOM      7  O   LIG A   1      -7.394  -1.056 128.448  0.00  0.00    -0.478 OA
ATOM      8  C   LIG A   1      -7.167  -2.399 128.918  0.00  0.00    +0.124 C 
ATOM      9  C   LIG A   1      -5.696  -2.718 128.625  0.00  0.00    +0.060 C 
ATOM     10  C   LIG A   1      -8.071  -3.305 128.074  0.00  0.00    +0.060 C 
ATOM     11  C   LIG A   1      -7.450  -2.638 130.382  0.00  0.00    +0.020 C 
ATOM     12  C   LIG A   1      -7.875  -1.683 131.212  0.00  0.00    +0.011 C 
ATOM     13  C   LIG A   1      -8.070  -0.349 130.671  0.00  0.00    +0.021 A 
ATOM     14  C   LIG A   1      -8.530   0.683 131.487  0.00  0.00    +0.025 A 
ATOM     15  N   LIG A   1      -8.573   3.614 129.175  0.00  0.00    -0.337 N 
ATOM     16  C   LIG A   1      -7.628   4.086 128.151  0.00  0.00    +0.149 C 
ATOM     17  C   LIG A   1      -9.241   4.612 129.927  0.00  0.00    +0.095 A 
ATOM     18  C   LIG A   1      -9.573   4.350 131.268  0.00  0.00    +0.049 A 
ATOM     19  C   LIG A   1     -10.219   5.300 132.073  0.00  0.00    +0.014 A 
ATOM     20  C   LIG A   1     -10.574   6.535 131.542  0.00  0.00    +0.004 A 
ATOM     21  C   LIG A   1     -10.299   6.813 130.206  0.00  0.00    +0.047 A 
ATOM     22  C   LIG A   1      -9.651   5.860 129.409  0.00  0.00    +0.141 A 
ENDROOT
BRANCH   5  23
ATOM     23  O   LIG A   1      -7.808   1.397 127.453  0.00  0.00    -0.489 OA
ATOM     24  C   LIG A   1      -8.987   1.042 126.730  0.00  0.00    +0.277 C 
ENDBRANCH   5  23
BRANCH  22  25
ATOM     25  O   LIG A   1      -9.457   6.154 128.082  0.00  0.00    -0.505 OA
ATOM     26  H   LIG A   1     -10.317   6.325 127.665  0.00  0.00    +0.292 HD
ENDBRANCH  22  25
TORSDOF 2
ENDMDL
MODEL 4
REMARK VINA RESULT:      -7.9      4.750      7.060
REMARK  Name = NuBBE_1477
REMARK  6 active torsions:
REMARK  status: ('A' for Active; 'I' for Inactive)
REMARK    1  A    between atoms: C_5  and  O_6
REMARK    2  A    between atoms: O_6  and  C_7
REMARK    3  A    between atoms: C_10  and  C_11
REMARK    4  A    between atoms: C_10  and  C_12
REMARK    5  A    between atoms: N_17  and  C_18
REMARK    6  A    between atoms: C_24  and  O_25
REMARK                            x       y       z     vdW  Elec       q    Type
REMARK                         _______ _______ _______ _____ _____    ______ ____
ROOT
ATOM      1  O   LIG A   1      -8.976  -4.286 127.212  0.00  0.00    -0.286 OA
ATOM      2  C   LIG A   1      -8.633  -3.133 126.967  0.00  0.00    +0.197 A 
ATOM      3  C   LIG A   1      -8.027  -2.292 128.021  0.00  0.00    +0.050 A 
ATOM      4  C   LIG A   1      -7.739  -0.946 127.742  0.00  0.00    +0.099 A 
ATOM      5  C   LIG A   1      -7.065  -0.223 128.752  0.00  0.00    +0.186 A 
ATOM      6  C   LIG A   1      -6.796  -0.789 130.015  0.00  0.00    +0.172 A 
ATOM      7  O   LIG A   1      -6.174   0.012 130.936  0.00  0.00    -0.478 OA
ATOM      8  C   LIG A   1      -5.876  -0.506 132.247  0.00  0.00    +0.124 C 
ATOM      9  C   LIG A   1      -6.608   0.399 133.246  0.00  0.00    +0.060 C 
ATOM     10  C   LIG A   1      -4.361  -0.359 132.431  0.00  0.00    +0.060 C 
ATOM     11  C   LIG A   1      -6.271  -1.943 132.491  0.00  0.00    +0.020 C 
ATOM     12  C   LIG A   1      -6.866  -2.705 131.571  0.00  0.00    +0.011 C 
ATOM     13  C   LIG A   1      -7.146  -2.113 130.274  0.00  0.00    +0.021 A 
ATOM     14  C   LIG A   1      -7.749  -2.869 129.269  0.00  0.00    +0.025 A 
ATOM     15  N   LIG A   1      -8.087  -0.414 126.476  0.00  0.00    -0.337 N 
ATOM     16  C   LIG A   1      -8.494   0.998 126.439  0.00  0.00    +0.149 C 
ATOM     17  C   LIG A   1      -8.494  -1.219 125.384  0.00  0.00    +0.095 A 
ATOM     18  C   LIG A   1      -8.782  -2.577 125.605  0.00  0.00    +0.049 A 
ATOM     19  C   LIG A   1      -9.206  -3.425 124.570  0.00  0.00    +0.014 A 
ATOM     20  C   LIG A   1      -9.328  -2.935 123.275  0.00  0.00    +0.004 A 
ATOM     21  C   LIG A   1      -9.011  -1.605 123.012  0.00  0.00    +0.047 A 
ATOM     22  C   LIG A   1      -8.591  -0.764 124.050  0.00  0.00    +0.141 A 
ENDROOT
BRANCH   5  23
ATOM     23  O   LIG A   1      -6.649   1.073 128.523  0.00  0.00    -0.489 OA
ATOM     24  C   LIG A   1      -5.300   1.070 128.056  0.00  0.00    +0.277 C 
ENDBRANCH   5  23
BRANCH  22  25
ATOM     25  O   LIG A   1      -8.228   0.521 123.732  0.00  0.00    -0.505 OA
ATOM     26  H   LIG A   1      -7.794   0.929 124.499  0.00  0.00    +0.292 HD
ENDBRANCH  22  25
TORSDOF 2
ENDMDL
MODEL 5
REMARK VINA RESULT:      -7.7      3.905      7.517
REMARK  Name = NuBBE_1477
REMARK  6 active torsions:
REMARK  status: ('A' for Active; 'I' for Inactive)
REMARK    1  A    between atoms: C_5  and  O_6
REMARK    2  A    between atoms: O_6  and  C_7
REMARK    3  A    between atoms: C_10  and  C_11
REMARK    4  A    between atoms: C_10  and  C_12
REMARK    5  A    between atoms: N_17  and  C_18
REMARK    6  A    between atoms: C_24  and  O_25
REMARK                            x       y       z     vdW  Elec       q    Type
REMARK                         _______ _______ _______ _____ _____    ______ ____
ROOT
ATOM      1  O   LIG A   1      -7.685  -0.134 130.369  0.00  0.00    -0.286 OA
ATOM      2  C   LIG A   1      -7.874   0.719 129.507  0.00  0.00    +0.197 A 
ATOM      3  C   LIG A   1      -7.810   0.362 128.074  0.00  0.00    +0.050 A 
ATOM      4  C   LIG A   1      -7.929   1.376 127.108  0.00  0.00    +0.099 A 
ATOM      5  C   LIG A   1      -7.965   0.960 125.758  0.00  0.00    +0.186 A 
ATOM      6  C   LIG A   1      -7.779  -0.389 125.392  0.00  0.00    +0.172 A 
ATOM      7  O   LIG A   1      -7.792  -0.678 124.054  0.00  0.00    -0.478 OA
ATOM      8  C   LIG A   1      -7.602  -2.037 123.614  0.00  0.00    +0.124 C 
ATOM      9  C   LIG A   1      -6.361  -2.030 122.713  0.00  0.00    +0.060 C 
ATOM     10  C   LIG A   1      -8.841  -2.396 122.786  0.00  0.00    +0.060 C 
ATOM     11  C   LIG A   1      -7.420  -3.061 124.709  0.00  0.00    +0.020 C 
ATOM     12  C   LIG A   1      -7.424  -2.754 126.008  0.00  0.00    +0.011 C 
ATOM     13  C   LIG A   1      -7.609  -1.361 126.377  0.00  0.00    +0.021 A 
ATOM     14  C   LIG A   1      -7.640  -0.985 127.719  0.00  0.00    +0.025 A 
ATOM     15  N   LIG A   1      -8.052   2.721 127.534  0.00  0.00    -0.337 N 
ATOM     16  C   LIG A   1      -7.440   3.747 126.677  0.00  0.00    +0.149 C 
ATOM     17  C   LIG A   1      -8.303   3.088 128.879  0.00  0.00    +0.095 A 
ATOM     18  C   LIG A   1      -8.211   2.109 129.884  0.00  0.00    +0.049 A 
ATOM     19  C   LIG A   1      -8.430   2.409 131.237  0.00  0.00    +0.014 A 
ATOM     20  C   LIG A   1      -8.775   3.701 131.615  0.00  0.00    +0.004 A 
ATOM     21  C   LIG A   1      -8.916   4.687 130.642  0.00  0.00    +0.047 A 
ATOM     22  C   LIG A   1      -8.693   4.381 129.293  0.00  0.00    +0.141 A 
ENDROOT
BRANCH   5  23
ATOM     23  O   LIG A   1      -8.185   1.879 124.752  0.00  0.00    -0.489 OA
ATOM     24  C   LIG A   1      -9.564   1.862 124.379  0.00  0.00    +0.277 C 
ENDBRANCH   5  23
BRANCH  22  25
ATOM     25  O   LIG A   1      -8.905   5.368 128.364  0.00  0.00    -0.505 OA
ATOM     26  H   LIG A   1      -8.196   5.340 127.702  0.00  0.00    +0.292 HD
ENDBRANCH  22  25
TORSDOF 2
ENDMDL
MODEL 6
REMARK VINA RESULT:      -7.6      9.043     10.891
REMARK  Name = NuBBE_1477
REMARK  6 active torsions:
REMARK  status: ('A' for Active; 'I' for Inactive)
REMARK    1  A    between atoms: C_5  and  O_6
REMARK    2  A    between atoms: O_6  and  C_7
REMARK    3  A    between atoms: C_10  and  C_11
REMARK    4  A    between atoms: C_10  and  C_12
REMARK    5  A    between atoms: N_17  and  C_18
REMARK    6  A    between atoms: C_24  and  O_25
REMARK                            x       y       z     vdW  Elec       q    Type
REMARK                         _______ _______ _______ _____ _____    ______ ____
ROOT
ATOM      1  O   LIG A   1     -10.064   1.709 131.888  0.00  0.00    -0.286 OA
ATOM      2  C   LIG A   1      -8.940   1.667 132.379  0.00  0.00    +0.197 A 
ATOM      3  C   LIG A   1      -8.022   0.555 132.055  0.00  0.00    +0.050 A 
ATOM      4  C   LIG A   1      -6.781   0.478 132.711  0.00  0.00    +0.099 A 
ATOM      5  C   LIG A   1      -5.906  -0.547 132.283  0.00  0.00    +0.186 A 
ATOM      6  C   LIG A   1      -6.299  -1.509 131.331  0.00  0.00    +0.172 A 
ATOM      7  O   LIG A   1      -5.388  -2.482 131.018  0.00  0.00    -0.478 OA
ATOM      8  C   LIG A   1      -5.730  -3.499 130.056  0.00  0.00    +0.124 C 
ATOM      9  C   LIG A   1      -5.611  -4.843 130.785  0.00  0.00    +0.060 C 
ATOM     10  C   LIG A   1      -4.672  -3.415 128.950  0.00  0.00    +0.060 C 
ATOM     11  C   LIG A   1      -7.104  -3.383 129.440  0.00  0.00    +0.020 C 
ATOM     12  C   LIG A   1      -7.970  -2.417 129.755  0.00  0.00    +0.011 C 
ATOM     13  C   LIG A   1      -7.560  -1.432 130.742  0.00  0.00    +0.021 A 
ATOM     14  C   LIG A   1      -8.416  -0.389 131.095  0.00  0.00    +0.025 A 
ATOM     15  N   LIG A   1      -6.465   1.436 133.703  0.00  0.00    -0.337 N 
ATOM     16  C   LIG A   1      -5.643   0.977 134.832  0.00  0.00    +0.149 C 
ATOM     17  C   LIG A   1      -7.225   2.614 133.912  0.00  0.00    +0.095 A 
ATOM     18  C   LIG A   1      -8.468   2.749 133.269  0.00  0.00    +0.049 A 
ATOM     19  C   LIG A   1      -9.277   3.882 133.447  0.00  0.00    +0.014 A 
ATOM     20  C   LIG A   1      -8.844   4.926 134.257  0.00  0.00    +0.004 A 
ATOM     21  C   LIG A   1      -7.600   4.845 134.875  0.00  0.00    +0.047 A 
ATOM     22  C   LIG A   1      -6.799   3.709 134.696  0.00  0.00    +0.141 A 
ENDROOT
BRANCH   5  23
ATOM     23  O   LIG A   1      -4.628  -0.630 132.798  0.00  0.00    -0.489 OA
ATOM     24  C   LIG A   1      -3.728   0.107 131.970  0.00  0.00    +0.277 C 
ENDBRANCH   5  23
BRANCH  22  25
ATOM     25  O   LIG A   1      -5.554   3.701 135.273  0.00  0.00    -0.505 OA
ATOM     26  H   LIG A   1      -5.638   3.925 136.215  0.00  0.00    +0.292 HD
ENDBRANCH  22  25
TORSDOF 2
ENDMDL
MODEL 7
REMARK VINA RESULT:      -7.6      4.214      5.843
REMARK  Name = NuBBE_1477
REMARK  6 active torsions:
REMARK  status: ('A' for Active; 'I' for Inactive)
REMARK    1  A    between atoms: C_5  and  O_6
REMARK    2  A    between atoms: O_6  and  C_7
REMARK    3  A    between atoms: C_10  and  C_11
REMARK    4  A    between atoms: C_10  and  C_12
REMARK    5  A    between atoms: N_17  and  C_18
REMARK    6  A    between atoms: C_24  and  O_25
REMARK                            x       y       z     vdW  Elec       q    Type
REMARK                         _______ _______ _______ _____ _____    ______ ____
ROOT
ATOM      1  O   LIG A   1      -8.979   2.518 126.056  0.00  0.00    -0.286 OA
ATOM      2  C   LIG A   1      -8.790   1.309 125.961  0.00  0.00    +0.197 A 
ATOM      3  C   LIG A   1      -8.270   0.540 127.112  0.00  0.00    +0.050 A 
ATOM      4  C   LIG A   1      -7.965  -0.821 126.945  0.00  0.00    +0.099 A 
ATOM      5  C   LIG A   1      -7.572  -1.526 128.106  0.00  0.00    +0.186 A 
ATOM      6  C   LIG A   1      -7.386  -0.874 129.342  0.00  0.00    +0.172 A 
ATOM      7  O   LIG A   1      -6.966  -1.644 130.394  0.00  0.00    -0.478 OA
ATOM      8  C   LIG A   1      -6.752  -1.037 131.683  0.00  0.00    +0.124 C 
ATOM      9  C   LIG A   1      -5.282  -1.287 132.041  0.00  0.00    +0.060 C 
ATOM     10  C   LIG A   1      -7.658  -1.787 132.665  0.00  0.00    +0.060 C 
ATOM     11  C   LIG A   1      -7.043   0.443 131.767  0.00  0.00    +0.020 C 
ATOM     12  C   LIG A   1      -7.464   1.168 130.729  0.00  0.00    +0.011 C 
ATOM     13  C   LIG A   1      -7.646   0.491 129.456  0.00  0.00    +0.021 A 
ATOM     14  C   LIG A   1      -8.103   1.194 128.342  0.00  0.00    +0.025 A 
ATOM     15  N   LIG A   1      -8.112  -1.409 125.665  0.00  0.00    -0.337 N 
ATOM     16  C   LIG A   1      -7.159  -2.470 125.308  0.00  0.00    +0.149 C 
ATOM     17  C   LIG A   1      -8.776  -0.767 124.590  0.00  0.00    +0.095 A 
ATOM     18  C   LIG A   1      -9.116   0.592 124.710  0.00  0.00    +0.049 A 
ATOM     19  C   LIG A   1      -9.759   1.291 123.677  0.00  0.00    +0.014 A 
ATOM     20  C   LIG A   1     -10.102   0.633 122.501  0.00  0.00    +0.004 A 
ATOM     21  C   LIG A   1      -9.818  -0.722 122.364  0.00  0.00    +0.047 A 
ATOM     22  C   LIG A   1      -9.174  -1.413 123.399  0.00  0.00    +0.141 A 
ENDROOT
BRANCH   5  23
ATOM     23  O   LIG A   1      -7.357  -2.888 128.054  0.00  0.00    -0.489 OA
ATOM     24  C   LIG A   1      -8.559  -3.578 128.396  0.00  0.00    +0.277 C 
ENDBRANCH   5  23
BRANCH  22  25
ATOM     25  O   LIG A   1      -8.971  -2.762 123.245  0.00  0.00    -0.505 OA
ATOM     26  H   LIG A   1      -8.077  -2.912 122.898  0.00  0.00    +0.292 HD
ENDBRANCH  22  25
TORSDOF 2
ENDMDL
MODEL 8
REMARK VINA RESULT:      -7.5      3.903      5.857
REMARK  Name = NuBBE_1477
REMARK  6 active torsions:
REMARK  status: ('A' for Active; 'I' for Inactive)
REMARK    1  A    between atoms: C_5  and  O_6
REMARK    2  A    between atoms: O_6  and  C_7
REMARK    3  A    between atoms: C_10  and  C_11
REMARK    4  A    between atoms: C_10  and  C_12
REMARK    5  A    between atoms: N_17  and  C_18
REMARK    6  A    between atoms: C_24  and  O_25
REMARK                            x       y       z     vdW  Elec       q    Type
REMARK                         _______ _______ _______ _____ _____    ______ ____
ROOT
ATOM      1  O   LIG A   1      -7.176   0.669 122.847  0.00  0.00    -0.286 OA
ATOM      2  C   LIG A   1      -7.214   0.136 123.952  0.00  0.00    +0.197 A 
ATOM      3  C   LIG A   1      -6.630   0.812 125.130  0.00  0.00    +0.050 A 
ATOM      4  C   LIG A   1      -6.596   0.136 126.361  0.00  0.00    +0.099 A 
ATOM      5  C   LIG A   1      -6.123   0.872 127.471  0.00  0.00    +0.186 A 
ATOM      6  C   LIG A   1      -5.607   2.176 127.332  0.00  0.00    +0.172 A 
ATOM      7  O   LIG A   1      -5.138   2.785 128.465  0.00  0.00    -0.478 OA
ATOM      8  C   LIG A   1      -4.592   4.116 128.388  0.00  0.00    +0.124 C 
ATOM      9  C   LIG A   1      -3.146   4.021 128.888  0.00  0.00    +0.060 C 
ATOM     10  C   LIG A   1      -5.418   4.973 129.354  0.00  0.00    +0.060 C 
ATOM     11  C   LIG A   1      -4.608   4.753 127.019  0.00  0.00    +0.020 C 
ATOM     12  C   LIG A   1      -5.083   4.142 125.931  0.00  0.00    +0.011 C 
ATOM     13  C   LIG A   1      -5.607   2.795 126.082  0.00  0.00    +0.021 A 
ATOM     14  C   LIG A   1      -6.134   2.116 124.984  0.00  0.00    +0.025 A 
ATOM     15  N   LIG A   1      -7.072  -1.196 126.430  0.00  0.00    -0.337 N 
ATOM     16  C   LIG A   1      -6.394  -2.095 127.375  0.00  0.00    +0.149 C 
ATOM     17  C   LIG A   1      -7.803  -1.812 125.383  0.00  0.00    +0.095 A 
ATOM     18  C   LIG A   1      -7.881  -1.171 124.134  0.00  0.00    +0.049 A 
ATOM     19  C   LIG A   1      -8.573  -1.735 123.052  0.00  0.00    +0.014 A 
ATOM     20  C   LIG A   1      -9.231  -2.950 123.204  0.00  0.00    +0.004 A 
ATOM     21  C   LIG A   1      -9.211  -3.592 124.439  0.00  0.00    +0.047 A 
ATOM     22  C   LIG A   1      -8.515  -3.024 125.515  0.00  0.00    +0.141 A 
ENDROOT
BRANCH   5  23
ATOM     23  O   LIG A   1      -6.155   0.321 128.737  0.00  0.00    -0.489 OA
ATOM     24  C   LIG A   1      -7.370   0.687 129.390  0.00  0.00    +0.277 C 
ENDBRANCH   5  23
BRANCH  22  25
ATOM     25  O   LIG A   1      -8.576  -3.661 126.729  0.00  0.00    -0.505 OA
ATOM     26  H   LIG A   1      -8.805  -4.594 126.589  0.00  0.00    +0.292 HD
ENDBRANCH  22  25
TORSDOF 2
ENDMDL
MODEL 9
REMARK VINA RESULT:      -7.5      3.421      6.127
REMARK  Name = NuBBE_1477
REMARK  6 active torsions:
REMARK  status: ('A' for Active; 'I' for Inactive)
REMARK    1  A    between atoms: C_5  and  O_6
REMARK    2  A    between atoms: O_6  and  C_7
REMARK    3  A    between atoms: C_10  and  C_11
REMARK    4  A    between atoms: C_10  and  C_12
REMARK    5  A    between atoms: N_17  and  C_18
REMARK    6  A    between atoms: C_24  and  O_25
REMARK                            x       y       z     vdW  Elec       q    Type
REMARK                         _______ _______ _______ _____ _____    ______ ____
ROOT
ATOM      1  O   LIG A   1      -9.526  -2.119 124.917  0.00  0.00    -0.286 OA
ATOM      2  C   LIG A   1      -9.006  -1.107 125.375  0.00  0.00    +0.197 A 
ATOM      3  C   LIG A   1      -8.309  -1.146 126.678  0.00  0.00    +0.050 A 
ATOM      4  C   LIG A   1      -7.813   0.049 127.226  0.00  0.00    +0.099 A 
ATOM      5  C   LIG A   1      -7.066  -0.068 128.420  0.00  0.00    +0.186 A 
ATOM      6  C   LIG A   1      -6.922  -1.301 129.088  0.00  0.00    +0.172 A 
ATOM      7  O   LIG A   1      -6.212  -1.296 130.259  0.00  0.00    -0.478 OA
ATOM      8  C   LIG A   1      -6.033  -2.524 130.992  0.00  0.00    +0.124 C 
ATOM      9  C   LIG A   1      -6.647  -2.294 132.378  0.00  0.00    +0.060 C 
ATOM     10  C   LIG A   1      -4.520  -2.726 131.124  0.00  0.00    +0.060 C 
ATOM     11  C   LIG A   1      -6.648  -3.755 130.369  0.00  0.00    +0.020 C 
ATOM     12  C   LIG A   1      -7.325  -3.734 129.219  0.00  0.00    +0.011 C 
ATOM     13  C   LIG A   1      -7.476  -2.458 128.541  0.00  0.00    +0.021 A 
ATOM     14  C   LIG A   1      -8.157  -2.380 127.327  0.00  0.00    +0.025 A 
ATOM     15  N   LIG A   1      -8.041   1.268 126.543  0.00  0.00    -0.337 N 
ATOM     16  C   LIG A   1      -8.228   2.469 127.371  0.00  0.00    +0.149 C 
ATOM     17  C   LIG A   1      -8.534   1.331 125.216  0.00  0.00    +0.095 A 
ATOM     18  C   LIG A   1      -9.030   0.161 124.614  0.00  0.00    +0.049 A 
ATOM     19  C   LIG A   1      -9.548   0.158 123.310  0.00  0.00    +0.014 A 
ATOM     20  C   LIG A   1      -9.558   1.331 122.563  0.00  0.00    +0.004 A 
ATOM     21  C   LIG A   1      -9.036   2.499 123.112  0.00  0.00    +0.047 A 
ATOM     22  C   LIG A   1      -8.522   2.495 124.415  0.00  0.00    +0.141 A 
ENDROOT
BRANCH   5  23
ATOM     23  O   LIG A   1      -6.453   1.040 128.970  0.00  0.00    -0.489 OA
ATOM     24  C   LIG A   1      -5.110   1.133 128.492  0.00  0.00    +0.277 C 
ENDBRANCH   5  23
BRANCH  22  25
ATOM     25  O   LIG A   1      -7.961   3.653 124.890  0.00  0.00    -0.505 OA
ATOM     26  H   LIG A   1      -7.689   4.207 124.140  0.00  0.00    +0.292 HD
ENDBRANCH  22  25
TORSDOF 2
ENDMDL
