MODEL 1
REMARK VINA RESULT:      -8.9      0.000      0.000
REMARK  Name = NuBBE_1096
REMARK  7 active torsions:
REMARK  status: ('A' for Active; 'I' for Inactive)
REMARK    1  A    between atoms: C_1  and  C_2
REMARK    2  A    between atoms: C_4  and  C_5
REMARK    3  A    between atoms: C_6  and  C_14
REMARK    4  A    between atoms: C_23  and  C_24
REMARK    5  A    between atoms: C_28  and  O_30
REMARK    6  A    between atoms: C_31  and  C_32
REMARK    7  A    between atoms: C_31  and  C_33
REMARK                            x       y       z     vdW  Elec       q    Type
REMARK                         _______ _______ _______ _____ _____    ______ ____
ROOT
ATOM      1  C   LIG A   1      -8.144   2.261 127.282  0.00  0.00    +0.017 C 
ATOM      2  C   LIG A   1      -7.450   1.813 125.973  0.00  0.00    +0.030 C 
ATOM      3  C   LIG A   1      -6.598   3.008 125.326  0.00  0.00    +0.124 C 
ATOM      4  C   LIG A   1      -5.251   3.396 125.914  0.00  0.00    +0.042 C 
ATOM      5  C   LIG A   1      -4.265   3.881 124.802  0.00  0.00    +0.018 C 
ATOM      6  C   LIG A   1      -5.545   4.656 126.863  0.00  0.00    +0.218 C 
ATOM      7  O   LIG A   1      -6.976   4.949 127.056  0.00  0.00    -0.454 OA
ATOM      8  C   LIG A   1      -7.844   4.943 125.987  0.00  0.00    +0.340 C 
ATOM      9  O   LIG A   1      -8.997   5.340 126.051  0.00  0.00    -0.248 OA
ATOM     10  C   LIG A   1      -7.221   4.468 124.750  0.00  0.00    +0.260 C 
ATOM     11  O   LIG A   1      -7.029   3.273 124.035  0.00  0.00    -0.352 OA
ATOM     12  C   LIG A   1      -4.502   2.192 126.543  0.00  0.00    +0.014 C 
ATOM     13  C   LIG A   1      -5.348   1.116 127.204  0.00  0.00    +0.006 C 
ATOM     14  C   LIG A   1      -6.436   0.631 126.219  0.00  0.00    +0.010 C 
ATOM     15  C   LIG A   1      -7.023  -0.801 126.544  0.00  0.00    -0.006 C 
ATOM     16  C   LIG A   1      -7.528  -0.927 128.008  0.00  0.00    +0.016 C 
ATOM     17  C   LIG A   1      -8.206  -1.206 125.586  0.00  0.00    +0.014 C 
ATOM     18  C   LIG A   1      -9.185  -0.033 125.382  0.00  0.00    +0.037 C 
ATOM     19  C   LIG A   1      -8.542   1.295 124.977  0.00  0.00    +0.124 C 
ATOM     20  C   LIG A   1      -7.823  -1.979 124.265  0.00  0.00    +0.031 C 
ATOM     21  C   LIG A   1      -9.084  -2.655 123.669  0.00  0.00    +0.019 C 
ATOM     22  C   LIG A   1      -7.182  -1.143 123.149  0.00  0.00    +0.019 C 
ATOM     23  C   LIG A   1      -6.830  -3.100 124.586  0.00  0.00    +0.162 C 
ATOM     24  O   LIG A   1      -6.772  -4.157 123.959  0.00  0.00    -0.292 OA
ATOM     25  C   LIG A   1      -5.817  -2.866 125.630  0.00  0.00    +0.043 C 
ATOM     26  C   LIG A   1      -5.898  -1.830 126.469  0.00  0.00    -0.016 C 
ENDROOT
BRANCH   6  27
ATOM     27  C   LIG A   1      -4.845   4.636 128.192  0.00  0.00    +0.031 A 
ATOM     28  C   LIG A   1      -3.496   5.018 128.462  0.00  0.00    +0.048 A 
ATOM     29  C   LIG A   1      -3.301   4.842 129.812  0.00  0.00    +0.195 A 
ATOM     30  O   LIG A   1      -4.438   4.394 130.399  0.00  0.00    -0.471 OA
ATOM     31  C   LIG A   1      -5.371   4.287 129.420  0.00  0.00    +0.202 A 
ENDBRANCH   6  27
BRANCH  19  32
ATOM     32  O   LIG A   1      -9.592   2.249 124.789  0.00  0.00    -0.391 OA
ATOM     33  H   LIG A   1     -10.181   1.955 124.074  0.00  0.00    +0.210 HD
ENDBRANCH  19  32
TORSDOF 2
ENDMDL
MODEL 2
REMARK VINA RESULT:      -8.9      2.360      6.350
REMARK  Name = NuBBE_1096
REMARK  7 active torsions:
REMARK  status: ('A' for Active; 'I' for Inactive)
REMARK    1  A    between atoms: C_1  and  C_2
REMARK    2  A    between atoms: C_4  and  C_5
REMARK    3  A    between atoms: C_6  and  C_14
REMARK    4  A    between atoms: C_23  and  C_24
REMARK    5  A    between atoms: C_28  and  O_30
REMARK    6  A    between atoms: C_31  and  C_32
REMARK    7  A    between atoms: C_31  and  C_33
REMARK                            x       y       z     vdW  Elec       q    Type
REMARK                         _______ _______ _______ _____ _____    ______ ____
ROOT
ATOM      1  C   LIG A   1      -5.777   2.036 126.672  0.00  0.00    +0.017 C 
ATOM      2  C   LIG A   1      -7.227   2.406 127.068  0.00  0.00    +0.030 C 
ATOM      3  C   LIG A   1      -8.187   2.458 125.785  0.00  0.00    +0.124 C 
ATOM      4  C   LIG A   1      -8.683   1.171 125.146  0.00  0.00    +0.042 C 
ATOM      5  C   LIG A   1     -10.124   1.347 124.564  0.00  0.00    +0.018 C 
ATOM      6  C   LIG A   1      -7.705   0.905 123.903  0.00  0.00    +0.218 C 
ATOM      7  O   LIG A   1      -6.541   1.807 123.844  0.00  0.00    -0.454 OA
ATOM      8  C   LIG A   1      -6.690   3.160 124.053  0.00  0.00    +0.340 C 
ATOM      9  O   LIG A   1      -5.804   3.976 123.851  0.00  0.00    -0.248 OA
ATOM     10  C   LIG A   1      -8.041   3.524 124.484  0.00  0.00    +0.260 C 
ATOM     11  O   LIG A   1      -8.778   3.707 125.666  0.00  0.00    -0.352 OA
ATOM     12  C   LIG A   1      -8.860   0.022 126.172  0.00  0.00    +0.014 C 
ATOM     13  C   LIG A   1      -7.884  -0.026 127.336  0.00  0.00    +0.006 C 
ATOM     14  C   LIG A   1      -7.858   1.346 128.049  0.00  0.00    +0.010 C 
ATOM     15  C   LIG A   1      -7.330   1.299 129.539  0.00  0.00    -0.006 C 
ATOM     16  C   LIG A   1      -5.949   0.599 129.668  0.00  0.00    +0.016 C 
ATOM     17  C   LIG A   1      -7.212   2.729 130.189  0.00  0.00    +0.014 C 
ATOM     18  C   LIG A   1      -6.576   3.735 129.208  0.00  0.00    +0.037 C 
ATOM     19  C   LIG A   1      -7.208   3.783 127.816  0.00  0.00    +0.124 C 
ATOM     20  C   LIG A   1      -8.478   3.273 130.957  0.00  0.00    +0.031 C 
ATOM     21  C   LIG A   1      -8.070   4.460 131.866  0.00  0.00    +0.019 C 
ATOM     22  C   LIG A   1      -9.652   3.745 130.088  0.00  0.00    +0.019 C 
ATOM     23  C   LIG A   1      -9.037   2.182 131.877  0.00  0.00    +0.162 C 
ATOM     24  O   LIG A   1      -9.606   2.418 132.942  0.00  0.00    -0.292 OA
ATOM     25  C   LIG A   1      -8.989   0.783 131.421  0.00  0.00    +0.043 C 
ATOM     26  C   LIG A   1      -8.254   0.411 130.369  0.00  0.00    -0.016 C 
ENDROOT
BRANCH   6  27
ATOM     27  C   LIG A   1      -7.256  -0.518 123.733  0.00  0.00    +0.031 A 
ATOM     28  C   LIG A   1      -6.088  -1.125 124.286  0.00  0.00    +0.048 A 
ATOM     29  C   LIG A   1      -6.093  -2.437 123.872  0.00  0.00    +0.195 A 
ATOM     30  O   LIG A   1      -7.190  -2.688 123.115  0.00  0.00    -0.471 OA
ATOM     31  C   LIG A   1      -7.896  -1.532 123.048  0.00  0.00    +0.202 A 
ENDBRANCH   6  27
BRANCH  19  32
ATOM     32  O   LIG A   1      -6.528   4.791 127.063  0.00  0.00    -0.391 OA
ATOM     33  H   LIG A   1      -6.861   5.670 127.312  0.00  0.00    +0.210 HD
ENDBRANCH  19  32
TORSDOF 2
ENDMDL
MODEL 3
REMARK VINA RESULT:      -8.7      1.954      2.967
REMARK  Name = NuBBE_1096
REMARK  7 active torsions:
REMARK  status: ('A' for Active; 'I' for Inactive)
REMARK    1  A    between atoms: C_1  and  C_2
REMARK    2  A    between atoms: C_4  and  C_5
REMARK    3  A    between atoms: C_6  and  C_14
REMARK    4  A    between atoms: C_23  and  C_24
REMARK    5  A    between atoms: C_28  and  O_30
REMARK    6  A    between atoms: C_31  and  C_32
REMARK    7  A    between atoms: C_31  and  C_33
REMARK                            x       y       z     vdW  Elec       q    Type
REMARK                         _______ _______ _______ _____ _____    ______ ____
ROOT
ATOM      1  C   LIG A   1      -7.953   3.023 126.022  0.00  0.00    +0.017 C 
ATOM      2  C   LIG A   1      -6.854   1.938 126.133  0.00  0.00    +0.030 C 
ATOM      3  C   LIG A   1      -5.661   2.412 127.094  0.00  0.00    +0.124 C 
ATOM      4  C   LIG A   1      -5.839   2.396 128.604  0.00  0.00    +0.042 C 
ATOM      5  C   LIG A   1      -4.497   2.058 129.329  0.00  0.00    +0.018 C 
ATOM      6  C   LIG A   1      -6.225   3.900 129.007  0.00  0.00    +0.218 C 
ATOM      7  O   LIG A   1      -6.486   4.787 127.859  0.00  0.00    -0.454 OA
ATOM      8  C   LIG A   1      -5.650   4.785 126.765  0.00  0.00    +0.340 C 
ATOM      9  O   LIG A   1      -5.713   5.607 125.865  0.00  0.00    -0.248 OA
ATOM     10  C   LIG A   1      -4.638   3.728 126.824  0.00  0.00    +0.260 C 
ATOM     11  O   LIG A   1      -4.451   2.396 126.417  0.00  0.00    -0.352 OA
ATOM     12  C   LIG A   1      -6.788   1.266 129.082  0.00  0.00    +0.014 C 
ATOM     13  C   LIG A   1      -7.945   0.896 128.169  0.00  0.00    +0.006 C 
ATOM     14  C   LIG A   1      -7.410   0.598 126.749  0.00  0.00    +0.010 C 
ATOM     15  C   LIG A   1      -8.372  -0.290 125.861  0.00  0.00    -0.006 C 
ATOM     16  C   LIG A   1      -9.816   0.277 125.784  0.00  0.00    +0.016 C 
ATOM     17  C   LIG A   1      -7.843  -0.473 124.388  0.00  0.00    +0.014 C 
ATOM     18  C   LIG A   1      -7.323   0.859 123.813  0.00  0.00    +0.037 C 
ATOM     19  C   LIG A   1      -6.324   1.609 124.695  0.00  0.00    +0.124 C 
ATOM     20  C   LIG A   1      -6.911  -1.716 124.112  0.00  0.00    +0.031 C 
ATOM     21  C   LIG A   1      -6.831  -1.983 122.587  0.00  0.00    +0.019 C 
ATOM     22  C   LIG A   1      -5.471  -1.616 124.635  0.00  0.00    +0.019 C 
ATOM     23  C   LIG A   1      -7.514  -2.971 124.750  0.00  0.00    +0.162 C 
ATOM     24  O   LIG A   1      -7.369  -4.103 124.290  0.00  0.00    -0.292 OA
ATOM     25  C   LIG A   1      -8.213  -2.840 126.040  0.00  0.00    +0.043 C 
ATOM     26  C   LIG A   1      -8.561  -1.648 126.533  0.00  0.00    -0.016 C 
ENDROOT
BRANCH   6  27
ATOM     27  C   LIG A   1      -7.330   4.032 130.014  0.00  0.00    +0.031 A 
ATOM     28  C   LIG A   1      -8.719   4.228 129.750  0.00  0.00    +0.048 A 
ATOM     29  C   LIG A   1      -9.349   4.281 130.972  0.00  0.00    +0.195 A 
ATOM     30  O   LIG A   1      -8.450   4.115 131.973  0.00  0.00    -0.471 OA
ATOM     31  C   LIG A   1      -7.236   3.949 131.390  0.00  0.00    +0.202 A 
ENDBRANCH   6  27
BRANCH  19  32
ATOM     32  O   LIG A   1      -5.919   2.787 123.992  0.00  0.00    -0.391 OA
ATOM     33  H   LIG A   1      -6.414   3.556 124.323  0.00  0.00    +0.210 HD
ENDBRANCH  19  32
TORSDOF 2
ENDMDL
MODEL 4
REMARK VINA RESULT:      -8.5      4.420      6.834
REMARK  Name = NuBBE_1096
REMARK  7 active torsions:
REMARK  status: ('A' for Active; 'I' for Inactive)
REMARK    1  A    between atoms: C_1  and  C_2
REMARK    2  A    between atoms: C_4  and  C_5
REMARK    3  A    between atoms: C_6  and  C_14
REMARK    4  A    between atoms: C_23  and  C_24
REMARK    5  A    between atoms: C_28  and  O_30
REMARK    6  A    between atoms: C_31  and  C_32
REMARK    7  A    between atoms: C_31  and  C_33
REMARK                            x       y       z     vdW  Elec       q    Type
REMARK                         _______ _______ _______ _____ _____    ______ ____
ROOT
ATOM      1  C   LIG A   1      -7.156   4.401 129.415  0.00  0.00    +0.017 C 
ATOM      2  C   LIG A   1      -6.756   3.662 130.715  0.00  0.00    +0.030 C 
ATOM      3  C   LIG A   1      -6.935   4.603 132.001  0.00  0.00    +0.124 C 
ATOM      4  C   LIG A   1      -8.319   4.870 132.570  0.00  0.00    +0.042 C 
ATOM      5  C   LIG A   1      -8.272   5.028 134.124  0.00  0.00    +0.018 C 
ATOM      6  C   LIG A   1      -8.765   6.288 131.967  0.00  0.00    +0.218 C 
ATOM      7  O   LIG A   1      -7.860   6.818 130.932  0.00  0.00    -0.454 OA
ATOM      8  C   LIG A   1      -6.495   6.781 131.106  0.00  0.00    +0.340 C 
ATOM      9  O   LIG A   1      -5.705   7.351 130.371  0.00  0.00    -0.248 OA
ATOM     10  C   LIG A   1      -6.093   6.036 132.301  0.00  0.00    +0.260 C 
ATOM     11  O   LIG A   1      -5.735   4.732 132.684  0.00  0.00    -0.352 OA
ATOM     12  C   LIG A   1      -9.289   3.675 132.370  0.00  0.00    +0.014 C 
ATOM     13  C   LIG A   1      -9.125   2.852 131.104  0.00  0.00    +0.006 C 
ATOM     14  C   LIG A   1      -7.655   2.392 130.969  0.00  0.00    +0.010 C 
ATOM     15  C   LIG A   1      -7.446   1.130 130.040  0.00  0.00    -0.006 C 
ATOM     16  C   LIG A   1      -8.086   1.304 128.635  0.00  0.00    +0.016 C 
ATOM     17  C   LIG A   1      -5.926   0.766 129.839  0.00  0.00    +0.014 C 
ATOM     18  C   LIG A   1      -5.081   2.029 129.576  0.00  0.00    +0.037 C 
ATOM     19  C   LIG A   1      -5.275   3.168 130.578  0.00  0.00    +0.124 C 
ATOM     20  C   LIG A   1      -5.291  -0.246 130.870  0.00  0.00    +0.031 C 
ATOM     21  C   LIG A   1      -3.963  -0.808 130.302  0.00  0.00    +0.019 C 
ATOM     22  C   LIG A   1      -4.993   0.306 132.270  0.00  0.00    +0.019 C 
ATOM     23  C   LIG A   1      -6.228  -1.442 131.070  0.00  0.00    +0.162 C 
ATOM     24  O   LIG A   1      -5.833  -2.577 131.329  0.00  0.00    -0.292 OA
ATOM     25  C   LIG A   1      -7.682  -1.207 131.059  0.00  0.00    +0.043 C 
ATOM     26  C   LIG A   1      -8.205  -0.056 130.629  0.00  0.00    -0.016 C 
ENDROOT
BRANCH   6  27
ATOM     27  C   LIG A   1     -10.187   6.364 131.490  0.00  0.00    +0.031 A 
ATOM     28  C   LIG A   1     -10.647   6.303 130.140  0.00  0.00    +0.048 A 
ATOM     29  C   LIG A   1     -12.018   6.405 130.187  0.00  0.00    +0.195 A 
ATOM     30  O   LIG A   1     -12.439   6.508 131.472  0.00  0.00    -0.471 OA
ATOM     31  C   LIG A   1     -11.332   6.467 132.255  0.00  0.00    +0.202 A 
ENDBRANCH   6  27
BRANCH  19  32
ATOM     32  O   LIG A   1      -4.390   4.229 130.209  0.00  0.00    -0.391 OA
ATOM     33  H   LIG A   1      -3.553   3.861 129.878  0.00  0.00    +0.210 HD
ENDBRANCH  19  32
TORSDOF 2
ENDMDL
MODEL 5
REMARK VINA RESULT:      -8.5      2.297      3.089
REMARK  Name = NuBBE_1096
REMARK  7 active torsions:
REMARK  status: ('A' for Active; 'I' for Inactive)
REMARK    1  A    between atoms: C_1  and  C_2
REMARK    2  A    between atoms: C_4  and  C_5
REMARK    3  A    between atoms: C_6  and  C_14
REMARK    4  A    between atoms: C_23  and  C_24
REMARK    5  A    between atoms: C_28  and  O_30
REMARK    6  A    between atoms: C_31  and  C_32
REMARK    7  A    between atoms: C_31  and  C_33
REMARK                            x       y       z     vdW  Elec       q    Type
REMARK                         _______ _______ _______ _____ _____    ______ ____
ROOT
ATOM      1  C   LIG A   1      -6.998   3.455 128.278  0.00  0.00    +0.017 C 
ATOM      2  C   LIG A   1      -6.150   2.292 127.709  0.00  0.00    +0.030 C 
ATOM      3  C   LIG A   1      -4.929   2.838 126.825  0.00  0.00    +0.124 C 
ATOM      4  C   LIG A   1      -3.695   3.419 127.495  0.00  0.00    +0.042 C 
ATOM      5  C   LIG A   1      -2.403   3.112 126.670  0.00  0.00    +0.018 C 
ATOM      6  C   LIG A   1      -3.901   5.010 127.470  0.00  0.00    +0.218 C 
ATOM      7  O   LIG A   1      -5.236   5.440 127.017  0.00  0.00    -0.454 OA
ATOM      8  C   LIG A   1      -5.824   4.864 125.913  0.00  0.00    +0.340 C 
ATOM      9  O   LIG A   1      -6.842   5.289 125.392  0.00  0.00    -0.248 OA
ATOM     10  C   LIG A   1      -5.064   3.725 125.394  0.00  0.00    +0.260 C 
ATOM     11  O   LIG A   1      -4.992   2.329 125.536  0.00  0.00    -0.352 OA
ATOM     12  C   LIG A   1      -3.395   2.763 128.869  0.00  0.00    +0.014 C 
ATOM     13  C   LIG A   1      -4.587   2.321 129.703  0.00  0.00    +0.006 C 
ATOM     14  C   LIG A   1      -5.509   1.417 128.853  0.00  0.00    +0.010 C 
ATOM     15  C   LIG A   1      -6.460   0.476 129.696  0.00  0.00    -0.006 C 
ATOM     16  C   LIG A   1      -7.293   1.252 130.753  0.00  0.00    +0.016 C 
ATOM     17  C   LIG A   1      -7.460  -0.343 128.796  0.00  0.00    +0.014 C 
ATOM     18  C   LIG A   1      -8.080   0.547 127.700  0.00  0.00    +0.037 C 
ATOM     19  C   LIG A   1      -7.081   1.354 126.868  0.00  0.00    +0.124 C 
ATOM     20  C   LIG A   1      -6.977  -1.759 128.296  0.00  0.00    +0.031 C 
ATOM     21  C   LIG A   1      -8.193  -2.583 127.800  0.00  0.00    +0.019 C 
ATOM     22  C   LIG A   1      -5.933  -1.765 127.171  0.00  0.00    +0.019 C 
ATOM     23  C   LIG A   1      -6.358  -2.540 129.460  0.00  0.00    +0.162 C 
ATOM     24  O   LIG A   1      -6.402  -3.765 129.555  0.00  0.00    -0.292 OA
ATOM     25  C   LIG A   1      -5.577  -1.801 130.466  0.00  0.00    +0.043 C 
ATOM     26  C   LIG A   1      -5.608  -0.468 130.541  0.00  0.00    -0.016 C 
ENDROOT
BRANCH   6  27
ATOM     27  C   LIG A   1      -3.537   5.725 128.739  0.00  0.00    +0.031 A 
ATOM     28  C   LIG A   1      -2.247   6.204 129.118  0.00  0.00    +0.048 A 
ATOM     29  C   LIG A   1      -2.395   6.796 130.351  0.00  0.00    +0.195 A 
ATOM     30  O   LIG A   1      -3.688   6.732 130.753  0.00  0.00    -0.471 OA
ATOM     31  C   LIG A   1      -4.376   6.100 129.770  0.00  0.00    +0.202 A 
ENDBRANCH   6  27
BRANCH  19  32
ATOM     32  O   LIG A   1      -7.821   2.079 125.881  0.00  0.00    -0.391 OA
ATOM     33  H   LIG A   1      -7.464   2.980 125.798  0.00  0.00    +0.210 HD
ENDBRANCH  19  32
TORSDOF 2
ENDMDL
MODEL 6
REMARK VINA RESULT:      -8.4      3.937      8.670
REMARK  Name = NuBBE_1096
REMARK  7 active torsions:
REMARK  status: ('A' for Active; 'I' for Inactive)
REMARK    1  A    between atoms: C_1  and  C_2
REMARK    2  A    between atoms: C_4  and  C_5
REMARK    3  A    between atoms: C_6  and  C_14
REMARK    4  A    between atoms: C_23  and  C_24
REMARK    5  A    between atoms: C_28  and  O_30
REMARK    6  A    between atoms: C_31  and  C_32
REMARK    7  A    between atoms: C_31  and  C_33
REMARK                            x       y       z     vdW  Elec       q    Type
REMARK                         _______ _______ _______ _____ _____    ______ ____
ROOT
ATOM      1  C   LIG A   1      -6.461   4.711 129.368  0.00  0.00    +0.017 C 
ATOM      2  C   LIG A   1      -6.280   4.963 130.885  0.00  0.00    +0.030 C 
ATOM      3  C   LIG A   1      -7.524   4.398 131.723  0.00  0.00    +0.124 C 
ATOM      4  C   LIG A   1      -7.663   2.906 131.980  0.00  0.00    +0.042 C 
ATOM      5  C   LIG A   1      -8.318   2.629 133.372  0.00  0.00    +0.018 C 
ATOM      6  C   LIG A   1      -8.685   2.371 130.865  0.00  0.00    +0.218 C 
ATOM      7  O   LIG A   1      -9.032   3.366 129.834  0.00  0.00    -0.454 OA
ATOM      8  C   LIG A   1      -9.340   4.661 130.183  0.00  0.00    +0.340 C 
ATOM      9  O   LIG A   1      -9.797   5.481 129.402  0.00  0.00    -0.248 OA
ATOM     10  C   LIG A   1      -9.121   4.936 131.605  0.00  0.00    +0.260 C 
ATOM     11  O   LIG A   1      -8.115   5.410 132.464  0.00  0.00    -0.352 OA
ATOM     12  C   LIG A   1      -6.292   2.188 132.091  0.00  0.00    +0.014 C 
ATOM     13  C   LIG A   1      -5.159   2.717 131.227  0.00  0.00    +0.006 C 
ATOM     14  C   LIG A   1      -5.000   4.238 131.452  0.00  0.00    +0.010 C 
ATOM     15  C   LIG A   1      -3.580   4.813 131.061  0.00  0.00    -0.006 C 
ATOM     16  C   LIG A   1      -3.154   4.435 129.615  0.00  0.00    +0.016 C 
ATOM     17  C   LIG A   1      -3.499   6.380 131.197  0.00  0.00    +0.014 C 
ATOM     18  C   LIG A   1      -4.758   7.056 130.617  0.00  0.00    +0.037 C 
ATOM     19  C   LIG A   1      -6.091   6.500 131.120  0.00  0.00    +0.124 C 
ATOM     20  C   LIG A   1      -3.029   6.954 132.590  0.00  0.00    +0.031 C 
ATOM     21  C   LIG A   1      -2.607   8.437 132.430  0.00  0.00    +0.019 C 
ATOM     22  C   LIG A   1      -4.051   6.890 133.733  0.00  0.00    +0.019 C 
ATOM     23  C   LIG A   1      -1.792   6.192 133.076  0.00  0.00    +0.162 C 
ATOM     24  O   LIG A   1      -0.910   6.699 133.766  0.00  0.00    -0.292 OA
ATOM     25  C   LIG A   1      -1.700   4.748 132.798  0.00  0.00    +0.043 C 
ATOM     26  C   LIG A   1      -2.515   4.146 131.927  0.00  0.00    -0.016 C 
ENDROOT
BRANCH   6  27
ATOM     27  C   LIG A   1      -8.303   1.073 130.214  0.00  0.00    +0.031 A 
ATOM     28  C   LIG A   1      -7.744   0.893 128.913  0.00  0.00    +0.048 A 
ATOM     29  C   LIG A   1      -7.553  -0.460 128.751  0.00  0.00    +0.195 A 
ATOM     30  O   LIG A   1      -7.940  -1.127 129.866  0.00  0.00    -0.471 OA
ATOM     31  C   LIG A   1      -8.376  -0.197 130.752  0.00  0.00    +0.202 A 
ENDBRANCH   6  27
BRANCH  19  32
ATOM     32  O   LIG A   1      -7.138   7.266 130.518  0.00  0.00    -0.391 OA
ATOM     33  H   LIG A   1      -7.049   8.201 130.769  0.00  0.00    +0.210 HD
ENDBRANCH  19  32
TORSDOF 2
ENDMDL
MODEL 7
REMARK VINA RESULT:      -8.3      3.115      5.390
REMARK  Name = NuBBE_1096
REMARK  7 active torsions:
REMARK  status: ('A' for Active; 'I' for Inactive)
REMARK    1  A    between atoms: C_1  and  C_2
REMARK    2  A    between atoms: C_4  and  C_5
REMARK    3  A    between atoms: C_6  and  C_14
REMARK    4  A    between atoms: C_23  and  C_24
REMARK    5  A    between atoms: C_28  and  O_30
REMARK    6  A    between atoms: C_31  and  C_32
REMARK    7  A    between atoms: C_31  and  C_33
REMARK                            x       y       z     vdW  Elec       q    Type
REMARK                         _______ _______ _______ _____ _____    ______ ____
ROOT
ATOM      1  C   LIG A   1      -5.089  -0.251 129.023  0.00  0.00    +0.017 C 
ATOM      2  C   LIG A   1      -6.505  -0.868 128.903  0.00  0.00    +0.030 C 
ATOM      3  C   LIG A   1      -7.267  -0.857 130.314  0.00  0.00    +0.124 C 
ATOM      4  C   LIG A   1      -7.867   0.431 130.852  0.00  0.00    +0.042 C 
ATOM      5  C   LIG A   1      -9.173   0.152 131.665  0.00  0.00    +0.018 C 
ATOM      6  C   LIG A   1      -6.785   1.008 131.887  0.00  0.00    +0.218 C 
ATOM      7  O   LIG A   1      -5.499   0.290 131.882  0.00  0.00    -0.454 OA
ATOM      8  C   LIG A   1      -5.463  -1.087 131.872  0.00  0.00    +0.340 C 
ATOM      9  O   LIG A   1      -4.444  -1.737 132.039  0.00  0.00    -0.248 OA
ATOM     10  C   LIG A   1      -6.787  -1.690 131.703  0.00  0.00    +0.260 C 
ATOM     11  O   LIG A   1      -7.637  -2.143 130.680  0.00  0.00    -0.352 OA
ATOM     12  C   LIG A   1      -8.353   1.382 129.727  0.00  0.00    +0.014 C 
ATOM     13  C   LIG A   1      -7.559   1.387 128.431  0.00  0.00    +0.006 C 
ATOM     14  C   LIG A   1      -7.416  -0.059 127.903  0.00  0.00    +0.010 C 
ATOM     15  C   LIG A   1      -7.104  -0.164 126.356  0.00  0.00    -0.006 C 
ATOM     16  C   LIG A   1      -5.877   0.689 125.930  0.00  0.00    +0.016 C 
ATOM     17  C   LIG A   1      -6.853  -1.646 125.884  0.00  0.00    +0.014 C 
ATOM     18  C   LIG A   1      -5.946  -2.400 126.876  0.00  0.00    +0.037 C 
ATOM     19  C   LIG A   1      -6.372  -2.325 128.343  0.00  0.00    +0.124 C 
ATOM     20  C   LIG A   1      -8.111  -2.462 125.394  0.00  0.00    +0.031 C 
ATOM     21  C   LIG A   1      -7.648  -3.706 124.592  0.00  0.00    +0.019 C 
ATOM     22  C   LIG A   1      -9.072  -2.953 126.484  0.00  0.00    +0.019 C 
ATOM     23  C   LIG A   1      -8.948  -1.606 124.438  0.00  0.00    +0.162 C 
ATOM     24  O   LIG A   1      -9.610  -2.071 123.512  0.00  0.00    -0.292 OA
ATOM     25  C   LIG A   1      -9.057  -0.160 124.700  0.00  0.00    +0.043 C 
ATOM     26  C   LIG A   1      -8.256   0.459 125.571  0.00  0.00    -0.016 C 
ENDROOT
BRANCH   6  27
ATOM     27  C   LIG A   1      -6.543   2.488 131.803  0.00  0.00    +0.031 A 
ATOM     28  C   LIG A   1      -5.520   3.153 131.063  0.00  0.00    +0.048 A 
ATOM     29  C   LIG A   1      -5.692   4.501 131.278  0.00  0.00    +0.195 A 
ATOM     30  O   LIG A   1      -6.759   4.717 132.086  0.00  0.00    -0.471 OA
ATOM     31  C   LIG A   1      -7.279   3.501 132.387  0.00  0.00    +0.202 A 
ENDBRANCH   6  27
BRANCH  19  32
ATOM     32  O   LIG A   1      -5.452  -3.110 129.106  0.00  0.00    -0.391 OA
ATOM     33  H   LIG A   1      -5.788  -4.018 129.197  0.00  0.00    +0.210 HD
ENDBRANCH  19  32
TORSDOF 2
ENDMDL
MODEL 8
REMARK VINA RESULT:      -8.1      2.704      3.576
REMARK  Name = NuBBE_1096
REMARK  7 active torsions:
REMARK  status: ('A' for Active; 'I' for Inactive)
REMARK    1  A    between atoms: C_1  and  C_2
REMARK    2  A    between atoms: C_4  and  C_5
REMARK    3  A    between atoms: C_6  and  C_14
REMARK    4  A    between atoms: C_23  and  C_24
REMARK    5  A    between atoms: C_28  and  O_30
REMARK    6  A    between atoms: C_31  and  C_32
REMARK    7  A    between atoms: C_31  and  C_33
REMARK                            x       y       z     vdW  Elec       q    Type
REMARK                         _______ _______ _______ _____ _____    ______ ____
ROOT
ATOM      1  C   LIG A   1      -6.928   2.814 129.756  0.00  0.00    +0.017 C 
ATOM      2  C   LIG A   1      -6.387   1.750 128.770  0.00  0.00    +0.030 C 
ATOM      3  C   LIG A   1      -5.814   2.429 127.436  0.00  0.00    +0.124 C 
ATOM      4  C   LIG A   1      -4.459   3.119 127.446  0.00  0.00    +0.042 C 
ATOM      5  C   LIG A   1      -3.729   2.954 126.073  0.00  0.00    +0.018 C 
ATOM      6  C   LIG A   1      -4.774   4.681 127.626  0.00  0.00    +0.218 C 
ATOM      7  O   LIG A   1      -6.186   4.985 127.919  0.00  0.00    -0.454 OA
ATOM      8  C   LIG A   1      -7.198   4.371 127.215  0.00  0.00    +0.340 C 
ATOM      9  O   LIG A   1      -8.370   4.701 127.291  0.00  0.00    -0.248 OA
ATOM     10  C   LIG A   1      -6.711   3.321 126.317  0.00  0.00    +0.260 C 
ATOM     11  O   LIG A   1      -6.469   1.937 126.316  0.00  0.00    -0.352 OA
ATOM     12  C   LIG A   1      -3.466   2.473 128.448  0.00  0.00    +0.014 C 
ATOM     13  C   LIG A   1      -4.047   1.902 129.731  0.00  0.00    +0.006 C 
ATOM     14  C   LIG A   1      -5.196   0.925 129.392  0.00  0.00    +0.010 C 
ATOM     15  C   LIG A   1      -5.525  -0.120 130.532  0.00  0.00    -0.006 C 
ATOM     16  C   LIG A   1      -5.780   0.553 131.910  0.00  0.00    +0.016 C 
ATOM     17  C   LIG A   1      -6.774  -1.019 130.193  0.00  0.00    +0.014 C 
ATOM     18  C   LIG A   1      -7.923  -0.177 129.604  0.00  0.00    +0.037 C 
ATOM     19  C   LIG A   1      -7.537   0.738 128.441  0.00  0.00    +0.124 C 
ATOM     20  C   LIG A   1      -6.494  -2.372 129.431  0.00  0.00    +0.031 C 
ATOM     21  C   LIG A   1      -7.727  -3.304 129.549  0.00  0.00    +0.019 C 
ATOM     22  C   LIG A   1      -6.150  -2.256 127.940  0.00  0.00    +0.019 C 
ATOM     23  C   LIG A   1      -5.320  -3.106 130.087  0.00  0.00    +0.162 C 
ATOM     24  O   LIG A   1      -5.214  -4.331 130.113  0.00  0.00    -0.292 OA
ATOM     25  C   LIG A   1      -4.202  -2.310 130.621  0.00  0.00    +0.043 C 
ATOM     26  C   LIG A   1      -4.295  -0.988 130.786  0.00  0.00    -0.016 C 
ENDROOT
BRANCH   6  27
ATOM     27  C   LIG A   1      -3.885   5.409 128.593  0.00  0.00    +0.031 A 
ATOM     28  C   LIG A   1      -2.562   5.887 128.354  0.00  0.00    +0.048 A 
ATOM     29  C   LIG A   1      -2.147   6.493 129.517  0.00  0.00    +0.195 A 
ATOM     30  O   LIG A   1      -3.126   6.437 130.453  0.00  0.00    -0.471 OA
ATOM     31  C   LIG A   1      -4.179   5.797 129.885  0.00  0.00    +0.202 A 
ENDBRANCH   6  27
BRANCH  19  32
ATOM     32  O   LIG A   1      -8.723   1.403 127.995  0.00  0.00    -0.391 OA
ATOM     33  H   LIG A   1      -8.529   1.926 127.200  0.00  0.00    +0.210 HD
ENDBRANCH  19  32
TORSDOF 2
ENDMDL
MODEL 9
REMARK VINA RESULT:      -8.1      4.983      8.296
REMARK  Name = NuBBE_1096
REMARK  7 active torsions:
REMARK  status: ('A' for Active; 'I' for Inactive)
REMARK    1  A    between atoms: C_1  and  C_2
REMARK    2  A    between atoms: C_4  and  C_5
REMARK    3  A    between atoms: C_6  and  C_14
REMARK    4  A    between atoms: C_23  and  C_24
REMARK    5  A    between atoms: C_28  and  O_30
REMARK    6  A    between atoms: C_31  and  C_32
REMARK    7  A    between atoms: C_31  and  C_33
REMARK                            x       y       z     vdW  Elec       q    Type
REMARK                         _______ _______ _______ _____ _____    ______ ____
ROOT
ATOM      1  C   LIG A   1      -4.563  -0.234 131.875  0.00  0.00    +0.017 C 
ATOM      2  C   LIG A   1      -5.678  -0.342 130.807  0.00  0.00    +0.030 C 
ATOM      3  C   LIG A   1      -5.697  -1.795 130.129  0.00  0.00    +0.124 C 
ATOM      4  C   LIG A   1      -6.286  -2.982 130.874  0.00  0.00    +0.042 C 
ATOM      5  C   LIG A   1      -6.971  -3.986 129.890  0.00  0.00    +0.018 C 
ATOM      6  C   LIG A   1      -5.034  -3.744 131.526  0.00  0.00    +0.218 C 
ATOM      7  O   LIG A   1      -3.756  -3.021 131.406  0.00  0.00    -0.454 OA
ATOM      8  C   LIG A   1      -3.390  -2.432 130.217  0.00  0.00    +0.340 C 
ATOM      9  O   LIG A   1      -2.281  -1.970 130.005  0.00  0.00    -0.248 OA
ATOM     10  C   LIG A   1      -4.453  -2.474 129.210  0.00  0.00    +0.260 C 
ATOM     11  O   LIG A   1      -5.532  -1.697 128.756  0.00  0.00    -0.352 OA
ATOM     12  C   LIG A   1      -7.446  -2.578 131.823  0.00  0.00    +0.014 C 
ATOM     13  C   LIG A   1      -7.351  -1.219 132.496  0.00  0.00    +0.006 C 
ATOM     14  C   LIG A   1      -7.111  -0.126 131.429  0.00  0.00    +0.010 C 
ATOM     15  C   LIG A   1      -7.516   1.333 131.883  0.00  0.00    -0.006 C 
ATOM     16  C   LIG A   1      -6.866   1.746 133.233  0.00  0.00    +0.016 C 
ATOM     17  C   LIG A   1      -7.149   2.429 130.812  0.00  0.00    +0.014 C 
ATOM     18  C   LIG A   1      -5.736   2.196 130.239  0.00  0.00    +0.037 C 
ATOM     19  C   LIG A   1      -5.458   0.779 129.735  0.00  0.00    +0.124 C 
ATOM     20  C   LIG A   1      -8.248   2.769 129.732  0.00  0.00    +0.031 C 
ATOM     21  C   LIG A   1      -7.906   4.116 129.045  0.00  0.00    +0.019 C 
ATOM     22  C   LIG A   1      -8.458   1.730 128.623  0.00  0.00    +0.019 C 
ATOM     23  C   LIG A   1      -9.608   2.952 130.413  0.00  0.00    +0.162 C 
ATOM     24  O   LIG A   1     -10.479   3.714 129.996  0.00  0.00    -0.292 OA
ATOM     25  C   LIG A   1      -9.939   2.097 131.566  0.00  0.00    +0.043 C 
ATOM     26  C   LIG A   1      -9.012   1.364 132.188  0.00  0.00    -0.016 C 
ENDROOT
BRANCH   6  27
ATOM     27  C   LIG A   1      -5.229  -4.204 132.942  0.00  0.00    +0.031 A 
ATOM     28  C   LIG A   1      -5.816  -5.431 133.377  0.00  0.00    +0.048 A 
ATOM     29  C   LIG A   1      -5.774  -5.421 134.752  0.00  0.00    +0.195 A 
ATOM     30  O   LIG A   1      -5.186  -4.284 135.197  0.00  0.00    -0.471 OA
ATOM     31  C   LIG A   1      -4.844  -3.560 134.102  0.00  0.00    +0.202 A 
ENDBRANCH   6  27
BRANCH  19  32
ATOM     32  O   LIG A   1      -4.131   0.757 129.203  0.00  0.00    -0.391 OA
ATOM     33  H   LIG A   1      -3.993  -0.059 128.694  0.00  0.00    +0.210 HD
ENDBRANCH  19  32
TORSDOF 2
ENDMDL
