MODEL 1
REMARK VINA RESULT:      -7.1      0.000      0.000
REMARK  Name = NuBBE_2271
REMARK  6 active torsions:
REMARK  status: ('A' for Active; 'I' for Inactive)
REMARK    1  A    between atoms: C_1  and  C_18
REMARK    2  A    between atoms: C_4  and  C_7
REMARK    3  A    between atoms: C_11  and  C_14
REMARK    4  A    between atoms: C_14  and  C_15
REMARK    5  A    between atoms: C_14  and  C_16
REMARK    6  A    between atoms: C_14  and  O_17
REMARK                            x       y       z     vdW  Elec       q    Type
REMARK                         _______ _______ _______ _____ _____    ______ ____
ROOT
ATOM      1  C   LIG A   1      -6.350  -1.370 125.265  0.00  0.00    -0.047 A 
ATOM      2  C   LIG A   1      -7.253  -0.578 124.513  0.00  0.00    -0.033 A 
ATOM      3  C   LIG A   1      -8.352  -1.195 123.866  0.00  0.00    +0.024 A 
ATOM      4  C   LIG A   1      -8.520  -2.599 123.929  0.00  0.00    -0.040 A 
ATOM      5  C   LIG A   1      -7.589  -3.362 124.649  0.00  0.00    +0.004 A 
ATOM      6  C   LIG A   1      -6.523  -2.757 125.308  0.00  0.00    +0.004 A 
ATOM      7  C   LIG A   1      -9.657  -3.331 123.265  0.00  0.00    +0.044 C 
ATOM      8  C   LIG A   1      -9.334  -0.330 123.133  0.00  0.00    +0.164 C 
ATOM      9  O   LIG A   1     -10.241  -0.802 122.453  0.00  0.00    -0.292 OA
ATOM     10  C   LIG A   1      -9.219   1.166 123.297  0.00  0.00    +0.086 C 
ATOM     11  C   LIG A   1      -7.756   1.610 123.277  0.00  0.00    +0.032 C 
ATOM     12  C   LIG A   1      -7.053   0.923 124.459  0.00  0.00    +0.042 C 
ATOM     13  C   LIG A   1      -5.181  -0.773 126.003  0.00  0.00    +0.044 C 
ENDROOT
BRANCH  11  14
ATOM     14  C   LIG A   1      -7.600   3.162 123.301  0.00  0.00    +0.064 C 
ATOM     15  C   LIG A   1      -7.923   3.761 124.678  0.00  0.00    +0.041 C 
ATOM     16  C   LIG A   1      -6.177   3.593 122.915  0.00  0.00    +0.041 C 
BRANCH  14  17
ATOM     17  O   LIG A   1      -8.477   3.748 122.334  0.00  0.00    -0.389 OA
ATOM     18  H   LIG A   1      -8.556   4.700 122.511  0.00  0.00    +0.210 HD
ENDBRANCH  14  17
ENDBRANCH  11  14
TORSDOF 2
ENDMDL
MODEL 2
REMARK VINA RESULT:      -6.8      3.065      5.393
REMARK  Name = NuBBE_2271
REMARK  6 active torsions:
REMARK  status: ('A' for Active; 'I' for Inactive)
REMARK    1  A    between atoms: C_1  and  C_18
REMARK    2  A    between atoms: C_4  and  C_7
REMARK    3  A    between atoms: C_11  and  C_14
REMARK    4  A    between atoms: C_14  and  C_15
REMARK    5  A    between atoms: C_14  and  C_16
REMARK    6  A    between atoms: C_14  and  O_17
REMARK                            x       y       z     vdW  Elec       q    Type
REMARK                         _______ _______ _______ _____ _____    ______ ____
ROOT
ATOM      1  C   LIG A   1      -8.488  -3.440 128.448  0.00  0.00    -0.047 A 
ATOM      2  C   LIG A   1      -7.924  -2.741 127.353  0.00  0.00    -0.033 A 
ATOM      3  C   LIG A   1      -6.765  -1.951 127.550  0.00  0.00    +0.024 A 
ATOM      4  C   LIG A   1      -6.202  -1.821 128.842  0.00  0.00    -0.040 A 
ATOM      5  C   LIG A   1      -6.804  -2.493 129.915  0.00  0.00    +0.004 A 
ATOM      6  C   LIG A   1      -7.927  -3.291 129.721  0.00  0.00    +0.004 A 
ATOM      7  C   LIG A   1      -4.976  -0.996 129.135  0.00  0.00    +0.044 C 
ATOM      8  C   LIG A   1      -6.144  -1.275 126.363  0.00  0.00    +0.164 C 
ATOM      9  O   LIG A   1      -5.212  -0.483 126.474  0.00  0.00    -0.292 OA
ATOM     10  C   LIG A   1      -6.660  -1.638 124.992  0.00  0.00    +0.086 C 
ATOM     11  C   LIG A   1      -8.184  -1.769 124.996  0.00  0.00    +0.032 C 
ATOM     12  C   LIG A   1      -8.545  -2.894 125.979  0.00  0.00    +0.042 C 
ATOM     13  C   LIG A   1      -9.700  -4.322 128.301  0.00  0.00    +0.044 C 
ENDROOT
BRANCH  11  14
ATOM     14  C   LIG A   1      -8.769  -2.004 123.568  0.00  0.00    +0.064 C 
ATOM     15  C   LIG A   1      -7.681  -2.011 122.484  0.00  0.00    +0.041 C 
ATOM     16  C   LIG A   1      -9.537  -3.331 123.483  0.00  0.00    +0.041 C 
BRANCH  14  17
ATOM     17  O   LIG A   1      -9.710  -0.971 123.260  0.00  0.00    -0.389 OA
ATOM     18  H   LIG A   1      -9.852  -0.945 122.299  0.00  0.00    +0.210 HD
ENDBRANCH  14  17
ENDBRANCH  11  14
TORSDOF 2
ENDMDL
MODEL 3
REMARK VINA RESULT:      -6.5      2.382      3.247
REMARK  Name = NuBBE_2271
REMARK  6 active torsions:
REMARK  status: ('A' for Active; 'I' for Inactive)
REMARK    1  A    between atoms: C_1  and  C_18
REMARK    2  A    between atoms: C_4  and  C_7
REMARK    3  A    between atoms: C_11  and  C_14
REMARK    4  A    between atoms: C_14  and  C_15
REMARK    5  A    between atoms: C_14  and  C_16
REMARK    6  A    between atoms: C_14  and  O_17
REMARK                            x       y       z     vdW  Elec       q    Type
REMARK                         _______ _______ _______ _____ _____    ______ ____
ROOT
ATOM      1  C   LIG A   1      -8.547  -2.262 124.010  0.00  0.00    -0.047 A 
ATOM      2  C   LIG A   1      -8.332  -1.126 124.829  0.00  0.00    -0.033 A 
ATOM      3  C   LIG A   1      -8.194  -1.291 126.230  0.00  0.00    +0.024 A 
ATOM      4  C   LIG A   1      -8.319  -2.574 126.812  0.00  0.00    -0.040 A 
ATOM      5  C   LIG A   1      -8.570  -3.676 125.982  0.00  0.00    +0.004 A 
ATOM      6  C   LIG A   1      -8.680  -3.522 124.603  0.00  0.00    +0.004 A 
ATOM      7  C   LIG A   1      -8.191  -2.832 128.291  0.00  0.00    +0.044 C 
ATOM      8  C   LIG A   1      -7.899  -0.083 127.070  0.00  0.00    +0.164 C 
ATOM      9  O   LIG A   1      -7.882  -0.129 128.297  0.00  0.00    -0.292 OA
ATOM     10  C   LIG A   1      -7.557   1.205 126.363  0.00  0.00    +0.086 C 
ATOM     11  C   LIG A   1      -8.453   1.415 125.142  0.00  0.00    +0.032 C 
ATOM     12  C   LIG A   1      -8.204   0.238 124.183  0.00  0.00    +0.042 C 
ATOM     13  C   LIG A   1      -8.671  -2.160 122.512  0.00  0.00    +0.044 C 
ENDROOT
BRANCH  11  14
ATOM     14  C   LIG A   1      -8.228   2.803 124.464  0.00  0.00    +0.064 C 
ATOM     15  C   LIG A   1      -6.767   3.268 124.555  0.00  0.00    +0.041 C 
ATOM     16  C   LIG A   1      -8.631   2.781 122.982  0.00  0.00    +0.041 C 
BRANCH  14  17
ATOM     17  O   LIG A   1      -9.056   3.784 125.095  0.00  0.00    -0.389 OA
ATOM     18  H   LIG A   1      -8.581   4.631 125.126  0.00  0.00    +0.210 HD
ENDBRANCH  14  17
ENDBRANCH  11  14
TORSDOF 2
ENDMDL
MODEL 4
REMARK VINA RESULT:      -6.4      1.965      2.076
REMARK  Name = NuBBE_2271
REMARK  6 active torsions:
REMARK  status: ('A' for Active; 'I' for Inactive)
REMARK    1  A    between atoms: C_1  and  C_18
REMARK    2  A    between atoms: C_4  and  C_7
REMARK    3  A    between atoms: C_11  and  C_14
REMARK    4  A    between atoms: C_14  and  C_15
REMARK    5  A    between atoms: C_14  and  C_16
REMARK    6  A    between atoms: C_14  and  O_17
REMARK                            x       y       z     vdW  Elec       q    Type
REMARK                         _______ _______ _______ _____ _____    ______ ____
ROOT
ATOM      1  C   LIG A   1      -8.035  -1.638 127.472  0.00  0.00    -0.047 A 
ATOM      2  C   LIG A   1      -8.324  -0.771 126.390  0.00  0.00    -0.033 A 
ATOM      3  C   LIG A   1      -8.831  -1.308 125.180  0.00  0.00    +0.024 A 
ATOM      4  C   LIG A   1      -9.001  -2.705 125.037  0.00  0.00    -0.040 A 
ATOM      5  C   LIG A   1      -8.670  -3.544 126.112  0.00  0.00    +0.004 A 
ATOM      6  C   LIG A   1      -8.197  -3.018 127.311  0.00  0.00    +0.004 A 
ATOM      7  C   LIG A   1      -9.528  -3.354 123.784  0.00  0.00    +0.044 C 
ATOM      8  C   LIG A   1      -9.195  -0.365 124.072  0.00  0.00    +0.164 C 
ATOM      9  O   LIG A   1      -9.527  -0.763 122.958  0.00  0.00    -0.292 OA
ATOM     10  C   LIG A   1      -9.201   1.114 124.373  0.00  0.00    +0.086 C 
ATOM     11  C   LIG A   1      -8.007   1.501 125.246  0.00  0.00    +0.032 C 
ATOM     12  C   LIG A   1      -8.132   0.722 126.566  0.00  0.00    +0.042 C 
ATOM     13  C   LIG A   1      -7.524  -1.129 128.795  0.00  0.00    +0.044 C 
ENDROOT
BRANCH  11  14
ATOM     14  C   LIG A   1      -7.897   3.042 125.463  0.00  0.00    +0.064 C 
ATOM     15  C   LIG A   1      -7.654   3.409 126.936  0.00  0.00    +0.041 C 
ATOM     16  C   LIG A   1      -6.763   3.652 124.627  0.00  0.00    +0.041 C 
BRANCH  14  17
ATOM     17  O   LIG A   1      -9.105   3.675 125.032  0.00  0.00    -0.389 OA
ATOM     18  H   LIG A   1      -9.732   2.996 124.731  0.00  0.00    +0.210 HD
ENDBRANCH  14  17
ENDBRANCH  11  14
TORSDOF 2
ENDMDL
MODEL 5
REMARK VINA RESULT:      -6.3      3.272      5.396
REMARK  Name = NuBBE_2271
REMARK  6 active torsions:
REMARK  status: ('A' for Active; 'I' for Inactive)
REMARK    1  A    between atoms: C_1  and  C_18
REMARK    2  A    between atoms: C_4  and  C_7
REMARK    3  A    between atoms: C_11  and  C_14
REMARK    4  A    between atoms: C_14  and  C_15
REMARK    5  A    between atoms: C_14  and  C_16
REMARK    6  A    between atoms: C_14  and  O_17
REMARK                            x       y       z     vdW  Elec       q    Type
REMARK                         _______ _______ _______ _____ _____    ______ ____
ROOT
ATOM      1  C   LIG A   1      -7.586  -1.851 129.074  0.00  0.00    -0.047 A 
ATOM      2  C   LIG A   1      -7.939  -1.332 127.804  0.00  0.00    -0.033 A 
ATOM      3  C   LIG A   1      -8.213   0.051 127.665  0.00  0.00    +0.024 A 
ATOM      4  C   LIG A   1      -8.182   0.900 128.796  0.00  0.00    -0.040 A 
ATOM      5  C   LIG A   1      -7.867   0.353 130.049  0.00  0.00    +0.004 A 
ATOM      6  C   LIG A   1      -7.571  -1.000 130.185  0.00  0.00    +0.004 A 
ATOM      7  C   LIG A   1      -8.465   2.378 128.734  0.00  0.00    +0.044 C 
ATOM      8  C   LIG A   1      -8.517   0.590 126.299  0.00  0.00    +0.164 C 
ATOM      9  O   LIG A   1      -8.878   1.751 126.120  0.00  0.00    -0.292 OA
ATOM     10  C   LIG A   1      -8.311  -0.323 125.115  0.00  0.00    +0.086 C 
ATOM     11  C   LIG A   1      -8.798  -1.739 125.424  0.00  0.00    +0.032 C 
ATOM     12  C   LIG A   1      -7.967  -2.262 126.607  0.00  0.00    +0.042 C 
ATOM     13  C   LIG A   1      -7.252  -3.305 129.284  0.00  0.00    +0.044 C 
ENDROOT
BRANCH  11  14
ATOM     14  C   LIG A   1      -8.735  -2.679 124.180  0.00  0.00    +0.064 C 
ATOM     15  C   LIG A   1      -8.256  -1.947 122.917  0.00  0.00    +0.041 C 
ATOM     16  C   LIG A   1      -7.800  -3.874 124.421  0.00  0.00    +0.041 C 
BRANCH  14  17
ATOM     17  O   LIG A   1     -10.032  -3.225 123.924  0.00  0.00    -0.389 OA
ATOM     18  H   LIG A   1     -10.389  -2.832 123.110  0.00  0.00    +0.210 HD
ENDBRANCH  14  17
ENDBRANCH  11  14
TORSDOF 2
ENDMDL
MODEL 6
REMARK VINA RESULT:      -6.3      3.357      5.294
REMARK  Name = NuBBE_2271
REMARK  6 active torsions:
REMARK  status: ('A' for Active; 'I' for Inactive)
REMARK    1  A    between atoms: C_1  and  C_18
REMARK    2  A    between atoms: C_4  and  C_7
REMARK    3  A    between atoms: C_11  and  C_14
REMARK    4  A    between atoms: C_14  and  C_15
REMARK    5  A    between atoms: C_14  and  C_16
REMARK    6  A    between atoms: C_14  and  O_17
REMARK                            x       y       z     vdW  Elec       q    Type
REMARK                         _______ _______ _______ _____ _____    ______ ____
ROOT
ATOM      1  C   LIG A   1      -7.818   0.551 127.905  0.00  0.00    -0.047 A 
ATOM      2  C   LIG A   1      -8.122  -0.685 127.284  0.00  0.00    -0.033 A 
ATOM      3  C   LIG A   1      -8.114  -1.874 128.054  0.00  0.00    +0.024 A 
ATOM      4  C   LIG A   1      -7.758  -1.834 129.423  0.00  0.00    -0.040 A 
ATOM      5  C   LIG A   1      -7.425  -0.602 130.003  0.00  0.00    +0.004 A 
ATOM      6  C   LIG A   1      -7.457   0.573 129.256  0.00  0.00    +0.004 A 
ATOM      7  C   LIG A   1      -7.721  -3.053 130.308  0.00  0.00    +0.044 C 
ATOM      8  C   LIG A   1      -8.505  -3.163 127.392  0.00  0.00    +0.164 C 
ATOM      9  O   LIG A   1      -8.410  -4.246 127.963  0.00  0.00    -0.292 OA
ATOM     10  C   LIG A   1      -9.087  -3.096 126.001  0.00  0.00    +0.086 C 
ATOM     11  C   LIG A   1      -8.338  -2.076 125.142  0.00  0.00    +0.032 C 
ATOM     12  C   LIG A   1      -8.498  -0.703 125.816  0.00  0.00    +0.042 C 
ATOM     13  C   LIG A   1      -7.839   1.856 127.151  0.00  0.00    +0.044 C 
ENDROOT
BRANCH  11  14
ATOM     14  C   LIG A   1      -8.815  -2.078 123.657  0.00  0.00    +0.064 C 
ATOM     15  C   LIG A   1      -7.643  -2.006 122.666  0.00  0.00    +0.041 C 
ATOM     16  C   LIG A   1      -9.641  -3.331 123.329  0.00  0.00    +0.041 C 
BRANCH  14  17
ATOM     17  O   LIG A   1      -9.673  -0.956 123.426  0.00  0.00    -0.389 OA
ATOM     18  H   LIG A   1      -9.740  -0.433 124.243  0.00  0.00    +0.210 HD
ENDBRANCH  14  17
ENDBRANCH  11  14
TORSDOF 2
ENDMDL
MODEL 7
REMARK VINA RESULT:      -6.2      7.146      9.004
REMARK  Name = NuBBE_2271
REMARK  6 active torsions:
REMARK  status: ('A' for Active; 'I' for Inactive)
REMARK    1  A    between atoms: C_1  and  C_18
REMARK    2  A    between atoms: C_4  and  C_7
REMARK    3  A    between atoms: C_11  and  C_14
REMARK    4  A    between atoms: C_14  and  C_15
REMARK    5  A    between atoms: C_14  and  C_16
REMARK    6  A    between atoms: C_14  and  O_17
REMARK                            x       y       z     vdW  Elec       q    Type
REMARK                         _______ _______ _______ _____ _____    ______ ____
ROOT
ATOM      1  C   LIG A   1      -8.713   2.625 130.315  0.00  0.00    -0.047 A 
ATOM      2  C   LIG A   1      -9.116   3.965 130.533  0.00  0.00    -0.033 A 
ATOM      3  C   LIG A   1      -9.116   4.489 131.849  0.00  0.00    +0.024 A 
ATOM      4  C   LIG A   1      -8.763   3.666 132.944  0.00  0.00    -0.040 A 
ATOM      5  C   LIG A   1      -8.405   2.332 132.703  0.00  0.00    +0.004 A 
ATOM      6  C   LIG A   1      -8.378   1.820 131.409  0.00  0.00    +0.004 A 
ATOM      7  C   LIG A   1      -8.742   4.145 134.372  0.00  0.00    +0.044 C 
ATOM      8  C   LIG A   1      -9.480   5.931 132.050  0.00  0.00    +0.164 C 
ATOM      9  O   LIG A   1      -9.615   6.422 133.167  0.00  0.00    -0.292 OA
ATOM     10  C   LIG A   1      -9.624   6.801 130.825  0.00  0.00    +0.086 C 
ATOM     11  C   LIG A   1     -10.346   6.055 129.703  0.00  0.00    +0.032 C 
ATOM     12  C   LIG A   1      -9.492   4.828 129.345  0.00  0.00    +0.042 C 
ATOM     13  C   LIG A   1      -8.660   2.016 128.938  0.00  0.00    +0.044 C 
ENDROOT
BRANCH  11  14
ATOM     14  C   LIG A   1     -10.641   6.965 128.470  0.00  0.00    +0.064 C 
ATOM     15  C   LIG A   1     -12.130   6.971 128.091  0.00  0.00    +0.041 C 
ATOM     16  C   LIG A   1     -10.207   8.417 128.721  0.00  0.00    +0.041 C 
BRANCH  14  17
ATOM     17  O   LIG A   1      -9.889   6.506 127.344  0.00  0.00    -0.389 OA
ATOM     18  H   LIG A   1      -9.681   5.564 127.461  0.00  0.00    +0.210 HD
ENDBRANCH  14  17
ENDBRANCH  11  14
TORSDOF 2
ENDMDL
MODEL 8
REMARK VINA RESULT:      -6.2      3.042      5.012
REMARK  Name = NuBBE_2271
REMARK  6 active torsions:
REMARK  status: ('A' for Active; 'I' for Inactive)
REMARK    1  A    between atoms: C_1  and  C_18
REMARK    2  A    between atoms: C_4  and  C_7
REMARK    3  A    between atoms: C_11  and  C_14
REMARK    4  A    between atoms: C_14  and  C_15
REMARK    5  A    between atoms: C_14  and  C_16
REMARK    6  A    between atoms: C_14  and  O_17
REMARK                            x       y       z     vdW  Elec       q    Type
REMARK                         _______ _______ _______ _____ _____    ______ ____
ROOT
ATOM      1  C   LIG A   1      -5.673  -2.667 123.642  0.00  0.00    -0.047 A 
ATOM      2  C   LIG A   1      -6.465  -2.307 124.760  0.00  0.00    -0.033 A 
ATOM      3  C   LIG A   1      -7.726  -1.695 124.554  0.00  0.00    +0.024 A 
ATOM      4  C   LIG A   1      -8.171  -1.401 123.244  0.00  0.00    -0.040 A 
ATOM      5  C   LIG A   1      -7.349  -1.734 122.157  0.00  0.00    +0.004 A 
ATOM      6  C   LIG A   1      -6.122  -2.359 122.353  0.00  0.00    +0.004 A 
ATOM      7  C   LIG A   1      -9.495  -0.748 122.942  0.00  0.00    +0.044 C 
ATOM      8  C   LIG A   1      -8.579  -1.385 125.750  0.00  0.00    +0.164 C 
ATOM      9  O   LIG A   1      -9.627  -0.751 125.658  0.00  0.00    -0.292 OA
ATOM     10  C   LIG A   1      -8.143  -1.927 127.089  0.00  0.00    +0.086 C 
ATOM     11  C   LIG A   1      -6.630  -1.801 127.267  0.00  0.00    +0.032 C 
ATOM     12  C   LIG A   1      -5.967  -2.630 126.154  0.00  0.00    +0.042 C 
ATOM     13  C   LIG A   1      -4.338  -3.348 123.789  0.00  0.00    +0.044 C 
ENDROOT
BRANCH  11  14
ATOM     14  C   LIG A   1      -6.157  -2.220 128.694  0.00  0.00    +0.064 C 
ATOM     15  C   LIG A   1      -7.061  -3.294 129.319  0.00  0.00    +0.041 C 
ATOM     16  C   LIG A   1      -4.719  -2.759 128.678  0.00  0.00    +0.041 C 
BRANCH  14  17
ATOM     17  O   LIG A   1      -6.152  -1.076 129.553  0.00  0.00    -0.389 OA
ATOM     18  H   LIG A   1      -6.743  -1.239 130.306  0.00  0.00    +0.210 HD
ENDBRANCH  14  17
ENDBRANCH  11  14
TORSDOF 2
ENDMDL
MODEL 9
REMARK VINA RESULT:      -6.0      2.950      3.469
REMARK  Name = NuBBE_2271
REMARK  6 active torsions:
REMARK  status: ('A' for Active; 'I' for Inactive)
REMARK    1  A    between atoms: C_1  and  C_18
REMARK    2  A    between atoms: C_4  and  C_7
REMARK    3  A    between atoms: C_11  and  C_14
REMARK    4  A    between atoms: C_14  and  C_15
REMARK    5  A    between atoms: C_14  and  C_16
REMARK    6  A    between atoms: C_14  and  O_17
REMARK                            x       y       z     vdW  Elec       q    Type
REMARK                         _______ _______ _______ _____ _____    ______ ____
ROOT
ATOM      1  C   LIG A   1      -7.850  -2.145 128.341  0.00  0.00    -0.047 A 
ATOM      2  C   LIG A   1      -7.509  -1.347 127.222  0.00  0.00    -0.033 A 
ATOM      3  C   LIG A   1      -7.939  -1.735 125.929  0.00  0.00    +0.024 A 
ATOM      4  C   LIG A   1      -8.662  -2.939 125.751  0.00  0.00    -0.040 A 
ATOM      5  C   LIG A   1      -8.952  -3.730 126.871  0.00  0.00    +0.004 A 
ATOM      6  C   LIG A   1      -8.554  -3.338 128.147  0.00  0.00    +0.004 A 
ATOM      7  C   LIG A   1      -9.149  -3.424 124.410  0.00  0.00    +0.044 C 
ATOM      8  C   LIG A   1      -7.627  -0.839 124.767  0.00  0.00    +0.164 C 
ATOM      9  O   LIG A   1      -7.863  -1.166 123.607  0.00  0.00    -0.292 OA
ATOM     10  C   LIG A   1      -7.057   0.527 125.061  0.00  0.00    +0.086 C 
ATOM     11  C   LIG A   1      -6.018   0.460 126.181  0.00  0.00    +0.032 C 
ATOM     12  C   LIG A   1      -6.734  -0.063 127.438  0.00  0.00    +0.042 C 
ATOM     13  C   LIG A   1      -7.451  -1.772 129.745  0.00  0.00    +0.044 C 
ENDROOT
BRANCH  11  14
ATOM     14  C   LIG A   1      -5.302   1.825 126.418  0.00  0.00    +0.064 C 
ATOM     15  C   LIG A   1      -5.620   2.851 125.320  0.00  0.00    +0.041 C 
ATOM     16  C   LIG A   1      -5.689   2.440 127.771  0.00  0.00    +0.041 C 
BRANCH  14  17
ATOM     17  O   LIG A   1      -3.886   1.625 126.454  0.00  0.00    -0.389 OA
ATOM     18  H   LIG A   1      -3.443   2.408 126.087  0.00  0.00    +0.210 HD
ENDBRANCH  14  17
ENDBRANCH  11  14
TORSDOF 2
ENDMDL
