MODEL 1
REMARK VINA RESULT:      -7.4      0.000      0.000
REMARK  Name = NuBBE_1558
REMARK  5 active torsions:
REMARK  status: ('A' for Active; 'I' for Inactive)
REMARK    1  A    between atoms: C_7  and  C_8
REMARK    2  A    between atoms: C_11  and  O_14
REMARK    3  A    between atoms: O_14  and  C_15
REMARK    4  A    between atoms: C_17  and  O_21
REMARK    5  A    between atoms: C_19  and  O_20
REMARK                            x       y       z     vdW  Elec       q    Type
REMARK                         _______ _______ _______ _____ _____    ______ ____
ROOT
ATOM      1  O   LIG A   1      -9.364   5.164 129.020  0.00  0.00    -0.286 OA
ATOM      2  C   LIG A   1     -10.173   5.650 129.800  0.00  0.00    +0.204 A 
ATOM      3  C   LIG A   1     -11.046   6.789 129.413  0.00  0.00    +0.106 A 
ATOM      4  C   LIG A   1     -11.824   7.387 130.407  0.00  0.00    +0.145 A 
ATOM      5  O   LIG A   1     -11.855   6.941 131.702  0.00  0.00    -0.462 OA
ATOM      6  C   LIG A   1     -11.130   5.819 132.013  0.00  0.00    +0.208 A 
ATOM      7  C   LIG A   1     -10.304   5.136 131.206  0.00  0.00    +0.064 A 
ATOM      8  C   LIG A   1     -12.633   8.493 130.123  0.00  0.00    +0.092 A 
ATOM      9  C   LIG A   1     -12.668   8.994 128.829  0.00  0.00    +0.124 A 
ATOM     10  C   LIG A   1     -11.920   8.405 127.818  0.00  0.00    +0.091 A 
ATOM     11  C   LIG A   1     -11.111   7.302 128.109  0.00  0.00    +0.135 A 
ENDROOT
BRANCH   7  12
ATOM     12  C   LIG A   1      -9.575   3.934 131.695  0.00  0.00    -0.011 A 
ATOM     13  C   LIG A   1     -10.077   2.633 131.506  0.00  0.00    +0.012 A 
ATOM     14  C   LIG A   1      -9.383   1.512 131.983  0.00  0.00    +0.046 A 
ATOM     15  C   LIG A   1      -8.182   1.656 132.675  0.00  0.00    +0.120 A 
ATOM     16  C   LIG A   1      -7.672   2.935 132.873  0.00  0.00    +0.046 A 
ATOM     17  C   LIG A   1      -8.358   4.055 132.383  0.00  0.00    +0.012 A 
BRANCH  15  18
ATOM     18  O   LIG A   1      -7.615   0.488 133.104  0.00  0.00    -0.495 OA
ATOM     19  C   LIG A   1      -7.914  -0.680 132.350  0.00  0.00    +0.277 C 
ENDBRANCH  15  18
ENDBRANCH   7  12
BRANCH  11  20
ATOM     20  O   LIG A   1     -10.403   6.730 127.089  0.00  0.00    -0.506 OA
ATOM     21  H   LIG A   1      -9.686   7.319 126.804  0.00  0.00    +0.292 HD
ENDBRANCH  11  20
BRANCH   9  22
ATOM     22  O   LIG A   1     -13.436  10.072 128.501  0.00  0.00    -0.506 OA
ATOM     23  H   LIG A   1     -12.893  10.877 128.544  0.00  0.00    +0.292 HD
ENDBRANCH   9  22
TORSDOF 4
ENDMDL
MODEL 2
REMARK VINA RESULT:      -7.1      1.607      7.298
REMARK  Name = NuBBE_1558
REMARK  5 active torsions:
REMARK  status: ('A' for Active; 'I' for Inactive)
REMARK    1  A    between atoms: C_7  and  C_8
REMARK    2  A    between atoms: C_11  and  O_14
REMARK    3  A    between atoms: O_14  and  C_15
REMARK    4  A    between atoms: C_17  and  O_21
REMARK    5  A    between atoms: C_19  and  O_20
REMARK                            x       y       z     vdW  Elec       q    Type
REMARK                         _______ _______ _______ _____ _____    ______ ____
ROOT
ATOM      1  O   LIG A   1     -10.489   4.046 129.796  0.00  0.00    -0.286 OA
ATOM      2  C   LIG A   1      -9.979   4.373 130.860  0.00  0.00    +0.204 A 
ATOM      3  C   LIG A   1      -9.097   3.451 131.621  0.00  0.00    +0.106 A 
ATOM      4  C   LIG A   1      -8.687   3.840 132.898  0.00  0.00    +0.145 A 
ATOM      5  O   LIG A   1      -9.018   5.048 133.455  0.00  0.00    -0.462 OA
ATOM      6  C   LIG A   1      -9.737   5.931 132.691  0.00  0.00    +0.208 A 
ATOM      7  C   LIG A   1     -10.244   5.722 131.467  0.00  0.00    +0.064 A 
ATOM      8  C   LIG A   1      -7.895   3.000 133.689  0.00  0.00    +0.092 A 
ATOM      9  C   LIG A   1      -7.504   1.765 133.189  0.00  0.00    +0.124 A 
ATOM     10  C   LIG A   1      -7.882   1.364 131.914  0.00  0.00    +0.091 A 
ATOM     11  C   LIG A   1      -8.676   2.206 131.130  0.00  0.00    +0.135 A 
ENDROOT
BRANCH   7  12
ATOM     12  C   LIG A   1     -11.016   6.784 130.765  0.00  0.00    -0.011 A 
ATOM     13  C   LIG A   1     -12.322   7.133 131.154  0.00  0.00    +0.012 A 
ATOM     14  C   LIG A   1     -13.040   8.127 130.475  0.00  0.00    +0.046 A 
ATOM     15  C   LIG A   1     -12.484   8.789 129.382  0.00  0.00    +0.120 A 
ATOM     16  C   LIG A   1     -11.194   8.455 128.981  0.00  0.00    +0.046 A 
ATOM     17  C   LIG A   1     -10.471   7.471 129.670  0.00  0.00    +0.012 A 
BRANCH  15  18
ATOM     18  O   LIG A   1     -13.292   9.723 128.795  0.00  0.00    -0.495 OA
ATOM     19  C   LIG A   1     -13.587  10.883 129.564  0.00  0.00    +0.277 C 
ENDBRANCH  15  18
ENDBRANCH   7  12
BRANCH  11  20
ATOM     20  O   LIG A   1      -9.014   1.792 129.872  0.00  0.00    -0.506 OA
ATOM     21  H   LIG A   1      -9.114   2.556 129.281  0.00  0.00    +0.292 HD
ENDBRANCH  11  20
BRANCH   9  22
ATOM     22  O   LIG A   1      -6.737   0.909 133.921  0.00  0.00    -0.506 OA
ATOM     23  H   LIG A   1      -7.315   0.341 134.457  0.00  0.00    +0.292 HD
ENDBRANCH   9  22
TORSDOF 4
ENDMDL
MODEL 3
REMARK VINA RESULT:      -6.7      9.156      9.670
REMARK  Name = NuBBE_1558
REMARK  5 active torsions:
REMARK  status: ('A' for Active; 'I' for Inactive)
REMARK    1  A    between atoms: C_7  and  C_8
REMARK    2  A    between atoms: C_11  and  O_14
REMARK    3  A    between atoms: O_14  and  C_15
REMARK    4  A    between atoms: C_17  and  O_21
REMARK    5  A    between atoms: C_19  and  O_20
REMARK                            x       y       z     vdW  Elec       q    Type
REMARK                         _______ _______ _______ _____ _____    ______ ____
ROOT
ATOM      1  O   LIG A   1      -5.644  -1.790 128.029  0.00  0.00    -0.286 OA
ATOM      2  C   LIG A   1      -6.664  -2.384 127.703  0.00  0.00    +0.204 A 
ATOM      3  C   LIG A   1      -7.210  -2.304 126.323  0.00  0.00    +0.106 A 
ATOM      4  C   LIG A   1      -8.459  -2.877 126.077  0.00  0.00    +0.145 A 
ATOM      5  O   LIG A   1      -9.175  -3.549 127.033  0.00  0.00    -0.462 OA
ATOM      6  C   LIG A   1      -8.604  -3.709 128.269  0.00  0.00    +0.208 A 
ATOM      7  C   LIG A   1      -7.437  -3.204 128.697  0.00  0.00    +0.064 A 
ATOM      8  C   LIG A   1      -9.053  -2.797 124.813  0.00  0.00    +0.092 A 
ATOM      9  C   LIG A   1      -8.382  -2.146 123.786  0.00  0.00    +0.124 A 
ATOM     10  C   LIG A   1      -7.129  -1.586 124.000  0.00  0.00    +0.091 A 
ATOM     11  C   LIG A   1      -6.542  -1.666 125.266  0.00  0.00    +0.135 A 
ENDROOT
BRANCH   7  12
ATOM     12  C   LIG A   1      -6.951  -3.462 130.080  0.00  0.00    -0.011 A 
ATOM     13  C   LIG A   1      -5.974  -4.437 130.355  0.00  0.00    +0.012 A 
ATOM     14  C   LIG A   1      -5.536  -4.675 131.664  0.00  0.00    +0.046 A 
ATOM     15  C   LIG A   1      -6.069  -3.963 132.737  0.00  0.00    +0.120 A 
ATOM     16  C   LIG A   1      -7.038  -2.997 132.484  0.00  0.00    +0.046 A 
ATOM     17  C   LIG A   1      -7.465  -2.748 131.173  0.00  0.00    +0.012 A 
BRANCH  15  18
ATOM     18  O   LIG A   1      -5.572  -4.303 133.965  0.00  0.00    -0.495 OA
ATOM     19  C   LIG A   1      -5.883  -5.607 134.439  0.00  0.00    +0.277 C 
ENDBRANCH  15  18
ENDBRANCH   7  12
BRANCH  11  20
ATOM     20  O   LIG A   1      -5.300  -1.124 125.441  0.00  0.00    -0.506 OA
ATOM     21  H   LIG A   1      -5.276  -0.216 125.097  0.00  0.00    +0.292 HD
ENDBRANCH  11  20
BRANCH   9  22
ATOM     22  O   LIG A   1      -8.919  -2.038 122.538  0.00  0.00    -0.506 OA
ATOM     23  H   LIG A   1      -9.860  -2.281 122.572  0.00  0.00    +0.292 HD
ENDBRANCH   9  22
TORSDOF 4
ENDMDL
MODEL 4
REMARK VINA RESULT:      -6.6      8.982      9.797
REMARK  Name = NuBBE_1558
REMARK  5 active torsions:
REMARK  status: ('A' for Active; 'I' for Inactive)
REMARK    1  A    between atoms: C_7  and  C_8
REMARK    2  A    between atoms: C_11  and  O_14
REMARK    3  A    between atoms: O_14  and  C_15
REMARK    4  A    between atoms: C_17  and  O_21
REMARK    5  A    between atoms: C_19  and  O_20
REMARK                            x       y       z     vdW  Elec       q    Type
REMARK                         _______ _______ _______ _____ _____    ______ ____
ROOT
ATOM      1  O   LIG A   1      -8.992  -3.666 128.224  0.00  0.00    -0.286 OA
ATOM      2  C   LIG A   1      -8.001  -3.148 127.726  0.00  0.00    +0.204 A 
ATOM      3  C   LIG A   1      -7.951  -2.777 126.288  0.00  0.00    +0.106 A 
ATOM      4  C   LIG A   1      -6.733  -2.340 125.765  0.00  0.00    +0.145 A 
ATOM      5  O   LIG A   1      -5.602  -2.193 126.525  0.00  0.00    -0.462 OA
ATOM      6  C   LIG A   1      -5.698  -2.432 127.872  0.00  0.00    +0.208 A 
ATOM      7  C   LIG A   1      -6.767  -2.887 128.543  0.00  0.00    +0.064 A 
ATOM      8  C   LIG A   1      -6.602  -2.020 124.409  0.00  0.00    +0.092 A 
ATOM      9  C   LIG A   1      -7.707  -2.128 123.576  0.00  0.00    +0.124 A 
ATOM     10  C   LIG A   1      -8.936  -2.539 124.076  0.00  0.00    +0.091 A 
ATOM     11  C   LIG A   1      -9.059  -2.862 125.431  0.00  0.00    +0.135 A 
ENDROOT
BRANCH   7  12
ATOM     12  C   LIG A   1      -6.713  -3.106 130.014  0.00  0.00    -0.011 A 
ATOM     13  C   LIG A   1      -5.973  -4.159 130.581  0.00  0.00    +0.012 A 
ATOM     14  C   LIG A   1      -5.942  -4.358 131.968  0.00  0.00    +0.046 A 
ATOM     15  C   LIG A   1      -6.659  -3.526 132.826  0.00  0.00    +0.120 A 
ATOM     16  C   LIG A   1      -7.399  -2.481 132.282  0.00  0.00    +0.046 A 
ATOM     17  C   LIG A   1      -7.418  -2.272 130.896  0.00  0.00    +0.012 A 
BRANCH  15  18
ATOM     18  O   LIG A   1      -6.561  -3.837 134.154  0.00  0.00    -0.495 OA
ATOM     19  C   LIG A   1      -6.253  -5.189 134.471  0.00  0.00    +0.277 C 
ENDBRANCH  15  18
ENDBRANCH   7  12
BRANCH  11  20
ATOM     20  O   LIG A   1     -10.285  -3.243 125.898  0.00  0.00    -0.506 OA
ATOM     21  H   LIG A   1     -10.229  -4.113 126.326  0.00  0.00    +0.292 HD
ENDBRANCH  11  20
BRANCH   9  22
ATOM     22  O   LIG A   1      -7.632  -1.832 122.247  0.00  0.00    -0.506 OA
ATOM     23  H   LIG A   1      -8.304  -1.165 122.030  0.00  0.00    +0.292 HD
ENDBRANCH   9  22
TORSDOF 4
ENDMDL
MODEL 5
REMARK VINA RESULT:      -6.5      1.815      7.362
REMARK  Name = NuBBE_1558
REMARK  5 active torsions:
REMARK  status: ('A' for Active; 'I' for Inactive)
REMARK    1  A    between atoms: C_7  and  C_8
REMARK    2  A    between atoms: C_11  and  O_14
REMARK    3  A    between atoms: O_14  and  C_15
REMARK    4  A    between atoms: C_17  and  O_21
REMARK    5  A    between atoms: C_19  and  O_20
REMARK                            x       y       z     vdW  Elec       q    Type
REMARK                         _______ _______ _______ _____ _____    ______ ____
ROOT
ATOM      1  O   LIG A   1      -8.267   6.821 130.357  0.00  0.00    -0.286 OA
ATOM      2  C   LIG A   1      -8.868   5.767 130.521  0.00  0.00    +0.204 A 
ATOM      3  C   LIG A   1      -8.168   4.522 130.931  0.00  0.00    +0.106 A 
ATOM      4  C   LIG A   1      -8.897   3.331 130.939  0.00  0.00    +0.145 A 
ATOM      5  O   LIG A   1     -10.232   3.269 130.637  0.00  0.00    -0.462 OA
ATOM      6  C   LIG A   1     -10.885   4.445 130.372  0.00  0.00    +0.208 A 
ATOM      7  C   LIG A   1     -10.349   5.672 130.285  0.00  0.00    +0.064 A 
ATOM      8  C   LIG A   1      -8.289   2.115 131.269  0.00  0.00    +0.092 A 
ATOM      9  C   LIG A   1      -6.941   2.097 131.603  0.00  0.00    +0.124 A 
ATOM     10  C   LIG A   1      -6.199   3.271 131.623  0.00  0.00    +0.091 A 
ATOM     11  C   LIG A   1      -6.811   4.483 131.288  0.00  0.00    +0.135 A 
ENDROOT
BRANCH   7  12
ATOM     12  C   LIG A   1     -11.194   6.858 129.979  0.00  0.00    -0.011 A 
ATOM     13  C   LIG A   1     -11.043   7.590 128.787  0.00  0.00    +0.012 A 
ATOM     14  C   LIG A   1     -11.839   8.712 128.519  0.00  0.00    +0.046 A 
ATOM     15  C   LIG A   1     -12.795   9.146 129.436  0.00  0.00    +0.120 A 
ATOM     16  C   LIG A   1     -12.956   8.435 130.622  0.00  0.00    +0.046 A 
ATOM     17  C   LIG A   1     -12.170   7.304 130.882  0.00  0.00    +0.012 A 
BRANCH  15  18
ATOM     18  O   LIG A   1     -13.492  10.262 129.066  0.00  0.00    -0.495 OA
ATOM     19  C   LIG A   1     -13.617  11.288 130.043  0.00  0.00    +0.277 C 
ENDBRANCH  15  18
ENDBRANCH   7  12
BRANCH  11  20
ATOM     20  O   LIG A   1      -6.061   5.624 131.337  0.00  0.00    -0.506 OA
ATOM     21  H   LIG A   1      -5.673   5.811 130.467  0.00  0.00    +0.292 HD
ENDBRANCH  11  20
BRANCH   9  22
ATOM     22  O   LIG A   1      -6.301   0.938 131.928  0.00  0.00    -0.506 OA
ATOM     23  H   LIG A   1      -6.902   0.376 132.445  0.00  0.00    +0.292 HD
ENDBRANCH   9  22
TORSDOF 4
ENDMDL
MODEL 6
REMARK VINA RESULT:      -6.4      8.639     11.078
REMARK  Name = NuBBE_1558
REMARK  5 active torsions:
REMARK  status: ('A' for Active; 'I' for Inactive)
REMARK    1  A    between atoms: C_7  and  C_8
REMARK    2  A    between atoms: C_11  and  O_14
REMARK    3  A    between atoms: O_14  and  C_15
REMARK    4  A    between atoms: C_17  and  O_21
REMARK    5  A    between atoms: C_19  and  O_20
REMARK                            x       y       z     vdW  Elec       q    Type
REMARK                         _______ _______ _______ _____ _____    ______ ____
ROOT
ATOM      1  O   LIG A   1      -5.236  -2.175 127.382  0.00  0.00    -0.286 OA
ATOM      2  C   LIG A   1      -6.058  -2.481 128.236  0.00  0.00    +0.204 A 
ATOM      3  C   LIG A   1      -5.660  -2.750 129.643  0.00  0.00    +0.106 A 
ATOM      4  C   LIG A   1      -6.630  -3.248 130.515  0.00  0.00    +0.145 A 
ATOM      5  O   LIG A   1      -7.934  -3.451 130.147  0.00  0.00    -0.462 OA
ATOM      6  C   LIG A   1      -8.306  -3.090 128.877  0.00  0.00    +0.208 A 
ATOM      7  C   LIG A   1      -7.514  -2.631 127.897  0.00  0.00    +0.064 A 
ATOM      8  C   LIG A   1      -6.313  -3.568 131.840  0.00  0.00    +0.092 A 
ATOM      9  C   LIG A   1      -5.016  -3.375 132.295  0.00  0.00    +0.124 A 
ATOM     10  C   LIG A   1      -4.038  -2.861 131.453  0.00  0.00    +0.091 A 
ATOM     11  C   LIG A   1      -4.359  -2.547 130.129  0.00  0.00    +0.135 A 
ENDROOT
BRANCH   7  12
ATOM     12  C   LIG A   1      -8.069  -2.288 126.559  0.00  0.00    -0.011 A 
ATOM     13  C   LIG A   1      -8.406  -0.966 126.212  0.00  0.00    +0.012 A 
ATOM     14  C   LIG A   1      -8.938  -0.661 124.952  0.00  0.00    +0.046 A 
ATOM     15  C   LIG A   1      -9.165  -1.663 124.011  0.00  0.00    +0.120 A 
ATOM     16  C   LIG A   1      -8.841  -2.976 124.338  0.00  0.00    +0.046 A 
ATOM     17  C   LIG A   1      -8.293  -3.279 125.593  0.00  0.00    +0.012 A 
BRANCH  15  18
ATOM     18  O   LIG A   1      -9.706  -1.239 122.828  0.00  0.00    -0.495 OA
ATOM     19  C   LIG A   1      -9.916   0.161 122.690  0.00  0.00    +0.277 C 
ENDBRANCH  15  18
ENDBRANCH   7  12
BRANCH  11  20
ATOM     20  O   LIG A   1      -3.381  -2.023 129.331  0.00  0.00    -0.506 OA
ATOM     21  H   LIG A   1      -2.610  -2.612 129.310  0.00  0.00    +0.292 HD
ENDBRANCH  11  20
BRANCH   9  22
ATOM     22  O   LIG A   1      -4.655  -3.674 133.575  0.00  0.00    -0.506 OA
ATOM     23  H   LIG A   1      -5.290  -3.268 134.189  0.00  0.00    +0.292 HD
ENDBRANCH   9  22
TORSDOF 4
ENDMDL
MODEL 7
REMARK VINA RESULT:      -6.3      9.209      9.839
REMARK  Name = NuBBE_1558
REMARK  5 active torsions:
REMARK  status: ('A' for Active; 'I' for Inactive)
REMARK    1  A    between atoms: C_7  and  C_8
REMARK    2  A    between atoms: C_11  and  O_14
REMARK    3  A    between atoms: O_14  and  C_15
REMARK    4  A    between atoms: C_17  and  O_21
REMARK    5  A    between atoms: C_19  and  O_20
REMARK                            x       y       z     vdW  Elec       q    Type
REMARK                         _______ _______ _______ _____ _____    ______ ____
ROOT
ATOM      1  O   LIG A   1      -5.226  -1.982 127.288  0.00  0.00    -0.286 OA
ATOM      2  C   LIG A   1      -6.325  -2.490 127.470  0.00  0.00    +0.204 A 
ATOM      3  C   LIG A   1      -7.287  -2.696 126.357  0.00  0.00    +0.106 A 
ATOM      4  C   LIG A   1      -8.575  -3.132 126.674  0.00  0.00    +0.145 A 
ATOM      5  O   LIG A   1      -8.972  -3.425 127.953  0.00  0.00    -0.462 OA
ATOM      6  C   LIG A   1      -8.036  -3.338 128.951  0.00  0.00    +0.208 A 
ATOM      7  C   LIG A   1      -6.769  -2.907 128.844  0.00  0.00    +0.064 A 
ATOM      8  C   LIG A   1      -9.545  -3.301 125.680  0.00  0.00    +0.092 A 
ATOM      9  C   LIG A   1      -9.215  -3.040 124.357  0.00  0.00    +0.124 A 
ATOM     10  C   LIG A   1      -7.935  -2.625 124.013  0.00  0.00    +0.091 A 
ATOM     11  C   LIG A   1      -6.971  -2.454 125.011  0.00  0.00    +0.135 A 
ENDROOT
BRANCH   7  12
ATOM     12  C   LIG A   1      -5.872  -2.863 130.030  0.00  0.00    -0.011 A 
ATOM     13  C   LIG A   1      -5.704  -1.691 130.790  0.00  0.00    +0.012 A 
ATOM     14  C   LIG A   1      -4.846  -1.662 131.898  0.00  0.00    +0.046 A 
ATOM     15  C   LIG A   1      -4.120  -2.792 132.269  0.00  0.00    +0.120 A 
ATOM     16  C   LIG A   1      -4.270  -3.959 131.526  0.00  0.00    +0.046 A 
ATOM     17  C   LIG A   1      -5.141  -3.992 130.427  0.00  0.00    +0.012 A 
BRANCH  15  18
ATOM     18  O   LIG A   1      -3.304  -2.629 133.354  0.00  0.00    -0.495 OA
ATOM     19  C   LIG A   1      -2.964  -3.806 134.078  0.00  0.00    +0.277 C 
ENDBRANCH  15  18
ENDBRANCH   7  12
BRANCH  11  20
ATOM     20  O   LIG A   1      -5.715  -2.065 124.639  0.00  0.00    -0.506 OA
ATOM     21  H   LIG A   1      -5.459  -2.499 123.809  0.00  0.00    +0.292 HD
ENDBRANCH  11  20
BRANCH   9  22
ATOM     22  O   LIG A   1     -10.125  -3.185 123.352  0.00  0.00    -0.506 OA
ATOM     23  H   LIG A   1     -10.160  -2.365 122.832  0.00  0.00    +0.292 HD
ENDBRANCH   9  22
TORSDOF 4
ENDMDL
MODEL 8
REMARK VINA RESULT:      -6.3      7.057      8.470
REMARK  Name = NuBBE_1558
REMARK  5 active torsions:
REMARK  status: ('A' for Active; 'I' for Inactive)
REMARK    1  A    between atoms: C_7  and  C_8
REMARK    2  A    between atoms: C_11  and  O_14
REMARK    3  A    between atoms: O_14  and  C_15
REMARK    4  A    between atoms: C_17  and  O_21
REMARK    5  A    between atoms: C_19  and  O_20
REMARK                            x       y       z     vdW  Elec       q    Type
REMARK                         _______ _______ _______ _____ _____    ______ ____
ROOT
ATOM      1  O   LIG A   1      -6.779   4.364 124.690  0.00  0.00    -0.286 OA
ATOM      2  C   LIG A   1      -6.775   3.175 124.983  0.00  0.00    +0.204 A 
ATOM      3  C   LIG A   1      -7.682   2.203 124.318  0.00  0.00    +0.106 A 
ATOM      4  C   LIG A   1      -7.729   0.901 124.820  0.00  0.00    +0.145 A 
ATOM      5  O   LIG A   1      -6.944   0.470 125.858  0.00  0.00    -0.462 OA
ATOM      6  C   LIG A   1      -6.033   1.351 126.382  0.00  0.00    +0.208 A 
ATOM      7  C   LIG A   1      -5.869   2.642 126.056  0.00  0.00    +0.064 A 
ATOM      8  C   LIG A   1      -8.594  -0.053 124.273  0.00  0.00    +0.092 A 
ATOM      9  C   LIG A   1      -9.411   0.302 123.208  0.00  0.00    +0.124 A 
ATOM     10  C   LIG A   1      -9.368   1.585 122.677  0.00  0.00    +0.091 A 
ATOM     11  C   LIG A   1      -8.504   2.534 123.230  0.00  0.00    +0.135 A 
ENDROOT
BRANCH   7  12
ATOM     12  C   LIG A   1      -4.834   3.476 126.726  0.00  0.00    -0.011 A 
ATOM     13  C   LIG A   1      -5.178   4.549 127.569  0.00  0.00    +0.012 A 
ATOM     14  C   LIG A   1      -4.192   5.333 128.183  0.00  0.00    +0.046 A 
ATOM     15  C   LIG A   1      -2.839   5.081 127.962  0.00  0.00    +0.120 A 
ATOM     16  C   LIG A   1      -2.481   4.026 127.129  0.00  0.00    +0.046 A 
ATOM     17  C   LIG A   1      -3.467   3.232 126.527  0.00  0.00    +0.012 A 
BRANCH  15  18
ATOM     18  O   LIG A   1      -1.977   5.928 128.603  0.00  0.00    -0.495 OA
ATOM     19  C   LIG A   1      -2.352   6.348 129.910  0.00  0.00    +0.277 C 
ENDBRANCH  15  18
ENDBRANCH   7  12
BRANCH  11  20
ATOM     20  O   LIG A   1      -8.469   3.782 122.673  0.00  0.00    -0.506 OA
ATOM     21  H   LIG A   1      -8.263   4.448 123.349  0.00  0.00    +0.292 HD
ENDBRANCH  11  20
BRANCH   9  22
ATOM     22  O   LIG A   1     -10.274  -0.588 122.642  0.00  0.00    -0.506 OA
ATOM     23  H   LIG A   1     -11.127  -0.548 123.108  0.00  0.00    +0.292 HD
ENDBRANCH   9  22
TORSDOF 4
ENDMDL
MODEL 9
REMARK VINA RESULT:      -6.3      7.212      8.667
REMARK  Name = NuBBE_1558
REMARK  5 active torsions:
REMARK  status: ('A' for Active; 'I' for Inactive)
REMARK    1  A    between atoms: C_7  and  C_8
REMARK    2  A    between atoms: C_11  and  O_14
REMARK    3  A    between atoms: O_14  and  C_15
REMARK    4  A    between atoms: C_17  and  O_21
REMARK    5  A    between atoms: C_19  and  O_20
REMARK                            x       y       z     vdW  Elec       q    Type
REMARK                         _______ _______ _______ _____ _____    ______ ____
ROOT
ATOM      1  O   LIG A   1      -4.497   1.104 126.168  0.00  0.00    -0.286 OA
ATOM      2  C   LIG A   1      -5.028   2.202 126.276  0.00  0.00    +0.204 A 
ATOM      3  C   LIG A   1      -4.281   3.386 126.775  0.00  0.00    +0.106 A 
ATOM      4  C   LIG A   1      -4.999   4.559 127.020  0.00  0.00    +0.145 A 
ATOM      5  O   LIG A   1      -6.341   4.680 126.775  0.00  0.00    -0.462 OA
ATOM      6  C   LIG A   1      -6.989   3.612 126.208  0.00  0.00    +0.208 A 
ATOM      7  C   LIG A   1      -6.478   2.402 125.936  0.00  0.00    +0.064 A 
ATOM      8  C   LIG A   1      -4.368   5.697 127.535  0.00  0.00    +0.092 A 
ATOM      9  C   LIG A   1      -3.005   5.659 127.796  0.00  0.00    +0.124 A 
ATOM     10  C   LIG A   1      -2.264   4.511 127.541  0.00  0.00    +0.091 A 
ATOM     11  C   LIG A   1      -2.901   3.376 127.030  0.00  0.00    +0.135 A 
ENDROOT
BRANCH   7  12
ATOM     12  C   LIG A   1      -7.316   1.335 125.323  0.00  0.00    -0.011 A 
ATOM     13  C   LIG A   1      -8.288   0.638 126.063  0.00  0.00    +0.012 A 
ATOM     14  C   LIG A   1      -9.061  -0.372 125.474  0.00  0.00    +0.046 A 
ATOM     15  C   LIG A   1      -8.877  -0.726 124.139  0.00  0.00    +0.120 A 
ATOM     16  C   LIG A   1      -7.918  -0.049 123.393  0.00  0.00    +0.046 A 
ATOM     17  C   LIG A   1      -7.155   0.972 123.978  0.00  0.00    +0.012 A 
BRANCH  15  18
ATOM     18  O   LIG A   1      -9.680  -1.738 123.689  0.00  0.00    -0.495 OA
ATOM     19  C   LIG A   1      -9.038  -2.970 123.382  0.00  0.00    +0.277 C 
ENDBRANCH  15  18
ENDBRANCH   7  12
BRANCH  11  20
ATOM     20  O   LIG A   1      -2.143   2.269 126.770  0.00  0.00    -0.506 OA
ATOM     21  H   LIG A   1      -2.656   1.621 126.260  0.00  0.00    +0.292 HD
ENDBRANCH  11  20
BRANCH   9  22
ATOM     22  O   LIG A   1      -2.344   6.739 128.301  0.00  0.00    -0.506 OA
ATOM     23  H   LIG A   1      -2.342   7.451 127.640  0.00  0.00    +0.292 HD
ENDBRANCH   9  22
TORSDOF 4
ENDMDL
