MODEL 1
REMARK VINA RESULT:      -6.1      0.000      0.000
REMARK  Name = NuBBE_1503
REMARK  14 active torsions:
REMARK  status: ('A' for Active; 'I' for Inactive)
REMARK    1  A    between atoms: C_1  and  C_2
REMARK    2  A    between atoms: C_1  and  C_14
REMARK    3  A    between atoms: C_2  and  C_3
REMARK    4  A    between atoms: C_3  and  C_5
REMARK    5  A    between atoms: C_5  and  C_6
REMARK    6  A    between atoms: C_6  and  C_8
REMARK    7  A    between atoms: C_6  and  O_13
REMARK    8  A    between atoms: C_8  and  C_9
REMARK    9  A    between atoms: C_9  and  C_10
REMARK   10  A    between atoms: C_10  and  C_11
REMARK   11  A    between atoms: C_11  and  C_12
REMARK   12  A    between atoms: C_16  and  O_17
REMARK   13  A    between atoms: O_17  and  C_18
REMARK   14  A    between atoms: C_19  and  O_22
REMARK                            x       y       z     vdW  Elec       q    Type
REMARK                         _______ _______ _______ _____ _____    ______ ____
ROOT
ATOM      1  C   LIG A   1      -7.919  -1.442 126.812  0.00  0.00    +0.079 C 
ENDROOT
BRANCH   1   2
ATOM      2  C   LIG A   1      -9.002  -1.515 125.752  0.00  0.00    +0.136 C 
ATOM      3  O   LIG A   1      -9.910  -0.673 125.699  0.00  0.00    -0.297 OA
BRANCH   2   4
ATOM      4  C   LIG A   1      -8.910  -2.664 124.768  0.00  0.00    +0.105 C 
BRANCH   4   5
ATOM      5  C   LIG A   1      -8.715  -2.226 123.314  0.00  0.00    +0.122 C 
BRANCH   5   6
ATOM      6  O   LIG A   1      -9.862  -1.515 122.849  0.00  0.00    -0.391 OA
ATOM      7  H   LIG A   1      -9.922  -1.668 121.882  0.00  0.00    +0.210 HD
ENDBRANCH   5   6
BRANCH   5   8
ATOM      8  C   LIG A   1      -7.503  -1.290 123.137  0.00  0.00    +0.032 C 
BRANCH   8   9
ATOM      9  C   LIG A   1      -6.234  -2.008 122.675  0.00  0.00    +0.002 C 
BRANCH   9  10
ATOM     10  C   LIG A   1      -5.337  -2.420 123.843  0.00  0.00    -0.000 C 
BRANCH  10  11
ATOM     11  C   LIG A   1      -5.362  -3.931 124.097  0.00  0.00    -0.003 C 
ATOM     12  C   LIG A   1      -4.145  -4.646 123.527  0.00  0.00    +0.004 C 
ENDBRANCH  10  11
ENDBRANCH   9  10
ENDBRANCH   8   9
ENDBRANCH   5   8
ENDBRANCH   4   5
ENDBRANCH   2   4
ENDBRANCH   1   2
BRANCH   1  13
ATOM     13  C   LIG A   1      -8.045  -2.642 127.742  0.00  0.00    +0.042 C 
BRANCH  13  14
ATOM     14  C   LIG A   1      -6.790  -2.908 128.536  0.00  0.00    -0.043 A 
ATOM     15  C   LIG A   1      -6.852  -3.661 129.724  0.00  0.00    +0.053 A 
ATOM     16  C   LIG A   1      -5.691  -3.922 130.456  0.00  0.00    +0.162 A 
ATOM     17  C   LIG A   1      -4.468  -3.442 129.981  0.00  0.00    +0.159 A 
ATOM     18  C   LIG A   1      -4.387  -2.687 128.819  0.00  0.00    +0.049 A 
ATOM     19  C   LIG A   1      -5.550  -2.419 128.096  0.00  0.00    +0.007 A 
BRANCH  16  20
ATOM     20  O   LIG A   1      -5.624  -4.667 131.605  0.00  0.00    -0.491 OA
ATOM     21  C   LIG A   1      -6.085  -4.015 132.785  0.00  0.00    +0.277 C 
ENDBRANCH  16  20
BRANCH  17  22
ATOM     22  O   LIG A   1      -3.313  -3.697 130.670  0.00  0.00    -0.503 OA
ATOM     23  H   LIG A   1      -3.353  -4.650 130.883  0.00  0.00    +0.292 HD
ENDBRANCH  17  22
ENDBRANCH  13  14
ENDBRANCH   1  13
TORSDOF 12
ENDMDL
MODEL 2
REMARK VINA RESULT:      -6.1      1.147      1.956
REMARK  Name = NuBBE_1503
REMARK  14 active torsions:
REMARK  status: ('A' for Active; 'I' for Inactive)
REMARK    1  A    between atoms: C_1  and  C_2
REMARK    2  A    between atoms: C_1  and  C_14
REMARK    3  A    between atoms: C_2  and  C_3
REMARK    4  A    between atoms: C_3  and  C_5
REMARK    5  A    between atoms: C_5  and  C_6
REMARK    6  A    between atoms: C_6  and  C_8
REMARK    7  A    between atoms: C_6  and  O_13
REMARK    8  A    between atoms: C_8  and  C_9
REMARK    9  A    between atoms: C_9  and  C_10
REMARK   10  A    between atoms: C_10  and  C_11
REMARK   11  A    between atoms: C_11  and  C_12
REMARK   12  A    between atoms: C_16  and  O_17
REMARK   13  A    between atoms: O_17  and  C_18
REMARK   14  A    between atoms: C_19  and  O_22
REMARK                            x       y       z     vdW  Elec       q    Type
REMARK                         _______ _______ _______ _____ _____    ______ ____
ROOT
ATOM      1  C   LIG A   1      -7.871  -2.886 126.418  0.00  0.00    +0.079 C 
ENDROOT
BRANCH   1   2
ATOM      2  C   LIG A   1      -8.998  -2.738 125.413  0.00  0.00    +0.136 C 
ATOM      3  O   LIG A   1     -10.048  -2.148 125.703  0.00  0.00    -0.297 OA
BRANCH   2   4
ATOM      4  C   LIG A   1      -8.766  -3.345 124.043  0.00  0.00    +0.105 C 
BRANCH   4   5
ATOM      5  C   LIG A   1      -8.622  -2.314 122.920  0.00  0.00    +0.122 C 
BRANCH   5   6
ATOM      6  O   LIG A   1      -9.738  -1.426 122.913  0.00  0.00    -0.391 OA
ATOM      7  H   LIG A   1      -9.438  -0.591 122.493  0.00  0.00    +0.210 HD
ENDBRANCH   5   6
BRANCH   5   8
ATOM      8  C   LIG A   1      -7.357  -1.447 123.075  0.00  0.00    +0.032 C 
BRANCH   8   9
ATOM      9  C   LIG A   1      -6.070  -2.154 122.644  0.00  0.00    +0.002 C 
BRANCH   9  10
ATOM     10  C   LIG A   1      -5.147  -2.455 123.825  0.00  0.00    -0.000 C 
BRANCH  10  11
ATOM     11  C   LIG A   1      -5.160  -3.935 124.219  0.00  0.00    -0.003 C 
ATOM     12  C   LIG A   1      -4.179  -4.771 123.410  0.00  0.00    +0.004 C 
ENDBRANCH  10  11
ENDBRANCH   9  10
ENDBRANCH   8   9
ENDBRANCH   5   8
ENDBRANCH   4   5
ENDBRANCH   2   4
ENDBRANCH   1   2
BRANCH   1  13
ATOM     13  C   LIG A   1      -8.458  -3.232 127.781  0.00  0.00    +0.042 C 
BRANCH  13  14
ATOM     14  C   LIG A   1      -7.471  -3.059 128.909  0.00  0.00    -0.043 A 
ATOM     15  C   LIG A   1      -6.109  -2.836 128.627  0.00  0.00    +0.053 A 
ATOM     16  C   LIG A   1      -5.193  -2.660 129.667  0.00  0.00    +0.162 A 
ATOM     17  C   LIG A   1      -5.651  -2.689 130.987  0.00  0.00    +0.159 A 
ATOM     18  C   LIG A   1      -6.987  -2.919 131.286  0.00  0.00    +0.049 A 
ATOM     19  C   LIG A   1      -7.898  -3.104 130.246  0.00  0.00    +0.007 A 
BRANCH  16  20
ATOM     20  O   LIG A   1      -3.854  -2.407 129.514  0.00  0.00    -0.491 OA
ATOM     21  C   LIG A   1      -3.049  -3.538 129.199  0.00  0.00    +0.277 C 
ENDBRANCH  16  20
BRANCH  17  22
ATOM     22  O   LIG A   1      -4.777  -2.502 132.023  0.00  0.00    -0.503 OA
ATOM     23  H   LIG A   1      -3.983  -3.016 131.778  0.00  0.00    +0.292 HD
ENDBRANCH  17  22
ENDBRANCH  13  14
ENDBRANCH   1  13
TORSDOF 12
ENDMDL
MODEL 3
REMARK VINA RESULT:      -6.0      4.490      8.566
REMARK  Name = NuBBE_1503
REMARK  14 active torsions:
REMARK  status: ('A' for Active; 'I' for Inactive)
REMARK    1  A    between atoms: C_1  and  C_2
REMARK    2  A    between atoms: C_1  and  C_14
REMARK    3  A    between atoms: C_2  and  C_3
REMARK    4  A    between atoms: C_3  and  C_5
REMARK    5  A    between atoms: C_5  and  C_6
REMARK    6  A    between atoms: C_6  and  C_8
REMARK    7  A    between atoms: C_6  and  O_13
REMARK    8  A    between atoms: C_8  and  C_9
REMARK    9  A    between atoms: C_9  and  C_10
REMARK   10  A    between atoms: C_10  and  C_11
REMARK   11  A    between atoms: C_11  and  C_12
REMARK   12  A    between atoms: C_16  and  O_17
REMARK   13  A    between atoms: O_17  and  C_18
REMARK   14  A    between atoms: C_19  and  O_22
REMARK                            x       y       z     vdW  Elec       q    Type
REMARK                         _______ _______ _______ _____ _____    ______ ____
ROOT
ATOM      1  C   LIG A   1      -8.304   1.202 123.997  0.00  0.00    +0.079 C 
ENDROOT
BRANCH   1   2
ATOM      2  C   LIG A   1      -9.304   0.072 123.843  0.00  0.00    +0.136 C 
ATOM      3  O   LIG A   1     -10.297   0.185 123.112  0.00  0.00    -0.297 OA
BRANCH   2   4
ATOM      4  C   LIG A   1      -9.018  -1.195 124.625  0.00  0.00    +0.105 C 
BRANCH   4   5
ATOM      5  C   LIG A   1      -8.815  -2.436 123.750  0.00  0.00    +0.122 C 
BRANCH   5   6
ATOM      6  O   LIG A   1     -10.074  -3.000 123.385  0.00  0.00    -0.391 OA
ATOM      7  H   LIG A   1      -9.911  -3.603 122.629  0.00  0.00    +0.210 HD
ENDBRANCH   5   6
BRANCH   5   8
ATOM      8  C   LIG A   1      -8.068  -2.118 122.439  0.00  0.00    +0.032 C 
BRANCH   8   9
ATOM      9  C   LIG A   1      -6.554  -1.982 122.613  0.00  0.00    +0.002 C 
BRANCH   9  10
ATOM     10  C   LIG A   1      -6.007  -2.899 123.708  0.00  0.00    -0.000 C 
BRANCH  10  11
ATOM     11  C   LIG A   1      -4.946  -2.211 124.573  0.00  0.00    -0.003 C 
ATOM     12  C   LIG A   1      -5.509  -1.065 125.400  0.00  0.00    +0.004 C 
ENDBRANCH  10  11
ENDBRANCH   9  10
ENDBRANCH   8   9
ENDBRANCH   5   8
ENDBRANCH   4   5
ENDBRANCH   2   4
ENDBRANCH   1   2
BRANCH   1  13
ATOM     13  C   LIG A   1      -8.896   2.478 123.409  0.00  0.00    +0.042 C 
BRANCH  13  14
ATOM     14  C   LIG A   1      -8.029   3.089 122.335  0.00  0.00    -0.043 A 
ATOM     15  C   LIG A   1      -8.597   3.478 121.107  0.00  0.00    +0.053 A 
ATOM     16  C   LIG A   1      -7.803   4.058 120.115  0.00  0.00    +0.162 A 
ATOM     17  C   LIG A   1      -6.444   4.262 120.366  0.00  0.00    +0.159 A 
ATOM     18  C   LIG A   1      -5.863   3.874 121.566  0.00  0.00    +0.049 A 
ATOM     19  C   LIG A   1      -6.657   3.286 122.551  0.00  0.00    +0.007 A 
BRANCH  16  20
ATOM     20  O   LIG A   1      -8.249   4.503 118.897  0.00  0.00    -0.491 OA
ATOM     21  C   LIG A   1      -9.660   4.461 118.708  0.00  0.00    +0.277 C 
ENDBRANCH  16  20
BRANCH  17  22
ATOM     22  O   LIG A   1      -5.647   4.842 119.418  0.00  0.00    -0.503 OA
ATOM     23  H   LIG A   1      -5.926   4.438 118.573  0.00  0.00    +0.292 HD
ENDBRANCH  17  22
ENDBRANCH  13  14
ENDBRANCH   1  13
TORSDOF 12
ENDMDL
MODEL 4
REMARK VINA RESULT:      -6.0      3.496      4.949
REMARK  Name = NuBBE_1503
REMARK  14 active torsions:
REMARK  status: ('A' for Active; 'I' for Inactive)
REMARK    1  A    between atoms: C_1  and  C_2
REMARK    2  A    between atoms: C_1  and  C_14
REMARK    3  A    between atoms: C_2  and  C_3
REMARK    4  A    between atoms: C_3  and  C_5
REMARK    5  A    between atoms: C_5  and  C_6
REMARK    6  A    between atoms: C_6  and  C_8
REMARK    7  A    between atoms: C_6  and  O_13
REMARK    8  A    between atoms: C_8  and  C_9
REMARK    9  A    between atoms: C_9  and  C_10
REMARK   10  A    between atoms: C_10  and  C_11
REMARK   11  A    between atoms: C_11  and  C_12
REMARK   12  A    between atoms: C_16  and  O_17
REMARK   13  A    between atoms: O_17  and  C_18
REMARK   14  A    between atoms: C_19  and  O_22
REMARK                            x       y       z     vdW  Elec       q    Type
REMARK                         _______ _______ _______ _____ _____    ______ ____
ROOT
ATOM      1  C   LIG A   1      -7.827  -2.901 126.585  0.00  0.00    +0.079 C 
ENDROOT
BRANCH   1   2
ATOM      2  C   LIG A   1      -8.958  -3.049 125.585  0.00  0.00    +0.136 C 
ATOM      3  O   LIG A   1     -10.133  -2.817 125.902  0.00  0.00    -0.297 OA
BRANCH   2   4
ATOM      4  C   LIG A   1      -8.571  -3.488 124.187  0.00  0.00    +0.105 C 
BRANCH   4   5
ATOM      5  C   LIG A   1      -8.886  -2.457 123.099  0.00  0.00    +0.122 C 
BRANCH   5   6
ATOM      6  O   LIG A   1      -9.518  -1.311 123.667  0.00  0.00    -0.391 OA
ATOM      7  H   LIG A   1      -8.819  -0.636 123.807  0.00  0.00    +0.210 HD
ENDBRANCH   5   6
BRANCH   5   8
ATOM      8  C   LIG A   1      -7.620  -1.959 122.374  0.00  0.00    +0.032 C 
BRANCH   8   9
ATOM      9  C   LIG A   1      -6.454  -1.652 123.316  0.00  0.00    +0.002 C 
BRANCH   9  10
ATOM     10  C   LIG A   1      -5.213  -2.488 123.001  0.00  0.00    -0.000 C 
BRANCH  10  11
ATOM     11  C   LIG A   1      -4.922  -3.537 124.080  0.00  0.00    -0.003 C 
ATOM     12  C   LIG A   1      -4.370  -4.835 123.509  0.00  0.00    +0.004 C 
ENDBRANCH  10  11
ENDBRANCH   9  10
ENDBRANCH   8   9
ENDBRANCH   5   8
ENDBRANCH   4   5
ENDBRANCH   2   4
ENDBRANCH   1   2
BRANCH   1  13
ATOM     13  C   LIG A   1      -8.013  -1.606 127.366  0.00  0.00    +0.042 C 
BRANCH  13  14
ATOM     14  C   LIG A   1      -7.360  -0.418 126.702  0.00  0.00    -0.043 A 
ATOM     15  C   LIG A   1      -8.153   0.601 126.142  0.00  0.00    +0.053 A 
ATOM     16  C   LIG A   1      -7.555   1.710 125.539  0.00  0.00    +0.162 A 
ATOM     17  C   LIG A   1      -6.160   1.800 125.517  0.00  0.00    +0.159 A 
ATOM     18  C   LIG A   1      -5.361   0.800 126.053  0.00  0.00    +0.049 A 
ATOM     19  C   LIG A   1      -5.962  -0.311 126.646  0.00  0.00    +0.007 A 
BRANCH  16  20
ATOM     20  O   LIG A   1      -8.221   2.775 124.989  0.00  0.00    -0.491 OA
ATOM     21  C   LIG A   1      -8.848   2.524 123.736  0.00  0.00    +0.277 C 
ENDBRANCH  16  20
BRANCH  17  22
ATOM     22  O   LIG A   1      -5.548   2.883 124.947  0.00  0.00    -0.503 OA
ATOM     23  H   LIG A   1      -4.638   2.585 124.755  0.00  0.00    +0.292 HD
ENDBRANCH  17  22
ENDBRANCH  13  14
ENDBRANCH   1  13
TORSDOF 12
ENDMDL
MODEL 5
REMARK VINA RESULT:      -5.9      1.857      2.249
REMARK  Name = NuBBE_1503
REMARK  14 active torsions:
REMARK  status: ('A' for Active; 'I' for Inactive)
REMARK    1  A    between atoms: C_1  and  C_2
REMARK    2  A    between atoms: C_1  and  C_14
REMARK    3  A    between atoms: C_2  and  C_3
REMARK    4  A    between atoms: C_3  and  C_5
REMARK    5  A    between atoms: C_5  and  C_6
REMARK    6  A    between atoms: C_6  and  C_8
REMARK    7  A    between atoms: C_6  and  O_13
REMARK    8  A    between atoms: C_8  and  C_9
REMARK    9  A    between atoms: C_9  and  C_10
REMARK   10  A    between atoms: C_10  and  C_11
REMARK   11  A    between atoms: C_11  and  C_12
REMARK   12  A    between atoms: C_16  and  O_17
REMARK   13  A    between atoms: O_17  and  C_18
REMARK   14  A    between atoms: C_19  and  O_22
REMARK                            x       y       z     vdW  Elec       q    Type
REMARK                         _______ _______ _______ _____ _____    ______ ____
ROOT
ATOM      1  C   LIG A   1      -7.936  -3.115 126.647  0.00  0.00    +0.079 C 
ENDROOT
BRANCH   1   2
ATOM      2  C   LIG A   1      -8.977  -3.055 125.545  0.00  0.00    +0.136 C 
ATOM      3  O   LIG A   1     -10.098  -2.567 125.743  0.00  0.00    -0.297 OA
BRANCH   2   4
ATOM      4  C   LIG A   1      -8.570  -3.620 124.199  0.00  0.00    +0.105 C 
BRANCH   4   5
ATOM      5  C   LIG A   1      -8.611  -2.600 123.056  0.00  0.00    +0.122 C 
BRANCH   5   6
ATOM      6  O   LIG A   1      -9.792  -1.804 123.141  0.00  0.00    -0.391 OA
ATOM      7  H   LIG A   1      -9.801  -1.399 124.035  0.00  0.00    +0.210 HD
ENDBRANCH   5   6
BRANCH   5   8
ATOM      8  C   LIG A   1      -7.412  -1.632 123.087  0.00  0.00    +0.032 C 
BRANCH   8   9
ATOM      9  C   LIG A   1      -6.087  -2.282 122.684  0.00  0.00    +0.002 C 
BRANCH   9  10
ATOM     10  C   LIG A   1      -5.113  -2.398 123.857  0.00  0.00    -0.000 C 
BRANCH  10  11
ATOM     11  C   LIG A   1      -4.993  -3.832 124.382  0.00  0.00    -0.003 C 
ATOM     12  C   LIG A   1      -4.233  -4.747 123.433  0.00  0.00    +0.004 C 
ENDBRANCH  10  11
ENDBRANCH   9  10
ENDBRANCH   8   9
ENDBRANCH   5   8
ENDBRANCH   4   5
ENDBRANCH   2   4
ENDBRANCH   1   2
BRANCH   1  13
ATOM     13  C   LIG A   1      -8.616  -3.485 127.960  0.00  0.00    +0.042 C 
BRANCH  13  14
ATOM     14  C   LIG A   1      -7.790  -3.130 129.172  0.00  0.00    -0.043 A 
ATOM     15  C   LIG A   1      -7.983  -1.896 129.820  0.00  0.00    +0.053 A 
ATOM     16  C   LIG A   1      -7.232  -1.568 130.951  0.00  0.00    +0.162 A 
ATOM     17  C   LIG A   1      -6.303  -2.490 131.439  0.00  0.00    +0.159 A 
ATOM     18  C   LIG A   1      -6.090  -3.707 130.807  0.00  0.00    +0.049 A 
ATOM     19  C   LIG A   1      -6.834  -4.028 129.672  0.00  0.00    +0.007 A 
BRANCH  16  20
ATOM     20  O   LIG A   1      -7.354  -0.413 131.681  0.00  0.00    -0.491 OA
ATOM     21  C   LIG A   1      -6.973   0.781 131.006  0.00  0.00    +0.277 C 
ENDBRANCH  16  20
BRANCH  17  22
ATOM     22  O   LIG A   1      -5.565  -2.201 132.555  0.00  0.00    -0.503 OA
ATOM     23  H   LIG A   1      -4.634  -2.259 132.264  0.00  0.00    +0.292 HD
ENDBRANCH  17  22
ENDBRANCH  13  14
ENDBRANCH   1  13
TORSDOF 12
ENDMDL
MODEL 6
REMARK VINA RESULT:      -5.9      4.245      8.286
REMARK  Name = NuBBE_1503
REMARK  14 active torsions:
REMARK  status: ('A' for Active; 'I' for Inactive)
REMARK    1  A    between atoms: C_1  and  C_2
REMARK    2  A    between atoms: C_1  and  C_14
REMARK    3  A    between atoms: C_2  and  C_3
REMARK    4  A    between atoms: C_3  and  C_5
REMARK    5  A    between atoms: C_5  and  C_6
REMARK    6  A    between atoms: C_6  and  C_8
REMARK    7  A    between atoms: C_6  and  O_13
REMARK    8  A    between atoms: C_8  and  C_9
REMARK    9  A    between atoms: C_9  and  C_10
REMARK   10  A    between atoms: C_10  and  C_11
REMARK   11  A    between atoms: C_11  and  C_12
REMARK   12  A    between atoms: C_16  and  O_17
REMARK   13  A    between atoms: O_17  and  C_18
REMARK   14  A    between atoms: C_19  and  O_22
REMARK                            x       y       z     vdW  Elec       q    Type
REMARK                         _______ _______ _______ _____ _____    ______ ____
ROOT
ATOM      1  C   LIG A   1      -7.710   0.610 123.919  0.00  0.00    +0.079 C 
ENDROOT
BRANCH   1   2
ATOM      2  C   LIG A   1      -9.022  -0.035 124.323  0.00  0.00    +0.136 C 
ATOM      3  O   LIG A   1     -10.009  -0.014 123.574  0.00  0.00    -0.297 OA
BRANCH   2   4
ATOM      4  C   LIG A   1      -9.057  -0.704 125.682  0.00  0.00    +0.105 C 
BRANCH   4   5
ATOM      5  C   LIG A   1      -9.267  -2.221 125.627  0.00  0.00    +0.122 C 
BRANCH   5   6
ATOM      6  O   LIG A   1      -9.667  -2.620 124.317  0.00  0.00    -0.391 OA
ATOM      7  H   LIG A   1      -9.159  -2.072 123.681  0.00  0.00    +0.210 HD
ENDBRANCH   5   6
BRANCH   5   8
ATOM      8  C   LIG A   1      -7.984  -3.006 125.965  0.00  0.00    +0.032 C 
BRANCH   8   9
ATOM      9  C   LIG A   1      -6.866  -2.136 126.542  0.00  0.00    +0.002 C 
BRANCH   9  10
ATOM     10  C   LIG A   1      -5.529  -2.357 125.833  0.00  0.00    -0.000 C 
BRANCH  10  11
ATOM     11  C   LIG A   1      -5.659  -2.307 124.307  0.00  0.00    -0.003 C 
ATOM     12  C   LIG A   1      -4.854  -3.394 123.609  0.00  0.00    +0.004 C 
ENDBRANCH  10  11
ENDBRANCH   9  10
ENDBRANCH   8   9
ENDBRANCH   5   8
ENDBRANCH   4   5
ENDBRANCH   2   4
ENDBRANCH   1   2
BRANCH   1  13
ATOM     13  C   LIG A   1      -7.841   2.125 124.029  0.00  0.00    +0.042 C 
BRANCH  13  14
ATOM     14  C   LIG A   1      -7.705   2.825 122.699  0.00  0.00    -0.043 A 
ATOM     15  C   LIG A   1      -6.439   3.249 122.252  0.00  0.00    +0.053 A 
ATOM     16  C   LIG A   1      -6.304   3.884 121.015  0.00  0.00    +0.162 A 
ATOM     17  C   LIG A   1      -7.439   4.076 120.223  0.00  0.00    +0.159 A 
ATOM     18  C   LIG A   1      -8.697   3.677 120.652  0.00  0.00    +0.049 A 
ATOM     19  C   LIG A   1      -8.830   3.051 121.892  0.00  0.00    +0.007 A 
BRANCH  16  20
ATOM     20  O   LIG A   1      -5.123   4.311 120.463  0.00  0.00    -0.491 OA
ATOM     21  C   LIG A   1      -4.328   5.152 121.292  0.00  0.00    +0.277 C 
ENDBRANCH  16  20
BRANCH  17  22
ATOM     22  O   LIG A   1      -7.333   4.682 119.001  0.00  0.00    -0.503 OA
ATOM     23  H   LIG A   1      -6.431   4.466 118.691  0.00  0.00    +0.292 HD
ENDBRANCH  17  22
ENDBRANCH  13  14
ENDBRANCH   1  13
TORSDOF 12
ENDMDL
MODEL 7
REMARK VINA RESULT:      -5.7      3.482      7.216
REMARK  Name = NuBBE_1503
REMARK  14 active torsions:
REMARK  status: ('A' for Active; 'I' for Inactive)
REMARK    1  A    between atoms: C_1  and  C_2
REMARK    2  A    between atoms: C_1  and  C_14
REMARK    3  A    between atoms: C_2  and  C_3
REMARK    4  A    between atoms: C_3  and  C_5
REMARK    5  A    between atoms: C_5  and  C_6
REMARK    6  A    between atoms: C_6  and  C_8
REMARK    7  A    between atoms: C_6  and  O_13
REMARK    8  A    between atoms: C_8  and  C_9
REMARK    9  A    between atoms: C_9  and  C_10
REMARK   10  A    between atoms: C_10  and  C_11
REMARK   11  A    between atoms: C_11  and  C_12
REMARK   12  A    between atoms: C_16  and  O_17
REMARK   13  A    between atoms: O_17  and  C_18
REMARK   14  A    between atoms: C_19  and  O_22
REMARK                            x       y       z     vdW  Elec       q    Type
REMARK                         _______ _______ _______ _____ _____    ______ ____
ROOT
ATOM      1  C   LIG A   1      -7.429   0.655 126.610  0.00  0.00    +0.079 C 
ENDROOT
BRANCH   1   2
ATOM      2  C   LIG A   1      -7.947  -0.743 126.894  0.00  0.00    +0.136 C 
ATOM      3  O   LIG A   1      -7.661  -1.336 127.943  0.00  0.00    -0.297 OA
BRANCH   2   4
ATOM      4  C   LIG A   1      -8.828  -1.366 125.830  0.00  0.00    +0.105 C 
BRANCH   4   5
ATOM      5  C   LIG A   1      -8.937  -2.891 125.924  0.00  0.00    +0.122 C 
BRANCH   5   6
ATOM      6  O   LIG A   1     -10.304  -3.297 125.881  0.00  0.00    -0.391 OA
ATOM      7  H   LIG A   1     -10.840  -2.487 125.736  0.00  0.00    +0.210 HD
ENDBRANCH   5   6
BRANCH   5   8
ATOM      8  C   LIG A   1      -8.219  -3.606 124.761  0.00  0.00    +0.032 C 
BRANCH   8   9
ATOM      9  C   LIG A   1      -7.653  -2.650 123.709  0.00  0.00    +0.002 C 
BRANCH   9  10
ATOM     10  C   LIG A   1      -6.124  -2.629 123.702  0.00  0.00    -0.000 C 
BRANCH  10  11
ATOM     11  C   LIG A   1      -5.516  -4.002 124.008  0.00  0.00    -0.003 C 
ATOM     12  C   LIG A   1      -4.090  -4.145 123.496  0.00  0.00    +0.004 C 
ENDBRANCH  10  11
ENDBRANCH   9  10
ENDBRANCH   8   9
ENDBRANCH   5   8
ENDBRANCH   4   5
ENDBRANCH   2   4
ENDBRANCH   1   2
BRANCH   1  13
ATOM     13  C   LIG A   1      -6.616   0.637 125.321  0.00  0.00    +0.042 C 
BRANCH  13  14
ATOM     14  C   LIG A   1      -7.182   1.543 124.255  0.00  0.00    -0.043 A 
ATOM     15  C   LIG A   1      -6.354   2.487 123.619  0.00  0.00    +0.053 A 
ATOM     16  C   LIG A   1      -6.868   3.319 122.622  0.00  0.00    +0.162 A 
ATOM     17  C   LIG A   1      -8.209   3.186 122.252  0.00  0.00    +0.159 A 
ATOM     18  C   LIG A   1      -9.045   2.270 122.876  0.00  0.00    +0.049 A 
ATOM     19  C   LIG A   1      -8.531   1.448 123.879  0.00  0.00    +0.007 A 
BRANCH  16  20
ATOM     20  O   LIG A   1      -6.153   4.250 121.913  0.00  0.00    -0.491 OA
ATOM     21  C   LIG A   1      -5.255   3.724 120.941  0.00  0.00    +0.277 C 
ENDBRANCH  16  20
BRANCH  17  22
ATOM     22  O   LIG A   1      -8.734   3.977 121.266  0.00  0.00    -0.503 OA
ATOM     23  H   LIG A   1      -7.959   4.370 120.820  0.00  0.00    +0.292 HD
ENDBRANCH  17  22
ENDBRANCH  13  14
ENDBRANCH   1  13
TORSDOF 12
ENDMDL
MODEL 8
REMARK VINA RESULT:      -5.6      3.733      7.087
REMARK  Name = NuBBE_1503
REMARK  14 active torsions:
REMARK  status: ('A' for Active; 'I' for Inactive)
REMARK    1  A    between atoms: C_1  and  C_2
REMARK    2  A    between atoms: C_1  and  C_14
REMARK    3  A    between atoms: C_2  and  C_3
REMARK    4  A    between atoms: C_3  and  C_5
REMARK    5  A    between atoms: C_5  and  C_6
REMARK    6  A    between atoms: C_6  and  C_8
REMARK    7  A    between atoms: C_6  and  O_13
REMARK    8  A    between atoms: C_8  and  C_9
REMARK    9  A    between atoms: C_9  and  C_10
REMARK   10  A    between atoms: C_10  and  C_11
REMARK   11  A    between atoms: C_11  and  C_12
REMARK   12  A    between atoms: C_16  and  O_17
REMARK   13  A    between atoms: O_17  and  C_18
REMARK   14  A    between atoms: C_19  and  O_22
REMARK                            x       y       z     vdW  Elec       q    Type
REMARK                         _______ _______ _______ _____ _____    ______ ____
ROOT
ATOM      1  C   LIG A   1      -7.335   0.198 126.700  0.00  0.00    +0.079 C 
ENDROOT
BRANCH   1   2
ATOM      2  C   LIG A   1      -6.945  -1.201 127.140  0.00  0.00    +0.136 C 
ATOM      3  O   LIG A   1      -5.799  -1.636 126.964  0.00  0.00    -0.297 OA
BRANCH   2   4
ATOM      4  C   LIG A   1      -8.028  -2.027 127.804  0.00  0.00    +0.105 C 
BRANCH   4   5
ATOM      5  C   LIG A   1      -8.460  -3.255 126.996  0.00  0.00    +0.122 C 
BRANCH   5   6
ATOM      6  O   LIG A   1      -9.157  -4.180 127.830  0.00  0.00    -0.391 OA
ATOM      7  H   LIG A   1     -10.043  -4.316 127.431  0.00  0.00    +0.210 HD
ENDBRANCH   5   6
BRANCH   5   8
ATOM      8  C   LIG A   1      -9.409  -2.892 125.836  0.00  0.00    +0.032 C 
BRANCH   8   9
ATOM      9  C   LIG A   1      -8.880  -3.302 124.460  0.00  0.00    +0.002 C 
BRANCH   9  10
ATOM     10  C   LIG A   1      -7.435  -3.799 124.514  0.00  0.00    -0.000 C 
BRANCH  10  11
ATOM     11  C   LIG A   1      -6.471  -2.885 123.749  0.00  0.00    -0.003 C 
ATOM     12  C   LIG A   1      -5.043  -3.412 123.735  0.00  0.00    +0.004 C 
ENDBRANCH  10  11
ENDBRANCH   9  10
ENDBRANCH   8   9
ENDBRANCH   5   8
ENDBRANCH   4   5
ENDBRANCH   2   4
ENDBRANCH   1   2
BRANCH   1  13
ATOM     13  C   LIG A   1      -7.506   0.218 125.186  0.00  0.00    +0.042 C 
BRANCH  13  14
ATOM     14  C   LIG A   1      -6.964   1.474 124.548  0.00  0.00    -0.043 A 
ATOM     15  C   LIG A   1      -7.369   1.837 123.249  0.00  0.00    +0.053 A 
ATOM     16  C   LIG A   1      -6.883   3.006 122.659  0.00  0.00    +0.162 A 
ATOM     17  C   LIG A   1      -6.005   3.817 123.384  0.00  0.00    +0.159 A 
ATOM     18  C   LIG A   1      -5.585   3.470 124.660  0.00  0.00    +0.049 A 
ATOM     19  C   LIG A   1      -6.065   2.297 125.243  0.00  0.00    +0.007 A 
BRANCH  16  20
ATOM     20  O   LIG A   1      -7.228   3.476 121.418  0.00  0.00    -0.491 OA
ATOM     21  C   LIG A   1      -8.627   3.562 121.164  0.00  0.00    +0.277 C 
ENDBRANCH  16  20
BRANCH  17  22
ATOM     22  O   LIG A   1      -5.526   4.976 122.836  0.00  0.00    -0.503 OA
ATOM     23  H   LIG A   1      -5.635   4.862 121.872  0.00  0.00    +0.292 HD
ENDBRANCH  17  22
ENDBRANCH  13  14
ENDBRANCH   1  13
TORSDOF 12
ENDMDL
MODEL 9
REMARK VINA RESULT:      -5.5      2.187      4.026
REMARK  Name = NuBBE_1503
REMARK  14 active torsions:
REMARK  status: ('A' for Active; 'I' for Inactive)
REMARK    1  A    between atoms: C_1  and  C_2
REMARK    2  A    between atoms: C_1  and  C_14
REMARK    3  A    between atoms: C_2  and  C_3
REMARK    4  A    between atoms: C_3  and  C_5
REMARK    5  A    between atoms: C_5  and  C_6
REMARK    6  A    between atoms: C_6  and  C_8
REMARK    7  A    between atoms: C_6  and  O_13
REMARK    8  A    between atoms: C_8  and  C_9
REMARK    9  A    between atoms: C_9  and  C_10
REMARK   10  A    between atoms: C_10  and  C_11
REMARK   11  A    between atoms: C_11  and  C_12
REMARK   12  A    between atoms: C_16  and  O_17
REMARK   13  A    between atoms: O_17  and  C_18
REMARK   14  A    between atoms: C_19  and  O_22
REMARK                            x       y       z     vdW  Elec       q    Type
REMARK                         _______ _______ _______ _____ _____    ______ ____
ROOT
ATOM      1  C   LIG A   1      -8.477  -3.652 124.892  0.00  0.00    +0.079 C 
ENDROOT
BRANCH   1   2
ATOM      2  C   LIG A   1      -9.032  -3.124 123.583  0.00  0.00    +0.136 C 
ATOM      3  O   LIG A   1     -10.198  -3.357 123.236  0.00  0.00    -0.297 OA
BRANCH   2   4
ATOM      4  C   LIG A   1      -8.088  -2.299 122.732  0.00  0.00    +0.105 C 
BRANCH   4   5
ATOM      5  C   LIG A   1      -6.921  -1.685 123.510  0.00  0.00    +0.122 C 
BRANCH   5   6
ATOM      6  O   LIG A   1      -5.678  -2.191 123.026  0.00  0.00    -0.391 OA
ATOM      7  H   LIG A   1      -4.967  -1.736 123.528  0.00  0.00    +0.210 HD
ENDBRANCH   5   6
BRANCH   5   8
ATOM      8  C   LIG A   1      -6.865  -0.150 123.376  0.00  0.00    +0.032 C 
BRANCH   8   9
ATOM      9  C   LIG A   1      -7.418   0.594 124.593  0.00  0.00    +0.002 C 
BRANCH   9  10
ATOM     10  C   LIG A   1      -8.946   0.573 124.645  0.00  0.00    -0.000 C 
BRANCH  10  11
ATOM     11  C   LIG A   1      -9.583   1.415 123.535  0.00  0.00    -0.003 C 
ATOM     12  C   LIG A   1     -10.333   0.574 122.512  0.00  0.00    +0.004 C 
ENDBRANCH  10  11
ENDBRANCH   9  10
ENDBRANCH   8   9
ENDBRANCH   5   8
ENDBRANCH   4   5
ENDBRANCH   2   4
ENDBRANCH   1   2
BRANCH   1  13
ATOM     13  C   LIG A   1      -9.214  -2.992 126.052  0.00  0.00    +0.042 C 
BRANCH  13  14
ATOM     14  C   LIG A   1      -8.353  -2.830 127.281  0.00  0.00    -0.043 A 
ATOM     15  C   LIG A   1      -7.279  -1.921 127.276  0.00  0.00    +0.053 A 
ATOM     16  C   LIG A   1      -6.488  -1.756 128.415  0.00  0.00    +0.162 A 
ATOM     17  C   LIG A   1      -6.791  -2.492 129.563  0.00  0.00    +0.159 A 
ATOM     18  C   LIG A   1      -7.839  -3.403 129.585  0.00  0.00    +0.049 A 
ATOM     19  C   LIG A   1      -8.620  -3.572 128.442  0.00  0.00    +0.007 A 
BRANCH  16  20
ATOM     20  O   LIG A   1      -5.438  -0.882 128.538  0.00  0.00    -0.491 OA
ATOM     21  C   LIG A   1      -5.520   0.289 127.731  0.00  0.00    +0.277 C 
ENDBRANCH  16  20
BRANCH  17  22
ATOM     22  O   LIG A   1      -6.042  -2.339 130.699  0.00  0.00    -0.503 OA
ATOM     23  H   LIG A   1      -5.985  -3.234 131.085  0.00  0.00    +0.292 HD
ENDBRANCH  17  22
ENDBRANCH  13  14
ENDBRANCH   1  13
TORSDOF 12
ENDMDL
