MODEL 1
REMARK VINA RESULT:      -8.1      0.000      0.000
REMARK  Name = NuBBE_1582
REMARK  6 active torsions:
REMARK  status: ('A' for Active; 'I' for Inactive)
REMARK    1  A    between atoms: O_1  and  C_2
REMARK    2  A    between atoms: C_3  and  O_4
REMARK    3  A    between atoms: O_4  and  C_5
REMARK    4  A    between atoms: C_6  and  O_7
REMARK    5  A    between atoms: O_7  and  C_8
REMARK    6  A    between atoms: C_12  and  C_13
REMARK                            x       y       z     vdW  Elec       q    Type
REMARK                         _______ _______ _______ _____ _____    ______ ____
ROOT
ATOM      1  C   LIG A   1      -8.879  -0.917 125.228  0.00  0.00    +0.177 A 
ATOM      2  C   LIG A   1      -8.078  -2.062 125.405  0.00  0.00    +0.204 A 
ATOM      3  C   LIG A   1      -6.774  -2.079 124.865  0.00  0.00    +0.169 A 
ATOM      4  C   LIG A   1      -6.341  -1.014 124.059  0.00  0.00    +0.096 A 
ATOM      5  C   LIG A   1      -7.165   0.090 123.851  0.00  0.00    +0.146 A 
ATOM      6  O   LIG A   1      -6.668   1.087 123.055  0.00  0.00    -0.454 OA
ATOM      7  C   LIG A   1      -7.456   2.214 122.826  0.00  0.00    +0.139 A 
ATOM      8  C   LIG A   1      -8.678   2.394 123.373  0.00  0.00    +0.098 A 
ATOM      9  C   LIG A   1      -8.413   0.146 124.449  0.00  0.00    +0.109 A 
ATOM     10  C   LIG A   1      -9.237   1.351 124.235  0.00  0.00    +0.197 A 
ATOM     11  O   LIG A   1     -10.334   1.475 124.749  0.00  0.00    -0.287 OA
ENDROOT
BRANCH   7  12
ATOM     12  C   LIG A   1      -6.806   3.203 121.930  0.00  0.00    +0.021 A 
ATOM     13  C   LIG A   1      -7.356   3.532 120.679  0.00  0.00    +0.061 A 
ATOM     14  C   LIG A   1      -6.683   4.437 119.883  0.00  0.00    +0.167 A 
ATOM     15  O   LIG A   1      -7.085   4.858 118.653  0.00  0.00    -0.453 OA
ATOM     16  C   LIG A   1      -6.020   5.771 118.317  0.00  0.00    +0.466 C 
ATOM     17  O   LIG A   1      -5.005   5.870 119.338  0.00  0.00    -0.453 OA
ATOM     18  C   LIG A   1      -5.498   5.013 120.271  0.00  0.00    +0.166 A 
ATOM     19  C   LIG A   1      -4.915   4.715 121.480  0.00  0.00    +0.050 A 
ATOM     20  C   LIG A   1      -5.578   3.802 122.310  0.00  0.00    +0.015 A 
ENDBRANCH   7  12
BRANCH   1  21
ATOM     21  O   LIG A   1     -10.093  -0.854 125.863  0.00  0.00    -0.503 OA
ATOM     22  H   LIG A   1     -10.090  -1.482 126.622  0.00  0.00    +0.292 HD
ENDBRANCH   1  21
BRANCH   2  23
ATOM     23  O   LIG A   1      -8.491  -3.144 126.136  0.00  0.00    -0.488 OA
ATOM     24  C   LIG A   1      -8.247  -3.125 127.538  0.00  0.00    +0.277 C 
ENDBRANCH   2  23
BRANCH   3  25
ATOM     25  O   LIG A   1      -5.811  -3.050 125.032  0.00  0.00    -0.491 OA
ATOM     26  C   LIG A   1      -5.197  -3.558 123.852  0.00  0.00    +0.277 C 
ENDBRANCH   3  25
TORSDOF 4
ENDMDL
MODEL 2
REMARK VINA RESULT:      -8.1      9.522     11.367
REMARK  Name = NuBBE_1582
REMARK  6 active torsions:
REMARK  status: ('A' for Active; 'I' for Inactive)
REMARK    1  A    between atoms: O_1  and  C_2
REMARK    2  A    between atoms: C_3  and  O_4
REMARK    3  A    between atoms: O_4  and  C_5
REMARK    4  A    between atoms: C_6  and  O_7
REMARK    5  A    between atoms: O_7  and  C_8
REMARK    6  A    between atoms: C_12  and  C_13
REMARK                            x       y       z     vdW  Elec       q    Type
REMARK                         _______ _______ _______ _____ _____    ______ ____
ROOT
ATOM      1  C   LIG A   1     -11.201   6.627 131.082  0.00  0.00    +0.177 A 
ATOM      2  C   LIG A   1     -11.757   7.350 130.010  0.00  0.00    +0.204 A 
ATOM      3  C   LIG A   1     -10.898   7.946 129.061  0.00  0.00    +0.169 A 
ATOM      4  C   LIG A   1      -9.509   7.915 129.267  0.00  0.00    +0.096 A 
ATOM      5  C   LIG A   1      -8.975   7.237 130.361  0.00  0.00    +0.146 A 
ATOM      6  O   LIG A   1      -7.611   7.253 130.487  0.00  0.00    -0.454 OA
ATOM      7  C   LIG A   1      -7.034   6.582 131.563  0.00  0.00    +0.139 A 
ATOM      8  C   LIG A   1      -7.745   5.887 132.479  0.00  0.00    +0.098 A 
ATOM      9  C   LIG A   1      -9.814   6.582 131.247  0.00  0.00    +0.109 A 
ATOM     10  C   LIG A   1      -9.204   5.843 132.369  0.00  0.00    +0.197 A 
ATOM     11  O   LIG A   1      -9.881   5.227 133.172  0.00  0.00    -0.287 OA
ENDROOT
BRANCH   7  12
ATOM     12  C   LIG A   1      -5.554   6.698 131.592  0.00  0.00    +0.021 A 
ATOM     13  C   LIG A   1      -4.796   6.153 132.643  0.00  0.00    +0.061 A 
ATOM     14  C   LIG A   1      -3.426   6.324 132.622  0.00  0.00    +0.167 A 
ATOM     15  O   LIG A   1      -2.559   5.857 133.560  0.00  0.00    -0.453 OA
ATOM     16  C   LIG A   1      -1.303   6.326 133.026  0.00  0.00    +0.466 C 
ATOM     17  O   LIG A   1      -1.444   7.065 131.795  0.00  0.00    -0.453 OA
ATOM     18  C   LIG A   1      -2.790   7.013 131.619  0.00  0.00    +0.166 A 
ATOM     19  C   LIG A   1      -3.489   7.574 130.576  0.00  0.00    +0.050 A 
ATOM     20  C   LIG A   1      -4.881   7.412 130.569  0.00  0.00    +0.015 A 
ENDBRANCH   7  12
BRANCH   1  21
ATOM     21  O   LIG A   1     -12.039   5.943 131.925  0.00  0.00    -0.503 OA
ATOM     22  H   LIG A   1     -11.940   6.302 132.836  0.00  0.00    +0.292 HD
ENDBRANCH   1  21
BRANCH   2  23
ATOM     23  O   LIG A   1     -13.110   7.451 129.811  0.00  0.00    -0.488 OA
ATOM     24  C   LIG A   1     -13.672   6.730 128.721  0.00  0.00    +0.277 C 
ENDBRANCH   2  23
BRANCH   3  25
ATOM     25  O   LIG A   1     -11.253   8.585 127.895  0.00  0.00    -0.491 OA
ATOM     26  C   LIG A   1     -10.955   7.912 126.675  0.00  0.00    +0.277 C 
ENDBRANCH   3  25
TORSDOF 4
ENDMDL
MODEL 3
REMARK VINA RESULT:      -7.7      9.447     11.098
REMARK  Name = NuBBE_1582
REMARK  6 active torsions:
REMARK  status: ('A' for Active; 'I' for Inactive)
REMARK    1  A    between atoms: O_1  and  C_2
REMARK    2  A    between atoms: C_3  and  O_4
REMARK    3  A    between atoms: O_4  and  C_5
REMARK    4  A    between atoms: C_6  and  O_7
REMARK    5  A    between atoms: O_7  and  C_8
REMARK    6  A    between atoms: C_12  and  C_13
REMARK                            x       y       z     vdW  Elec       q    Type
REMARK                         _______ _______ _______ _____ _____    ______ ____
ROOT
ATOM      1  C   LIG A   1      -5.292   5.956 133.211  0.00  0.00    +0.177 A 
ATOM      2  C   LIG A   1      -4.163   6.394 132.492  0.00  0.00    +0.204 A 
ATOM      3  C   LIG A   1      -4.345   7.070 131.266  0.00  0.00    +0.169 A 
ATOM      4  C   LIG A   1      -5.635   7.187 130.723  0.00  0.00    +0.096 A 
ATOM      5  C   LIG A   1      -6.739   6.705 131.423  0.00  0.00    +0.146 A 
ATOM      6  O   LIG A   1      -7.961   6.860 130.824  0.00  0.00    -0.454 OA
ATOM      7  C   LIG A   1      -9.094   6.398 131.492  0.00  0.00    +0.139 A 
ATOM      8  C   LIG A   1      -9.059   5.829 132.717  0.00  0.00    +0.098 A 
ATOM      9  C   LIG A   1      -6.569   6.115 132.664  0.00  0.00    +0.109 A 
ATOM     10  C   LIG A   1      -7.770   5.654 133.389  0.00  0.00    +0.197 A 
ATOM     11  O   LIG A   1      -7.694   5.147 134.494  0.00  0.00    -0.287 OA
ENDROOT
BRANCH   7  12
ATOM     12  C   LIG A   1     -10.347   6.610 130.724  0.00  0.00    +0.021 A 
ATOM     13  C   LIG A   1     -10.354   6.613 129.319  0.00  0.00    +0.061 A 
ATOM     14  C   LIG A   1     -11.549   6.847 128.669  0.00  0.00    +0.167 A 
ATOM     15  O   LIG A   1     -11.720   6.879 127.319  0.00  0.00    -0.453 OA
ATOM     16  C   LIG A   1     -13.132   7.156 127.231  0.00  0.00    +0.466 C 
ATOM     17  O   LIG A   1     -13.772   7.292 128.517  0.00  0.00    -0.453 OA
ATOM     18  C   LIG A   1     -12.718   7.084 129.349  0.00  0.00    +0.166 A 
ATOM     19  C   LIG A   1     -12.759   7.102 130.723  0.00  0.00    +0.050 A 
ATOM     20  C   LIG A   1     -11.562   6.864 131.410  0.00  0.00    +0.015 A 
ENDBRANCH   7  12
BRANCH   1  21
ATOM     21  O   LIG A   1      -5.115   5.418 134.459  0.00  0.00    -0.503 OA
ATOM     22  H   LIG A   1      -5.482   6.038 135.130  0.00  0.00    +0.292 HD
ENDBRANCH   1  21
BRANCH   2  23
ATOM     23  O   LIG A   1      -2.885   6.243 132.964  0.00  0.00    -0.488 OA
ATOM     24  C   LIG A   1      -2.177   5.068 132.589  0.00  0.00    +0.277 C 
ENDBRANCH   2  23
BRANCH   3  25
ATOM     25  O   LIG A   1      -3.380   7.668 130.488  0.00  0.00    -0.491 OA
ATOM     26  C   LIG A   1      -3.625   7.723 129.086  0.00  0.00    +0.277 C 
ENDBRANCH   3  25
TORSDOF 4
ENDMDL
MODEL 4
REMARK VINA RESULT:      -7.6      4.094      5.086
REMARK  Name = NuBBE_1582
REMARK  6 active torsions:
REMARK  status: ('A' for Active; 'I' for Inactive)
REMARK    1  A    between atoms: O_1  and  C_2
REMARK    2  A    between atoms: C_3  and  O_4
REMARK    3  A    between atoms: O_4  and  C_5
REMARK    4  A    between atoms: C_6  and  O_7
REMARK    5  A    between atoms: O_7  and  C_8
REMARK    6  A    between atoms: C_12  and  C_13
REMARK                            x       y       z     vdW  Elec       q    Type
REMARK                         _______ _______ _______ _____ _____    ______ ____
ROOT
ATOM      1  C   LIG A   1      -8.105  -0.237 123.611  0.00  0.00    +0.177 A 
ATOM      2  C   LIG A   1      -7.722  -1.592 123.606  0.00  0.00    +0.204 A 
ATOM      3  C   LIG A   1      -6.613  -1.999 124.378  0.00  0.00    +0.169 A 
ATOM      4  C   LIG A   1      -5.836  -1.033 125.039  0.00  0.00    +0.096 A 
ATOM      5  C   LIG A   1      -6.198   0.312 124.994  0.00  0.00    +0.146 A 
ATOM      6  O   LIG A   1      -5.389   1.188 125.667  0.00  0.00    -0.454 OA
ATOM      7  C   LIG A   1      -5.717   2.543 125.654  0.00  0.00    +0.139 A 
ATOM      8  C   LIG A   1      -6.812   3.040 125.038  0.00  0.00    +0.098 A 
ATOM      9  C   LIG A   1      -7.334   0.701 124.304  0.00  0.00    +0.109 A 
ATOM     10  C   LIG A   1      -7.703   2.130 124.316  0.00  0.00    +0.197 A 
ATOM     11  O   LIG A   1      -8.701   2.537 123.749  0.00  0.00    -0.287 OA
ENDROOT
BRANCH   7  12
ATOM     12  C   LIG A   1      -4.747   3.382 126.401  0.00  0.00    +0.021 A 
ATOM     13  C   LIG A   1      -5.043   4.709 126.752  0.00  0.00    +0.061 A 
ATOM     14  C   LIG A   1      -4.082   5.443 127.420  0.00  0.00    +0.167 A 
ATOM     15  O   LIG A   1      -4.217   6.734 127.829  0.00  0.00    -0.453 OA
ATOM     16  C   LIG A   1      -2.934   6.958 128.448  0.00  0.00    +0.466 C 
ATOM     17  O   LIG A   1      -2.061   5.811 128.390  0.00  0.00    -0.453 OA
ATOM     18  C   LIG A   1      -2.853   4.919 127.739  0.00  0.00    +0.166 A 
ATOM     19  C   LIG A   1      -2.513   3.630 127.407  0.00  0.00    +0.050 A 
ATOM     20  C   LIG A   1      -3.470   2.861 126.732  0.00  0.00    +0.015 A 
ENDBRANCH   7  12
BRANCH   1  21
ATOM     21  O   LIG A   1      -9.257   0.128 122.965  0.00  0.00    -0.503 OA
ATOM     22  H   LIG A   1      -9.814   0.660 123.578  0.00  0.00    +0.292 HD
ENDBRANCH   1  21
BRANCH   2  23
ATOM     23  O   LIG A   1      -8.423  -2.553 122.924  0.00  0.00    -0.488 OA
ATOM     24  C   LIG A   1      -9.425  -3.269 123.637  0.00  0.00    +0.277 C 
ENDBRANCH   2  23
BRANCH   3  25
ATOM     25  O   LIG A   1      -6.165  -3.283 124.590  0.00  0.00    -0.491 OA
ATOM     26  C   LIG A   1      -4.965  -3.665 123.923  0.00  0.00    +0.277 C 
ENDBRANCH   3  25
TORSDOF 4
ENDMDL
MODEL 5
REMARK VINA RESULT:      -7.4      7.824      9.636
REMARK  Name = NuBBE_1582
REMARK  6 active torsions:
REMARK  status: ('A' for Active; 'I' for Inactive)
REMARK    1  A    between atoms: O_1  and  C_2
REMARK    2  A    between atoms: C_3  and  O_4
REMARK    3  A    between atoms: O_4  and  C_5
REMARK    4  A    between atoms: C_6  and  O_7
REMARK    5  A    between atoms: O_7  and  C_8
REMARK    6  A    between atoms: C_12  and  C_13
REMARK                            x       y       z     vdW  Elec       q    Type
REMARK                         _______ _______ _______ _____ _____    ______ ____
ROOT
ATOM      1  C   LIG A   1     -10.258   6.282 131.961  0.00  0.00    +0.177 A 
ATOM      2  C   LIG A   1     -11.377   6.402 131.114  0.00  0.00    +0.204 A 
ATOM      3  C   LIG A   1     -11.245   6.077 129.747  0.00  0.00    +0.169 A 
ATOM      4  C   LIG A   1      -9.978   5.759 129.228  0.00  0.00    +0.096 A 
ATOM      5  C   LIG A   1      -8.870   5.692 130.069  0.00  0.00    +0.146 A 
ATOM      6  O   LIG A   1      -7.674   5.374 129.485  0.00  0.00    -0.454 OA
ATOM      7  C   LIG A   1      -6.540   5.290 130.290  0.00  0.00    +0.139 A 
ATOM      8  C   LIG A   1      -6.558   5.476 131.628  0.00  0.00    +0.098 A 
ATOM      9  C   LIG A   1      -9.015   5.931 131.426  0.00  0.00    +0.109 A 
ATOM     10  C   LIG A   1      -7.822   5.811 132.287  0.00  0.00    +0.197 A 
ATOM     11  O   LIG A   1      -7.883   5.985 133.491  0.00  0.00    -0.287 OA
ENDROOT
BRANCH   7  12
ATOM     12  C   LIG A   1      -5.309   4.959 129.527  0.00  0.00    +0.021 A 
ATOM     13  C   LIG A   1      -5.373   4.361 128.258  0.00  0.00    +0.061 A 
ATOM     14  C   LIG A   1      -4.189   4.052 127.617  0.00  0.00    +0.167 A 
ATOM     15  O   LIG A   1      -4.084   3.475 126.389  0.00  0.00    -0.453 OA
ATOM     16  C   LIG A   1      -2.650   3.399 126.248  0.00  0.00    +0.466 C 
ATOM     17  O   LIG A   1      -1.932   3.917 127.387  0.00  0.00    -0.453 OA
ATOM     18  C   LIG A   1      -2.964   4.301 128.185  0.00  0.00    +0.166 A 
ATOM     19  C   LIG A   1      -2.851   4.874 129.429  0.00  0.00    +0.050 A 
ATOM     20  C   LIG A   1      -4.035   5.202 130.101  0.00  0.00    +0.015 A 
ENDBRANCH   7  12
BRANCH   1  21
ATOM     21  O   LIG A   1     -10.423   6.474 133.308  0.00  0.00    -0.503 OA
ATOM     22  H   LIG A   1     -10.446   7.440 133.493  0.00  0.00    +0.292 HD
ENDBRANCH   1  21
BRANCH   2  23
ATOM     23  O   LIG A   1     -12.614   6.767 131.576  0.00  0.00    -0.488 OA
ATOM     24  C   LIG A   1     -12.964   8.145 131.508  0.00  0.00    +0.277 C 
ENDBRANCH   2  23
BRANCH   3  25
ATOM     25  O   LIG A   1     -12.242   6.020 128.799  0.00  0.00    -0.491 OA
ATOM     26  C   LIG A   1     -12.253   7.048 127.813  0.00  0.00    +0.277 C 
ENDBRANCH   3  25
TORSDOF 4
ENDMDL
MODEL 6
REMARK VINA RESULT:      -7.1      4.256      9.712
REMARK  Name = NuBBE_1582
REMARK  6 active torsions:
REMARK  status: ('A' for Active; 'I' for Inactive)
REMARK    1  A    between atoms: O_1  and  C_2
REMARK    2  A    between atoms: C_3  and  O_4
REMARK    3  A    between atoms: O_4  and  C_5
REMARK    4  A    between atoms: C_6  and  O_7
REMARK    5  A    between atoms: O_7  and  C_8
REMARK    6  A    between atoms: C_12  and  C_13
REMARK                            x       y       z     vdW  Elec       q    Type
REMARK                         _______ _______ _______ _____ _____    ______ ____
ROOT
ATOM      1  C   LIG A   1      -9.009  -2.202 125.970  0.00  0.00    +0.177 A 
ATOM      2  C   LIG A   1      -8.620  -1.217 125.041  0.00  0.00    +0.204 A 
ATOM      3  C   LIG A   1      -7.343  -0.628 125.157  0.00  0.00    +0.169 A 
ATOM      4  C   LIG A   1      -6.532  -0.939 126.260  0.00  0.00    +0.096 A 
ATOM      5  C   LIG A   1      -6.951  -1.878 127.199  0.00  0.00    +0.146 A 
ATOM      6  O   LIG A   1      -6.101  -2.125 128.243  0.00  0.00    -0.454 OA
ATOM      7  C   LIG A   1      -6.477  -3.064 129.202  0.00  0.00    +0.139 A 
ATOM      8  C   LIG A   1      -7.628  -3.770 129.144  0.00  0.00    +0.098 A 
ATOM      9  C   LIG A   1      -8.169  -2.519 127.042  0.00  0.00    +0.109 A 
ATOM     10  C   LIG A   1      -8.557  -3.536 128.038  0.00  0.00    +0.197 A 
ATOM     11  O   LIG A   1      -9.603  -4.153 127.947  0.00  0.00    -0.287 OA
ENDROOT
BRANCH   7  12
ATOM     12  C   LIG A   1      -5.476  -3.218 130.288  0.00  0.00    +0.021 A 
ATOM     13  C   LIG A   1      -5.456  -4.357 131.110  0.00  0.00    +0.061 A 
ATOM     14  C   LIG A   1      -4.517  -4.421 132.121  0.00  0.00    +0.167 A 
ATOM     15  O   LIG A   1      -4.368  -5.452 132.996  0.00  0.00    -0.453 OA
ATOM     16  C   LIG A   1      -3.266  -4.974 133.794  0.00  0.00    +0.466 C 
ATOM     17  O   LIG A   1      -2.787  -3.674 133.392  0.00  0.00    -0.453 OA
ATOM     18  C   LIG A   1      -3.617  -3.408 132.349  0.00  0.00    +0.166 A 
ATOM     19  C   LIG A   1      -3.606  -2.270 131.578  0.00  0.00    +0.050 A 
ATOM     20  C   LIG A   1      -4.545  -2.179 130.543  0.00  0.00    +0.015 A 
ENDBRANCH   7  12
BRANCH   1  21
ATOM     21  O   LIG A   1     -10.195  -2.863 125.777  0.00  0.00    -0.503 OA
ATOM     22  H   LIG A   1     -10.144  -3.374 124.937  0.00  0.00    +0.292 HD
ENDBRANCH   1  21
BRANCH   2  23
ATOM     23  O   LIG A   1      -9.411  -0.847 123.985  0.00  0.00    -0.488 OA
ATOM     24  C   LIG A   1      -9.181  -1.483 122.733  0.00  0.00    +0.277 C 
ENDBRANCH   2  23
BRANCH   3  25
ATOM     25  O   LIG A   1      -6.747   0.256 124.285  0.00  0.00    -0.491 OA
ATOM     26  C   LIG A   1      -6.929   1.644 124.551  0.00  0.00    +0.277 C 
ENDBRANCH   3  25
TORSDOF 4
ENDMDL
MODEL 7
REMARK VINA RESULT:      -7.1      2.669      8.352
REMARK  Name = NuBBE_1582
REMARK  6 active torsions:
REMARK  status: ('A' for Active; 'I' for Inactive)
REMARK    1  A    between atoms: O_1  and  C_2
REMARK    2  A    between atoms: C_3  and  O_4
REMARK    3  A    between atoms: O_4  and  C_5
REMARK    4  A    between atoms: C_6  and  O_7
REMARK    5  A    between atoms: O_7  and  C_8
REMARK    6  A    between atoms: C_12  and  C_13
REMARK                            x       y       z     vdW  Elec       q    Type
REMARK                         _______ _______ _______ _____ _____    ______ ____
ROOT
ATOM      1  C   LIG A   1      -9.007   1.121 123.308  0.00  0.00    +0.177 A 
ATOM      2  C   LIG A   1      -8.580   2.463 123.261  0.00  0.00    +0.204 A 
ATOM      3  C   LIG A   1      -7.609   2.909 124.183  0.00  0.00    +0.169 A 
ATOM      4  C   LIG A   1      -7.176   2.050 125.206  0.00  0.00    +0.096 A 
ATOM      5  C   LIG A   1      -7.645   0.740 125.270  0.00  0.00    +0.146 A 
ATOM      6  O   LIG A   1      -7.171  -0.033 126.297  0.00  0.00    -0.454 OA
ATOM      7  C   LIG A   1      -7.609  -1.353 126.394  0.00  0.00    +0.139 A 
ATOM      8  C   LIG A   1      -8.456  -1.926 125.511  0.00  0.00    +0.098 A 
ATOM      9  C   LIG A   1      -8.535   0.275 124.316  0.00  0.00    +0.109 A 
ATOM     10  C   LIG A   1      -8.975  -1.131 124.397  0.00  0.00    +0.197 A 
ATOM     11  O   LIG A   1      -9.739  -1.610 123.578  0.00  0.00    -0.287 OA
ENDROOT
BRANCH   7  12
ATOM     12  C   LIG A   1      -7.036  -2.068 127.562  0.00  0.00    +0.021 A 
ATOM     13  C   LIG A   1      -5.653  -2.075 127.812  0.00  0.00    +0.061 A 
ATOM     14  C   LIG A   1      -5.186  -2.787 128.899  0.00  0.00    +0.167 A 
ATOM     15  O   LIG A   1      -3.881  -2.888 129.274  0.00  0.00    -0.453 OA
ATOM     16  C   LIG A   1      -3.999  -3.729 130.440  0.00  0.00    +0.466 C 
ATOM     17  O   LIG A   1      -5.357  -4.119 130.732  0.00  0.00    -0.453 OA
ATOM     18  C   LIG A   1      -6.024  -3.489 129.729  0.00  0.00    +0.166 A 
ATOM     19  C   LIG A   1      -7.382  -3.523 129.519  0.00  0.00    +0.050 A 
ATOM     20  C   LIG A   1      -7.886  -2.806 128.425  0.00  0.00    +0.015 A 
ENDBRANCH   7  12
BRANCH   1  21
ATOM     21  O   LIG A   1      -9.851   0.660 122.330  0.00  0.00    -0.503 OA
ATOM     22  H   LIG A   1     -10.773   0.923 122.553  0.00  0.00    +0.292 HD
ENDBRANCH   1  21
BRANCH   2  23
ATOM     23  O   LIG A   1      -9.027   3.345 122.312  0.00  0.00    -0.488 OA
ATOM     24  C   LIG A   1      -8.287   3.441 121.101  0.00  0.00    +0.277 C 
ENDBRANCH   2  23
BRANCH   3  25
ATOM     25  O   LIG A   1      -6.990   4.138 124.217  0.00  0.00    -0.491 OA
ATOM     26  C   LIG A   1      -5.677   4.214 123.670  0.00  0.00    +0.277 C 
ENDBRANCH   3  25
TORSDOF 4
ENDMDL
MODEL 8
REMARK VINA RESULT:      -6.9      3.418      9.389
REMARK  Name = NuBBE_1582
REMARK  6 active torsions:
REMARK  status: ('A' for Active; 'I' for Inactive)
REMARK    1  A    between atoms: O_1  and  C_2
REMARK    2  A    between atoms: C_3  and  O_4
REMARK    3  A    between atoms: O_4  and  C_5
REMARK    4  A    between atoms: C_6  and  O_7
REMARK    5  A    between atoms: O_7  and  C_8
REMARK    6  A    between atoms: C_12  and  C_13
REMARK                            x       y       z     vdW  Elec       q    Type
REMARK                         _______ _______ _______ _____ _____    ______ ____
ROOT
ATOM      1  C   LIG A   1      -9.246  -0.128 124.730  0.00  0.00    +0.177 A 
ATOM      2  C   LIG A   1      -9.221   1.280 124.718  0.00  0.00    +0.204 A 
ATOM      3  C   LIG A   1      -8.620   1.968 125.794  0.00  0.00    +0.169 A 
ATOM      4  C   LIG A   1      -8.168   1.249 126.913  0.00  0.00    +0.096 A 
ATOM      5  C   LIG A   1      -8.245  -0.142 126.932  0.00  0.00    +0.146 A 
ATOM      6  O   LIG A   1      -7.782  -0.767 128.059  0.00  0.00    -0.454 OA
ATOM      7  C   LIG A   1      -7.834  -2.158 128.119  0.00  0.00    +0.139 A 
ATOM      8  C   LIG A   1      -8.290  -2.933 127.111  0.00  0.00    +0.098 A 
ATOM      9  C   LIG A   1      -8.760  -0.823 125.842  0.00  0.00    +0.109 A 
ATOM     10  C   LIG A   1      -8.786  -2.298 125.888  0.00  0.00    +0.197 A 
ATOM     11  O   LIG A   1      -9.204  -2.960 124.955  0.00  0.00    -0.287 OA
ENDROOT
BRANCH   7  12
ATOM     12  C   LIG A   1      -7.321  -2.703 129.402  0.00  0.00    +0.021 A 
ATOM     13  C   LIG A   1      -7.863  -2.305 130.636  0.00  0.00    +0.061 A 
ATOM     14  C   LIG A   1      -7.317  -2.828 131.792  0.00  0.00    +0.167 A 
ATOM     15  O   LIG A   1      -7.730  -2.545 133.057  0.00  0.00    -0.453 OA
ATOM     16  C   LIG A   1      -6.819  -3.357 133.827  0.00  0.00    +0.466 C 
ATOM     17  O   LIG A   1      -5.883  -4.096 133.016  0.00  0.00    -0.453 OA
ATOM     18  C   LIG A   1      -6.264  -3.710 131.770  0.00  0.00    +0.166 A 
ATOM     19  C   LIG A   1      -5.694  -4.119 130.588  0.00  0.00    +0.050 A 
ATOM     20  C   LIG A   1      -6.229  -3.608 129.399  0.00  0.00    +0.015 A 
ENDBRANCH   7  12
BRANCH   1  21
ATOM     21  O   LIG A   1      -9.714  -0.792 123.626  0.00  0.00    -0.503 OA
ATOM     22  H   LIG A   1      -9.298  -1.684 123.588  0.00  0.00    +0.292 HD
ENDBRANCH   1  21
BRANCH   2  23
ATOM     23  O   LIG A   1      -9.706   2.016 123.669  0.00  0.00    -0.488 OA
ATOM     24  C   LIG A   1      -8.773   2.475 122.698  0.00  0.00    +0.277 C 
ENDBRANCH   2  23
BRANCH   3  25
ATOM     25  O   LIG A   1      -8.397   3.323 125.902  0.00  0.00    -0.491 OA
ATOM     26  C   LIG A   1      -7.650   3.765 127.031  0.00  0.00    +0.277 C 
ENDBRANCH   3  25
TORSDOF 4
ENDMDL
MODEL 9
REMARK VINA RESULT:      -6.8      5.784      8.812
REMARK  Name = NuBBE_1582
REMARK  6 active torsions:
REMARK  status: ('A' for Active; 'I' for Inactive)
REMARK    1  A    between atoms: O_1  and  C_2
REMARK    2  A    between atoms: C_3  and  O_4
REMARK    3  A    between atoms: O_4  and  C_5
REMARK    4  A    between atoms: C_6  and  O_7
REMARK    5  A    between atoms: O_7  and  C_8
REMARK    6  A    between atoms: C_12  and  C_13
REMARK                            x       y       z     vdW  Elec       q    Type
REMARK                         _______ _______ _______ _____ _____    ______ ____
ROOT
ATOM      1  C   LIG A   1      -6.813  -2.819 133.349  0.00  0.00    +0.177 A 
ATOM      2  C   LIG A   1      -6.033  -3.878 133.854  0.00  0.00    +0.204 A 
ATOM      3  C   LIG A   1      -5.352  -4.724 132.952  0.00  0.00    +0.169 A 
ATOM      4  C   LIG A   1      -5.558  -4.575 131.571  0.00  0.00    +0.096 A 
ATOM      5  C   LIG A   1      -6.372  -3.553 131.087  0.00  0.00    +0.146 A 
ATOM      6  O   LIG A   1      -6.518  -3.477 129.727  0.00  0.00    -0.454 OA
ATOM      7  C   LIG A   1      -7.318  -2.465 129.199  0.00  0.00    +0.139 A 
ATOM      8  C   LIG A   1      -7.938  -1.532 129.955  0.00  0.00    +0.098 A 
ATOM      9  C   LIG A   1      -6.975  -2.672 131.968  0.00  0.00    +0.109 A 
ATOM     10  C   LIG A   1      -7.797  -1.580 131.411  0.00  0.00    +0.197 A 
ATOM     11  O   LIG A   1      -8.337  -0.757 132.128  0.00  0.00    -0.287 OA
ENDROOT
BRANCH   7  12
ATOM     12  C   LIG A   1      -7.408  -2.510 127.718  0.00  0.00    +0.021 A 
ATOM     13  C   LIG A   1      -8.616  -2.810 127.065  0.00  0.00    +0.061 A 
ATOM     14  C   LIG A   1      -8.620  -2.866 125.685  0.00  0.00    +0.167 A 
ATOM     15  O   LIG A   1      -9.705  -3.139 124.911  0.00  0.00    -0.453 OA
ATOM     16  C   LIG A   1      -9.124  -3.062 123.593  0.00  0.00    +0.466 C 
ATOM     17  O   LIG A   1      -7.714  -2.755 123.605  0.00  0.00    -0.453 OA
ATOM     18  C   LIG A   1      -7.487  -2.649 124.941  0.00  0.00    +0.166 A 
ATOM     19  C   LIG A   1      -6.281  -2.364 125.534  0.00  0.00    +0.050 A 
ATOM     20  C   LIG A   1      -6.247  -2.297 126.932  0.00  0.00    +0.015 A 
ENDBRANCH   7  12
BRANCH   1  21
ATOM     21  O   LIG A   1      -7.365  -1.925 134.229  0.00  0.00    -0.503 OA
ATOM     22  H   LIG A   1      -8.343  -1.923 134.112  0.00  0.00    +0.292 HD
ENDBRANCH   1  21
BRANCH   2  23
ATOM     23  O   LIG A   1      -5.858  -4.088 135.197  0.00  0.00    -0.488 OA
ATOM     24  C   LIG A   1      -6.732  -5.008 135.841  0.00  0.00    +0.277 C 
ENDBRANCH   2  23
BRANCH   3  25
ATOM     25  O   LIG A   1      -4.460  -5.727 133.256  0.00  0.00    -0.491 OA
ATOM     26  C   LIG A   1      -3.128  -5.331 133.570  0.00  0.00    +0.277 C 
ENDBRANCH   3  25
TORSDOF 4
ENDMDL
