MODEL 1
REMARK VINA RESULT:      -6.5      0.000      0.000
REMARK  Name = NuBBE_1350
REMARK  6 active torsions:
REMARK  status: ('A' for Active; 'I' for Inactive)
REMARK    1  A    between atoms: C_1  and  C_2
REMARK    2  A    between atoms: C_9  and  C_11
REMARK    3  A    between atoms: C_11  and  C_12
REMARK    4  A    between atoms: C_11  and  C_13
REMARK    5  A    between atoms: C_11  and  O_14
REMARK    6  A    between atoms: C_17  and  C_19
REMARK                            x       y       z     vdW  Elec       q    Type
REMARK                         _______ _______ _______ _____ _____    ______ ____
ROOT
ATOM      1  C   LIG A   1      -8.152  -4.123 124.979  0.00  0.00    +0.012 C 
ATOM      2  C   LIG A   1      -9.066  -3.316 125.896  0.00  0.00    +0.012 C 
ATOM      3  C   LIG A   1      -8.994  -3.794 127.350  0.00  0.00    +0.012 C 
ATOM      4  C   LIG A   1      -8.005  -2.864 128.046  0.00  0.00    +0.031 C 
ATOM      5  C   LIG A   1      -8.044  -1.631 127.191  0.00  0.00    -0.067 C 
ATOM      6  C   LIG A   1      -8.632  -1.874 126.010  0.00  0.00    -0.067 C 
ATOM      7  C   LIG A   1      -8.813  -0.949 124.845  0.00  0.00    +0.037 C 
ATOM      8  C   LIG A   1      -9.418   0.437 125.177  0.00  0.00    +0.024 C 
ATOM      9  C   LIG A   1      -8.422   1.316 125.964  0.00  0.00    +0.007 C 
ATOM     10  C   LIG A   1      -8.220   0.897 127.422  0.00  0.00    +0.008 C 
ATOM     11  C   LIG A   1      -7.395  -0.372 127.682  0.00  0.00    +0.012 C 
ATOM     12  C   LIG A   1      -5.961  -0.260 127.158  0.00  0.00    +0.012 C 
ENDROOT
BRANCH   8  13
ATOM     13  C   LIG A   1      -9.947   1.145 123.880  0.00  0.00    +0.064 C 
ATOM     14  C   LIG A   1      -9.182   2.440 123.567  0.00  0.00    +0.041 C 
ATOM     15  C   LIG A   1      -9.941   0.240 122.645  0.00  0.00    +0.041 C 
BRANCH  13  16
ATOM     16  O   LIG A   1     -11.313   1.536 124.095  0.00  0.00    -0.389 OA
ATOM     17  H   LIG A   1     -11.337   2.117 124.874  0.00  0.00    +0.210 HD
ENDBRANCH  13  16
ENDBRANCH   8  13
TORSDOF 2
ENDMDL
MODEL 2
REMARK VINA RESULT:      -6.5      2.108      2.965
REMARK  Name = NuBBE_1350
REMARK  6 active torsions:
REMARK  status: ('A' for Active; 'I' for Inactive)
REMARK    1  A    between atoms: C_1  and  C_2
REMARK    2  A    between atoms: C_9  and  C_11
REMARK    3  A    between atoms: C_11  and  C_12
REMARK    4  A    between atoms: C_11  and  C_13
REMARK    5  A    between atoms: C_11  and  O_14
REMARK    6  A    between atoms: C_17  and  C_19
REMARK                            x       y       z     vdW  Elec       q    Type
REMARK                         _______ _______ _______ _____ _____    ______ ____
ROOT
ATOM      1  C   LIG A   1      -5.997  -2.329 122.872  0.00  0.00    +0.012 C 
ATOM      2  C   LIG A   1      -7.470  -1.942 122.786  0.00  0.00    +0.012 C 
ATOM      3  C   LIG A   1      -8.394  -3.078 123.238  0.00  0.00    +0.012 C 
ATOM      4  C   LIG A   1      -8.731  -2.788 124.696  0.00  0.00    +0.031 C 
ATOM      5  C   LIG A   1      -8.514  -1.305 124.803  0.00  0.00    -0.067 C 
ATOM      6  C   LIG A   1      -7.827  -0.835 123.751  0.00  0.00    -0.067 C 
ATOM      7  C   LIG A   1      -7.338   0.558 123.497  0.00  0.00    +0.037 C 
ATOM      8  C   LIG A   1      -8.394   1.678 123.662  0.00  0.00    +0.024 C 
ATOM      9  C   LIG A   1      -8.780   1.879 125.143  0.00  0.00    +0.007 C 
ATOM     10  C   LIG A   1      -9.659   0.771 125.727  0.00  0.00    +0.008 C 
ATOM     11  C   LIG A   1      -8.986  -0.577 126.025  0.00  0.00    +0.012 C 
ATOM     12  C   LIG A   1      -7.860  -0.458 127.055  0.00  0.00    +0.012 C 
ENDROOT
BRANCH   8  13
ATOM     13  C   LIG A   1      -7.914   3.009 122.982  0.00  0.00    +0.064 C 
ATOM     14  C   LIG A   1      -6.395   3.036 122.757  0.00  0.00    +0.041 C 
ATOM     15  C   LIG A   1      -8.629   3.312 121.662  0.00  0.00    +0.041 C 
BRANCH  13  16
ATOM     16  O   LIG A   1      -8.200   4.105 123.865  0.00  0.00    -0.389 OA
ATOM     17  H   LIG A   1      -7.353   4.480 124.159  0.00  0.00    +0.210 HD
ENDBRANCH  13  16
ENDBRANCH   8  13
TORSDOF 2
ENDMDL
MODEL 3
REMARK VINA RESULT:      -6.4      3.094      5.215
REMARK  Name = NuBBE_1350
REMARK  6 active torsions:
REMARK  status: ('A' for Active; 'I' for Inactive)
REMARK    1  A    between atoms: C_1  and  C_2
REMARK    2  A    between atoms: C_9  and  C_11
REMARK    3  A    between atoms: C_11  and  C_12
REMARK    4  A    between atoms: C_11  and  C_13
REMARK    5  A    between atoms: C_11  and  O_14
REMARK    6  A    between atoms: C_17  and  C_19
REMARK                            x       y       z     vdW  Elec       q    Type
REMARK                         _______ _______ _______ _____ _____    ______ ____
ROOT
ATOM      1  C   LIG A   1      -4.868  -4.071 123.635  0.00  0.00    +0.012 C 
ATOM      2  C   LIG A   1      -5.195  -2.583 123.721  0.00  0.00    +0.012 C 
ATOM      3  C   LIG A   1      -5.894  -2.072 122.457  0.00  0.00    +0.012 C 
ATOM      4  C   LIG A   1      -7.387  -2.093 122.768  0.00  0.00    +0.031 C 
ATOM      5  C   LIG A   1      -7.419  -2.021 124.267  0.00  0.00    -0.067 C 
ATOM      6  C   LIG A   1      -6.214  -2.284 124.795  0.00  0.00    -0.067 C 
ATOM      7  C   LIG A   1      -5.825  -2.387 126.238  0.00  0.00    +0.037 C 
ATOM      8  C   LIG A   1      -6.271  -1.209 127.138  0.00  0.00    +0.024 C 
ATOM      9  C   LIG A   1      -7.800  -1.209 127.354  0.00  0.00    +0.007 C 
ATOM     10  C   LIG A   1      -8.613  -0.770 126.134  0.00  0.00    +0.008 C 
ATOM     11  C   LIG A   1      -8.720  -1.761 124.965  0.00  0.00    +0.012 C 
ATOM     12  C   LIG A   1      -9.393  -3.076 125.368  0.00  0.00    +0.012 C 
ENDROOT
BRANCH   8  13
ATOM     13  C   LIG A   1      -5.476  -1.202 128.491  0.00  0.00    +0.064 C 
ATOM     14  C   LIG A   1      -6.385  -0.955 129.704  0.00  0.00    +0.041 C 
ATOM     15  C   LIG A   1      -4.654  -2.474 128.722  0.00  0.00    +0.041 C 
BRANCH  13  16
ATOM     16  O   LIG A   1      -4.542  -0.110 128.470  0.00  0.00    -0.389 OA
ATOM     17  H   LIG A   1      -4.528   0.251 127.567  0.00  0.00    +0.210 HD
ENDBRANCH  13  16
ENDBRANCH   8  13
TORSDOF 2
ENDMDL
MODEL 4
REMARK VINA RESULT:      -6.3      3.516      6.322
REMARK  Name = NuBBE_1350
REMARK  6 active torsions:
REMARK  status: ('A' for Active; 'I' for Inactive)
REMARK    1  A    between atoms: C_1  and  C_2
REMARK    2  A    between atoms: C_9  and  C_11
REMARK    3  A    between atoms: C_11  and  C_12
REMARK    4  A    between atoms: C_11  and  C_13
REMARK    5  A    between atoms: C_11  and  O_14
REMARK    6  A    between atoms: C_17  and  C_19
REMARK                            x       y       z     vdW  Elec       q    Type
REMARK                         _______ _______ _______ _____ _____    ______ ____
ROOT
ATOM      1  C   LIG A   1      -7.374   4.122 120.208  0.00  0.00    +0.012 C 
ATOM      2  C   LIG A   1      -6.253   3.305 120.844  0.00  0.00    +0.012 C 
ATOM      3  C   LIG A   1      -4.898   4.015 120.754  0.00  0.00    +0.012 C 
ATOM      4  C   LIG A   1      -4.709   4.722 122.091  0.00  0.00    +0.031 C 
ATOM      5  C   LIG A   1      -5.589   3.933 123.018  0.00  0.00    -0.067 C 
ATOM      6  C   LIG A   1      -6.436   3.148 122.335  0.00  0.00    -0.067 C 
ATOM      7  C   LIG A   1      -7.522   2.260 122.861  0.00  0.00    +0.037 C 
ATOM      8  C   LIG A   1      -7.107   1.297 124.001  0.00  0.00    +0.024 C 
ATOM      9  C   LIG A   1      -6.832   2.060 125.314  0.00  0.00    +0.007 C 
ATOM     10  C   LIG A   1      -5.527   2.860 125.324  0.00  0.00    +0.008 C 
ATOM     11  C   LIG A   1      -5.489   4.153 124.497  0.00  0.00    +0.012 C 
ATOM     12  C   LIG A   1      -6.522   5.182 124.964  0.00  0.00    +0.012 C 
ENDROOT
BRANCH   8  13
ATOM     13  C   LIG A   1      -8.165   0.153 124.183  0.00  0.00    +0.064 C 
ATOM     14  C   LIG A   1      -8.705   0.077 125.619  0.00  0.00    +0.041 C 
ATOM     15  C   LIG A   1      -9.338   0.244 123.203  0.00  0.00    +0.041 C 
BRANCH  13  16
ATOM     16  O   LIG A   1      -7.523  -1.109 123.937  0.00  0.00    -0.389 OA
ATOM     17  H   LIG A   1      -8.142  -1.813 124.196  0.00  0.00    +0.210 HD
ENDBRANCH  13  16
ENDBRANCH   8  13
TORSDOF 2
ENDMDL
MODEL 5
REMARK VINA RESULT:      -6.3      2.049      3.687
REMARK  Name = NuBBE_1350
REMARK  6 active torsions:
REMARK  status: ('A' for Active; 'I' for Inactive)
REMARK    1  A    between atoms: C_1  and  C_2
REMARK    2  A    between atoms: C_9  and  C_11
REMARK    3  A    between atoms: C_11  and  C_12
REMARK    4  A    between atoms: C_11  and  C_13
REMARK    5  A    between atoms: C_11  and  O_14
REMARK    6  A    between atoms: C_17  and  C_19
REMARK                            x       y       z     vdW  Elec       q    Type
REMARK                         _______ _______ _______ _____ _____    ______ ____
ROOT
ATOM      1  C   LIG A   1      -5.465  -1.818 126.774  0.00  0.00    +0.012 C 
ATOM      2  C   LIG A   1      -5.424  -1.561 125.271  0.00  0.00    +0.012 C 
ATOM      3  C   LIG A   1      -4.902  -2.773 124.492  0.00  0.00    +0.012 C 
ATOM      4  C   LIG A   1      -6.140  -3.521 124.008  0.00  0.00    +0.031 C 
ATOM      5  C   LIG A   1      -7.196  -2.454 123.997  0.00  0.00    -0.067 C 
ATOM      6  C   LIG A   1      -6.803  -1.371 124.686  0.00  0.00    -0.067 C 
ATOM      7  C   LIG A   1      -7.571  -0.120 124.984  0.00  0.00    +0.037 C 
ATOM      8  C   LIG A   1      -8.249   0.556 123.767  0.00  0.00    +0.024 C 
ATOM      9  C   LIG A   1      -9.439  -0.278 123.246  0.00  0.00    +0.007 C 
ATOM     10  C   LIG A   1      -9.043  -1.552 122.497  0.00  0.00    +0.008 C 
ATOM     11  C   LIG A   1      -8.513  -2.725 123.334  0.00  0.00    +0.012 C 
ATOM     12  C   LIG A   1      -9.538  -3.233 124.351  0.00  0.00    +0.012 C 
ENDROOT
BRANCH   8  13
ATOM     13  C   LIG A   1      -8.654   2.035 124.098  0.00  0.00    +0.064 C 
ATOM     14  C   LIG A   1      -7.939   2.572 125.347  0.00  0.00    +0.041 C 
ATOM     15  C   LIG A   1      -8.435   3.003 122.932  0.00  0.00    +0.041 C 
BRANCH  13  16
ATOM     16  O   LIG A   1     -10.057   2.071 124.402  0.00  0.00    -0.389 OA
ATOM     17  H   LIG A   1     -10.430   1.199 124.189  0.00  0.00    +0.210 HD
ENDBRANCH  13  16
ENDBRANCH   8  13
TORSDOF 2
ENDMDL
MODEL 6
REMARK VINA RESULT:      -6.2      2.266      5.334
REMARK  Name = NuBBE_1350
REMARK  6 active torsions:
REMARK  status: ('A' for Active; 'I' for Inactive)
REMARK    1  A    between atoms: C_1  and  C_2
REMARK    2  A    between atoms: C_9  and  C_11
REMARK    3  A    between atoms: C_11  and  C_12
REMARK    4  A    between atoms: C_11  and  C_13
REMARK    5  A    between atoms: C_11  and  O_14
REMARK    6  A    between atoms: C_17  and  C_19
REMARK                            x       y       z     vdW  Elec       q    Type
REMARK                         _______ _______ _______ _____ _____    ______ ____
ROOT
ATOM      1  C   LIG A   1      -8.362   2.396 124.780  0.00  0.00    +0.012 C 
ATOM      2  C   LIG A   1      -9.433   1.315 124.899  0.00  0.00    +0.012 C 
ATOM      3  C   LIG A   1     -10.392   1.319 123.704  0.00  0.00    +0.012 C 
ATOM      4  C   LIG A   1      -9.873   0.251 122.748  0.00  0.00    +0.031 C 
ATOM      5  C   LIG A   1      -9.087  -0.656 123.650  0.00  0.00    -0.067 C 
ATOM      6  C   LIG A   1      -8.848  -0.077 124.837  0.00  0.00    -0.067 C 
ATOM      7  C   LIG A   1      -8.047  -0.598 125.990  0.00  0.00    +0.037 C 
ATOM      8  C   LIG A   1      -8.389  -2.037 126.447  0.00  0.00    +0.024 C 
ATOM      9  C   LIG A   1      -7.931  -3.085 125.409  0.00  0.00    +0.007 C 
ATOM     10  C   LIG A   1      -8.783  -3.134 124.139  0.00  0.00    +0.008 C 
ATOM     11  C   LIG A   1      -8.619  -1.983 123.136  0.00  0.00    +0.012 C 
ATOM     12  C   LIG A   1      -7.193  -1.881 122.586  0.00  0.00    +0.012 C 
ENDROOT
BRANCH   8  13
ATOM     13  C   LIG A   1      -7.815  -2.324 127.880  0.00  0.00    +0.064 C 
ATOM     14  C   LIG A   1      -7.826  -1.076 128.775  0.00  0.00    +0.041 C 
ATOM     15  C   LIG A   1      -8.524  -3.473 128.602  0.00  0.00    +0.041 C 
BRANCH  13  16
ATOM     16  O   LIG A   1      -6.436  -2.707 127.755  0.00  0.00    -0.389 OA
ATOM     17  H   LIG A   1      -5.896  -2.012 128.169  0.00  0.00    +0.210 HD
ENDBRANCH  13  16
ENDBRANCH   8  13
TORSDOF 2
ENDMDL
MODEL 7
REMARK VINA RESULT:      -6.1      3.165      4.798
REMARK  Name = NuBBE_1350
REMARK  6 active torsions:
REMARK  status: ('A' for Active; 'I' for Inactive)
REMARK    1  A    between atoms: C_1  and  C_2
REMARK    2  A    between atoms: C_9  and  C_11
REMARK    3  A    between atoms: C_11  and  C_12
REMARK    4  A    between atoms: C_11  and  C_13
REMARK    5  A    between atoms: C_11  and  O_14
REMARK    6  A    between atoms: C_17  and  C_19
REMARK                            x       y       z     vdW  Elec       q    Type
REMARK                         _______ _______ _______ _____ _____    ______ ____
ROOT
ATOM      1  C   LIG A   1      -3.215  -2.163 130.066  0.00  0.00    +0.012 C 
ATOM      2  C   LIG A   1      -3.991  -3.297 129.403  0.00  0.00    +0.012 C 
ATOM      3  C   LIG A   1      -4.369  -4.398 130.399  0.00  0.00    +0.012 C 
ATOM      4  C   LIG A   1      -5.801  -4.098 130.828  0.00  0.00    +0.031 C 
ATOM      5  C   LIG A   1      -6.332  -3.282 129.685  0.00  0.00    -0.067 C 
ATOM      6  C   LIG A   1      -5.339  -2.845 128.894  0.00  0.00    -0.067 C 
ATOM      7  C   LIG A   1      -5.420  -1.950 127.696  0.00  0.00    +0.037 C 
ATOM      8  C   LIG A   1      -6.468  -2.351 126.630  0.00  0.00    +0.024 C 
ATOM      9  C   LIG A   1      -7.909  -2.121 127.136  0.00  0.00    +0.007 C 
ATOM     10  C   LIG A   1      -8.382  -3.130 128.184  0.00  0.00    +0.008 C 
ATOM     11  C   LIG A   1      -7.801  -2.998 129.600  0.00  0.00    +0.012 C 
ATOM     12  C   LIG A   1      -8.132  -1.652 130.249  0.00  0.00    +0.012 C 
ENDROOT
BRANCH   8  13
ATOM     13  C   LIG A   1      -6.190  -1.625 125.266  0.00  0.00    +0.064 C 
ATOM     14  C   LIG A   1      -5.510  -0.261 125.457  0.00  0.00    +0.041 C 
ATOM     15  C   LIG A   1      -5.372  -2.468 124.283  0.00  0.00    +0.041 C 
BRANCH  13  16
ATOM     16  O   LIG A   1      -7.446  -1.353 124.625  0.00  0.00    -0.389 OA
ATOM     17  H   LIG A   1      -8.149  -1.475 125.286  0.00  0.00    +0.210 HD
ENDBRANCH  13  16
ENDBRANCH   8  13
TORSDOF 2
ENDMDL
MODEL 8
REMARK VINA RESULT:      -5.9      3.083      5.517
REMARK  Name = NuBBE_1350
REMARK  6 active torsions:
REMARK  status: ('A' for Active; 'I' for Inactive)
REMARK    1  A    between atoms: C_1  and  C_2
REMARK    2  A    between atoms: C_9  and  C_11
REMARK    3  A    between atoms: C_11  and  C_12
REMARK    4  A    between atoms: C_11  and  C_13
REMARK    5  A    between atoms: C_11  and  O_14
REMARK    6  A    between atoms: C_17  and  C_19
REMARK                            x       y       z     vdW  Elec       q    Type
REMARK                         _______ _______ _______ _____ _____    ______ ____
ROOT
ATOM      1  C   LIG A   1      -8.342   3.125 122.205  0.00  0.00    +0.012 C 
ATOM      2  C   LIG A   1      -6.886   2.734 122.441  0.00  0.00    +0.012 C 
ATOM      3  C   LIG A   1      -6.002   3.952 122.731  0.00  0.00    +0.012 C 
ATOM      4  C   LIG A   1      -5.893   4.035 124.250  0.00  0.00    +0.031 C 
ATOM      5  C   LIG A   1      -6.172   2.625 124.686  0.00  0.00    -0.067 C 
ATOM      6  C   LIG A   1      -6.713   1.905 123.691  0.00  0.00    -0.067 C 
ATOM      7  C   LIG A   1      -7.205   0.490 123.718  0.00  0.00    +0.037 C 
ATOM      8  C   LIG A   1      -6.223  -0.549 124.312  0.00  0.00    +0.024 C 
ATOM      9  C   LIG A   1      -6.066  -0.373 125.838  0.00  0.00    +0.007 C 
ATOM     10  C   LIG A   1      -5.246   0.849 126.255  0.00  0.00    +0.008 C 
ATOM     11  C   LIG A   1      -5.910   2.227 126.107  0.00  0.00    +0.012 C 
ATOM     12  C   LIG A   1      -7.179   2.363 126.952  0.00  0.00    +0.012 C 
ENDROOT
BRANCH   8  13
ATOM     13  C   LIG A   1      -6.642  -2.009 123.918  0.00  0.00    +0.064 C 
ATOM     14  C   LIG A   1      -7.716  -2.033 122.819  0.00  0.00    +0.041 C 
ATOM     15  C   LIG A   1      -5.463  -2.890 123.495  0.00  0.00    +0.041 C 
BRANCH  13  16
ATOM     16  O   LIG A   1      -7.237  -2.642 125.062  0.00  0.00    -0.389 OA
ATOM     17  H   LIG A   1      -6.673  -2.455 125.832  0.00  0.00    +0.210 HD
ENDBRANCH  13  16
ENDBRANCH   8  13
TORSDOF 2
ENDMDL
MODEL 9
REMARK VINA RESULT:      -5.8      1.887      4.584
REMARK  Name = NuBBE_1350
REMARK  6 active torsions:
REMARK  status: ('A' for Active; 'I' for Inactive)
REMARK    1  A    between atoms: C_1  and  C_2
REMARK    2  A    between atoms: C_9  and  C_11
REMARK    3  A    between atoms: C_11  and  C_12
REMARK    4  A    between atoms: C_11  and  C_13
REMARK    5  A    between atoms: C_11  and  O_14
REMARK    6  A    between atoms: C_17  and  C_19
REMARK                            x       y       z     vdW  Elec       q    Type
REMARK                         _______ _______ _______ _____ _____    ______ ____
ROOT
ATOM      1  C   LIG A   1      -8.779   2.585 122.910  0.00  0.00    +0.012 C 
ATOM      2  C   LIG A   1      -7.545   1.792 123.331  0.00  0.00    +0.012 C 
ATOM      3  C   LIG A   1      -6.397   2.704 123.774  0.00  0.00    +0.012 C 
ATOM      4  C   LIG A   1      -6.480   2.770 125.296  0.00  0.00    +0.031 C 
ATOM      5  C   LIG A   1      -7.213   1.507 125.648  0.00  0.00    -0.067 C 
ATOM      6  C   LIG A   1      -7.795   0.963 124.569  0.00  0.00    -0.067 C 
ATOM      7  C   LIG A   1      -8.673  -0.248 124.487  0.00  0.00    +0.037 C 
ATOM      8  C   LIG A   1      -8.126  -1.520 125.179  0.00  0.00    +0.024 C 
ATOM      9  C   LIG A   1      -8.138  -1.379 126.717  0.00  0.00    +0.007 C 
ATOM     10  C   LIG A   1      -7.067  -0.442 127.277  0.00  0.00    +0.008 C 
ATOM     11  C   LIG A   1      -7.277   1.066 127.079  0.00  0.00    +0.012 C 
ATOM     12  C   LIG A   1      -8.558   1.575 127.747  0.00  0.00    +0.012 C 
ENDROOT
BRANCH   8  13
ATOM     13  C   LIG A   1      -8.890  -2.800 124.689  0.00  0.00    +0.064 C 
ATOM     14  C   LIG A   1      -9.339  -2.689 123.224  0.00  0.00    +0.041 C 
ATOM     15  C   LIG A   1      -8.095  -4.096 124.880  0.00  0.00    +0.041 C 
BRANCH  13  16
ATOM     16  O   LIG A   1     -10.094  -2.941 125.460  0.00  0.00    -0.389 OA
ATOM     17  H   LIG A   1     -10.308  -3.888 125.507  0.00  0.00    +0.210 HD
ENDBRANCH  13  16
ENDBRANCH   8  13
TORSDOF 2
ENDMDL
