MODEL 1
REMARK VINA RESULT:      -7.3      0.000      0.000
REMARK  Name = NuBBE_1830
REMARK  6 active torsions:
REMARK  status: ('A' for Active; 'I' for Inactive)
REMARK    1  A    between atoms: C_6  and  C_8
REMARK    2  A    between atoms: C_17  and  C_27
REMARK    3  A    between atoms: C_19  and  C_24
REMARK    4  A    between atoms: C_21  and  O_22
REMARK    5  A    between atoms: O_22  and  C_23
REMARK    6  A    between atoms: C_24  and  C_25
REMARK                            x       y       z     vdW  Elec       q    Type
REMARK                         _______ _______ _______ _____ _____    ______ ____
ROOT
ATOM      1  O   LIG A   1      -9.977  -3.551 123.252  0.00  0.00    -0.284 OA
ATOM      2  C   LIG A   1      -9.302  -2.827 123.987  0.00  0.00    +0.223 C 
ATOM      3  C   LIG A   1      -8.903  -3.348 125.315  0.00  0.00    +0.096 C 
ATOM      4  C   LIG A   1      -8.027  -2.671 126.064  0.00  0.00    +0.113 C 
ATOM      5  O   LIG A   1      -7.852  -2.970 127.408  0.00  0.00    -0.487 OA
ATOM      6  C   LIG A   1      -7.506  -1.715 128.060  0.00  0.00    +0.207 C 
ATOM      7  C   LIG A   1      -7.637  -0.630 126.960  0.00  0.00    +0.049 C 
ATOM      8  C   LIG A   1      -7.371  -1.385 125.645  0.00  0.00    +0.059 C 
ATOM      9  C   LIG A   1      -8.069  -0.756 124.463  0.00  0.00    +0.038 C 
ATOM     10  C   LIG A   1      -8.921  -1.402 123.649  0.00  0.00    +0.164 C 
ATOM     11  C   LIG A   1      -6.920   0.693 127.161  0.00  0.00    +0.013 C 
ENDROOT
BRANCH   6  12
ATOM     12  C   LIG A   1      -6.210  -1.866 128.846  0.00  0.00    -0.003 A 
ATOM     13  C   LIG A   1      -6.057  -1.216 130.087  0.00  0.00    +0.056 A 
ATOM     14  C   LIG A   1      -4.877  -1.394 130.789  0.00  0.00    +0.167 A 
ATOM     15  C   LIG A   1      -3.854  -2.173 130.305  0.00  0.00    +0.166 A 
ATOM     16  C   LIG A   1      -3.961  -2.835 129.108  0.00  0.00    +0.050 A 
ATOM     17  C   LIG A   1      -5.157  -2.700 128.397  0.00  0.00    +0.011 A 
ATOM     18  O   LIG A   1      -2.782  -2.213 131.139  0.00  0.00    -0.453 OA
ATOM     19  C   LIG A   1      -3.250  -1.380 132.219  0.00  0.00    +0.466 C 
ATOM     20  O   LIG A   1      -4.577  -0.851 132.001  0.00  0.00    -0.453 OA
ENDBRANCH   6  12
BRANCH  10  21
ATOM     21  O   LIG A   1      -9.374  -0.708 122.536  0.00  0.00    -0.492 OA
ATOM     22  C   LIG A   1      -9.956   0.570 122.748  0.00  0.00    +0.277 C 
ENDBRANCH  10  21
BRANCH   8  23
ATOM     23  C   LIG A   1      -5.865  -1.561 125.279  0.00  0.00    +0.045 C 
BRANCH  23  24
ATOM     24  C   LIG A   1      -5.478  -2.896 124.686  0.00  0.00    -0.033 C 
ATOM     25  C   LIG A   1      -5.136  -3.070 123.402  0.00  0.00    +0.004 C 
ENDBRANCH  23  24
ENDBRANCH   8  23
TORSDOF 4
ENDMDL
MODEL 2
REMARK VINA RESULT:      -7.1      1.851      2.094
REMARK  Name = NuBBE_1830
REMARK  6 active torsions:
REMARK  status: ('A' for Active; 'I' for Inactive)
REMARK    1  A    between atoms: C_6  and  C_8
REMARK    2  A    between atoms: C_17  and  C_27
REMARK    3  A    between atoms: C_19  and  C_24
REMARK    4  A    between atoms: C_21  and  O_22
REMARK    5  A    between atoms: O_22  and  C_23
REMARK    6  A    between atoms: C_24  and  C_25
REMARK                            x       y       z     vdW  Elec       q    Type
REMARK                         _______ _______ _______ _____ _____    ______ ____
ROOT
ATOM      1  O   LIG A   1      -9.851  -3.090 124.320  0.00  0.00    -0.284 OA
ATOM      2  C   LIG A   1      -9.270  -2.615 125.298  0.00  0.00    +0.223 C 
ATOM      3  C   LIG A   1      -8.856  -3.533 126.385  0.00  0.00    +0.096 C 
ATOM      4  C   LIG A   1      -8.072  -3.090 127.372  0.00  0.00    +0.113 C 
ATOM      5  O   LIG A   1      -7.904  -3.824 128.538  0.00  0.00    -0.487 OA
ATOM      6  C   LIG A   1      -7.702  -2.853 129.603  0.00  0.00    +0.207 C 
ATOM      7  C   LIG A   1      -7.912  -1.467 128.941  0.00  0.00    +0.049 C 
ATOM      8  C   LIG A   1      -7.537  -1.688 127.465  0.00  0.00    +0.059 C 
ATOM      9  C   LIG A   1      -8.263  -0.746 126.534  0.00  0.00    +0.038 C 
ATOM     10  C   LIG A   1      -9.025  -1.136 125.497  0.00  0.00    +0.164 C 
ATOM     11  C   LIG A   1      -7.336  -0.242 129.630  0.00  0.00    +0.013 C 
ENDROOT
BRANCH   6  12
ATOM     12  C   LIG A   1      -6.419  -3.160 130.364  0.00  0.00    -0.003 A 
ATOM     13  C   LIG A   1      -6.421  -3.182 131.773  0.00  0.00    +0.056 A 
ATOM     14  C   LIG A   1      -5.244  -3.489 132.435  0.00  0.00    +0.167 A 
ATOM     15  C   LIG A   1      -4.079  -3.761 131.758  0.00  0.00    +0.166 A 
ATOM     16  C   LIG A   1      -4.030  -3.763 130.386  0.00  0.00    +0.050 A 
ATOM     17  C   LIG A   1      -5.215  -3.491 129.694  0.00  0.00    +0.011 A 
ATOM     18  O   LIG A   1      -3.038  -4.031 132.587  0.00  0.00    -0.453 OA
ATOM     19  C   LIG A   1      -3.681  -3.916 133.872  0.00  0.00    +0.466 C 
ATOM     20  O   LIG A   1      -5.081  -3.565 133.784  0.00  0.00    -0.453 OA
ENDBRANCH   6  12
BRANCH  10  21
ATOM     21  O   LIG A   1      -9.515  -0.137 124.669  0.00  0.00    -0.492 OA
ATOM     22  C   LIG A   1      -9.499   1.195 125.161  0.00  0.00    +0.277 C 
ENDBRANCH  10  21
BRANCH   8  23
ATOM     23  C   LIG A   1      -6.012  -1.597 127.150  0.00  0.00    +0.045 C 
BRANCH  23  24
ATOM     24  C   LIG A   1      -5.648  -1.252 125.724  0.00  0.00    -0.033 C 
ATOM     25  C   LIG A   1      -5.441  -2.166 124.766  0.00  0.00    +0.004 C 
ENDBRANCH  23  24
ENDBRANCH   8  23
TORSDOF 4
ENDMDL
MODEL 3
REMARK VINA RESULT:      -7.1      7.158      9.007
REMARK  Name = NuBBE_1830
REMARK  6 active torsions:
REMARK  status: ('A' for Active; 'I' for Inactive)
REMARK    1  A    between atoms: C_6  and  C_8
REMARK    2  A    between atoms: C_17  and  C_27
REMARK    3  A    between atoms: C_19  and  C_24
REMARK    4  A    between atoms: C_21  and  O_22
REMARK    5  A    between atoms: O_22  and  C_23
REMARK    6  A    between atoms: C_24  and  C_25
REMARK                            x       y       z     vdW  Elec       q    Type
REMARK                         _______ _______ _______ _____ _____    ______ ____
ROOT
ATOM      1  O   LIG A   1     -13.171   7.269 130.592  0.00  0.00    -0.284 OA
ATOM      2  C   LIG A   1     -11.958   7.067 130.686  0.00  0.00    +0.223 C 
ATOM      3  C   LIG A   1     -11.460   6.307 131.856  0.00  0.00    +0.096 C 
ATOM      4  C   LIG A   1     -10.183   5.915 131.904  0.00  0.00    +0.113 C 
ATOM      5  O   LIG A   1      -9.616   5.464 133.089  0.00  0.00    -0.487 OA
ATOM      6  C   LIG A   1      -8.212   5.845 133.036  0.00  0.00    +0.207 C 
ATOM      7  C   LIG A   1      -8.063   6.691 131.746  0.00  0.00    +0.049 C 
ATOM      8  C   LIG A   1      -9.176   6.172 130.818  0.00  0.00    +0.059 C 
ATOM      9  C   LIG A   1      -9.656   7.221 129.843  0.00  0.00    +0.038 C 
ATOM     10  C   LIG A   1     -10.934   7.619 129.719  0.00  0.00    +0.164 C 
ATOM     11  C   LIG A   1      -6.678   6.858 131.146  0.00  0.00    +0.013 C 
ENDROOT
BRANCH   6  12
ATOM     12  C   LIG A   1      -7.324   4.630 133.271  0.00  0.00    -0.003 A 
ATOM     13  C   LIG A   1      -7.887   3.339 133.298  0.00  0.00    +0.056 A 
ATOM     14  C   LIG A   1      -7.049   2.252 133.488  0.00  0.00    +0.167 A 
ATOM     15  C   LIG A   1      -5.694   2.401 133.661  0.00  0.00    +0.166 A 
ATOM     16  C   LIG A   1      -5.098   3.637 133.631  0.00  0.00    +0.050 A 
ATOM     17  C   LIG A   1      -5.918   4.747 133.404  0.00  0.00    +0.011 A 
ATOM     18  O   LIG A   1      -5.052   1.218 133.839  0.00  0.00    -0.453 OA
ATOM     19  C   LIG A   1      -6.157   0.296 133.742  0.00  0.00    +0.466 C 
ATOM     20  O   LIG A   1      -7.429   0.946 133.526  0.00  0.00    -0.453 OA
ENDBRANCH   6  12
BRANCH  10  21
ATOM     21  O   LIG A   1     -11.219   8.500 128.686  0.00  0.00    -0.492 OA
ATOM     22  C   LIG A   1     -10.845   8.117 127.370  0.00  0.00    +0.277 C 
ENDBRANCH  10  21
BRANCH   8  23
ATOM     23  C   LIG A   1      -8.814   4.890 130.008  0.00  0.00    +0.045 C 
BRANCH  23  24
ATOM     24  C   LIG A   1      -9.740   3.708 130.187  0.00  0.00    -0.033 C 
ATOM     25  C   LIG A   1      -9.331   2.432 130.178  0.00  0.00    +0.004 C 
ENDBRANCH  23  24
ENDBRANCH   8  23
TORSDOF 4
ENDMDL
MODEL 4
REMARK VINA RESULT:      -6.9      2.853      4.330
REMARK  Name = NuBBE_1830
REMARK  6 active torsions:
REMARK  status: ('A' for Active; 'I' for Inactive)
REMARK    1  A    between atoms: C_6  and  C_8
REMARK    2  A    between atoms: C_17  and  C_27
REMARK    3  A    between atoms: C_19  and  C_24
REMARK    4  A    between atoms: C_21  and  O_22
REMARK    5  A    between atoms: O_22  and  C_23
REMARK    6  A    between atoms: C_24  and  C_25
REMARK                            x       y       z     vdW  Elec       q    Type
REMARK                         _______ _______ _______ _____ _____    ______ ____
ROOT
ATOM      1  O   LIG A   1      -9.012   3.462 121.469  0.00  0.00    -0.284 OA
ATOM      2  C   LIG A   1      -8.385   3.032 122.440  0.00  0.00    +0.223 C 
ATOM      3  C   LIG A   1      -9.124   2.271 123.474  0.00  0.00    +0.096 C 
ATOM      4  C   LIG A   1      -8.456   1.638 124.443  0.00  0.00    +0.113 C 
ATOM      5  O   LIG A   1      -9.109   1.167 125.574  0.00  0.00    -0.487 OA
ATOM      6  C   LIG A   1      -8.148   1.257 126.664  0.00  0.00    +0.207 C 
ATOM      7  C   LIG A   1      -6.908   1.966 126.061  0.00  0.00    +0.049 C 
ATOM      8  C   LIG A   1      -6.957   1.615 124.563  0.00  0.00    +0.059 C 
ATOM      9  C   LIG A   1      -6.307   2.668 123.698  0.00  0.00    +0.038 C 
ATOM     10  C   LIG A   1      -6.916   3.301 122.681  0.00  0.00    +0.164 C 
ATOM     11  C   LIG A   1      -5.573   1.812 126.769  0.00  0.00    +0.013 C 
ENDROOT
BRANCH   6  12
ATOM     12  C   LIG A   1      -8.007  -0.090 127.359  0.00  0.00    -0.003 A 
ATOM     13  C   LIG A   1      -7.669  -0.149 128.726  0.00  0.00    +0.056 A 
ATOM     14  C   LIG A   1      -7.573  -1.388 129.335  0.00  0.00    +0.167 A 
ATOM     15  C   LIG A   1      -7.787  -2.556 128.643  0.00  0.00    +0.166 A 
ATOM     16  C   LIG A   1      -8.130  -2.551 127.313  0.00  0.00    +0.050 A 
ATOM     17  C   LIG A   1      -8.268  -1.309 126.685  0.00  0.00    +0.011 A 
ATOM     18  O   LIG A   1      -7.638  -3.663 129.417  0.00  0.00    -0.453 OA
ATOM     19  C   LIG A   1      -7.321  -3.060 130.688  0.00  0.00    +0.466 C 
ATOM     20  O   LIG A   1      -7.272  -1.617 130.642  0.00  0.00    -0.453 OA
ENDBRANCH   6  12
BRANCH  10  21
ATOM     21  O   LIG A   1      -6.133   4.148 121.910  0.00  0.00    -0.492 OA
ATOM     22  C   LIG A   1      -5.571   3.621 120.716  0.00  0.00    +0.277 C 
ENDBRANCH  10  21
BRANCH   8  23
ATOM     23  C   LIG A   1      -6.338   0.233 124.189  0.00  0.00    +0.045 C 
BRANCH  23  24
ATOM     24  C   LIG A   1      -7.137  -0.612 123.222  0.00  0.00    -0.033 C 
ATOM     25  C   LIG A   1      -7.027  -1.945 123.132  0.00  0.00    +0.004 C 
ENDBRANCH  23  24
ENDBRANCH   8  23
TORSDOF 4
ENDMDL
MODEL 5
REMARK VINA RESULT:      -6.9      7.318     10.768
REMARK  Name = NuBBE_1830
REMARK  6 active torsions:
REMARK  status: ('A' for Active; 'I' for Inactive)
REMARK    1  A    between atoms: C_6  and  C_8
REMARK    2  A    between atoms: C_17  and  C_27
REMARK    3  A    between atoms: C_19  and  C_24
REMARK    4  A    between atoms: C_21  and  O_22
REMARK    5  A    between atoms: O_22  and  C_23
REMARK    6  A    between atoms: C_24  and  C_25
REMARK                            x       y       z     vdW  Elec       q    Type
REMARK                         _______ _______ _______ _____ _____    ______ ____
ROOT
ATOM      1  O   LIG A   1      -8.005  -0.327 132.731  0.00  0.00    -0.284 OA
ATOM      2  C   LIG A   1      -7.989   0.881 132.482  0.00  0.00    +0.223 C 
ATOM      3  C   LIG A   1      -9.082   1.442 131.654  0.00  0.00    +0.096 C 
ATOM      4  C   LIG A   1      -9.199   2.766 131.511  0.00  0.00    +0.113 C 
ATOM      5  O   LIG A   1     -10.015   3.311 130.529  0.00  0.00    -0.487 OA
ATOM      6  C   LIG A   1      -9.389   4.563 130.132  0.00  0.00    +0.207 C 
ATOM      7  C   LIG A   1      -8.043   4.612 130.899  0.00  0.00    +0.049 C 
ATOM      8  C   LIG A   1      -8.294   3.772 132.164  0.00  0.00    +0.059 C 
ATOM      9  C   LIG A   1      -7.033   3.133 132.696  0.00  0.00    +0.038 C 
ATOM     10  C   LIG A   1      -6.877   1.814 132.904  0.00  0.00    +0.164 C 
ATOM     11  C   LIG A   1      -7.362   5.957 131.079  0.00  0.00    +0.013 C 
ENDROOT
BRANCH   6  12
ATOM     12  C   LIG A   1     -10.384   5.711 130.242  0.00  0.00    -0.003 A 
ATOM     13  C   LIG A   1     -10.463   6.678 129.220  0.00  0.00    +0.056 A 
ATOM     14  C   LIG A   1     -11.396   7.695 129.337  0.00  0.00    +0.167 A 
ATOM     15  C   LIG A   1     -12.232   7.792 130.424  0.00  0.00    +0.166 A 
ATOM     16  C   LIG A   1     -12.200   6.868 131.439  0.00  0.00    +0.050 A 
ATOM     17  C   LIG A   1     -11.291   5.811 131.325  0.00  0.00    +0.011 A 
ATOM     18  O   LIG A   1     -13.066   8.862 130.353  0.00  0.00    -0.453 OA
ATOM     19  C   LIG A   1     -12.673   9.425 129.086  0.00  0.00    +0.466 C 
ATOM     20  O   LIG A   1     -11.609   8.694 128.438  0.00  0.00    -0.453 OA
ENDBRANCH   6  12
BRANCH  10  21
ATOM     21  O   LIG A   1      -5.699   1.411 133.517  0.00  0.00    -0.492 OA
ATOM     22  C   LIG A   1      -5.334   2.053 134.731  0.00  0.00    +0.277 C 
ENDBRANCH  10  21
BRANCH   8  23
ATOM     23  C   LIG A   1      -8.979   4.537 133.338  0.00  0.00    +0.045 C 
BRANCH  23  24
ATOM     24  C   LIG A   1      -8.257   4.502 134.666  0.00  0.00    -0.033 C 
ATOM     25  C   LIG A   1      -7.737   5.585 135.260  0.00  0.00    +0.004 C 
ENDBRANCH  23  24
ENDBRANCH   8  23
TORSDOF 4
ENDMDL
MODEL 6
REMARK VINA RESULT:      -6.7      1.373      7.150
REMARK  Name = NuBBE_1830
REMARK  6 active torsions:
REMARK  status: ('A' for Active; 'I' for Inactive)
REMARK    1  A    between atoms: C_6  and  C_8
REMARK    2  A    between atoms: C_17  and  C_27
REMARK    3  A    between atoms: C_19  and  C_24
REMARK    4  A    between atoms: C_21  and  O_22
REMARK    5  A    between atoms: O_22  and  C_23
REMARK    6  A    between atoms: C_24  and  C_25
REMARK                            x       y       z     vdW  Elec       q    Type
REMARK                         _______ _______ _______ _____ _____    ______ ____
ROOT
ATOM      1  O   LIG A   1      -3.430  -3.637 130.882  0.00  0.00    -0.284 OA
ATOM      2  C   LIG A   1      -4.100  -2.828 130.236  0.00  0.00    +0.223 C 
ATOM      3  C   LIG A   1      -4.340  -3.101 128.800  0.00  0.00    +0.096 C 
ATOM      4  C   LIG A   1      -5.204  -2.348 128.111  0.00  0.00    +0.113 C 
ATOM      5  O   LIG A   1      -5.239  -2.384 126.724  0.00  0.00    -0.487 OA
ATOM      6  C   LIG A   1      -5.634  -1.051 126.294  0.00  0.00    +0.207 C 
ATOM      7  C   LIG A   1      -5.688  -0.200 127.589  0.00  0.00    +0.049 C 
ATOM      8  C   LIG A   1      -5.999  -1.217 128.702  0.00  0.00    +0.059 C 
ATOM      9  C   LIG A   1      -5.459  -0.791 130.046  0.00  0.00    +0.038 C 
ATOM     10  C   LIG A   1      -4.627  -1.528 130.801  0.00  0.00    +0.164 C 
ATOM     11  C   LIG A   1      -6.495   1.086 127.576  0.00  0.00    +0.013 C 
ENDROOT
BRANCH   6  12
ATOM     12  C   LIG A   1      -6.841  -1.128 125.369  0.00  0.00    -0.003 A 
ATOM     13  C   LIG A   1      -7.314   0.033 124.726  0.00  0.00    +0.056 A 
ATOM     14  C   LIG A   1      -8.398  -0.075 123.871  0.00  0.00    +0.167 A 
ATOM     15  C   LIG A   1      -9.027  -1.276 123.644  0.00  0.00    +0.166 A 
ATOM     16  C   LIG A   1      -8.596  -2.436 124.237  0.00  0.00    +0.050 A 
ATOM     17  C   LIG A   1      -7.480  -2.358 125.077  0.00  0.00    +0.011 A 
ATOM     18  O   LIG A   1     -10.071  -1.169 122.781  0.00  0.00    -0.453 OA
ATOM     19  C   LIG A   1     -10.022   0.239 122.473  0.00  0.00    +0.466 C 
ATOM     20  O   LIG A   1      -8.966   0.941 123.167  0.00  0.00    -0.453 OA
ENDBRANCH   6  12
BRANCH  10  21
ATOM     21  O   LIG A   1      -4.330  -1.040 132.066  0.00  0.00    -0.492 OA
ATOM     22  C   LIG A   1      -3.927   0.318 132.171  0.00  0.00    +0.277 C 
ENDBRANCH  10  21
BRANCH   8  23
ATOM     23  C   LIG A   1      -7.510  -1.562 128.876  0.00  0.00    +0.045 C 
BRANCH  23  24
ATOM     24  C   LIG A   1      -7.839  -3.025 129.069  0.00  0.00    -0.033 C 
ATOM     25  C   LIG A   1      -8.639  -3.723 128.251  0.00  0.00    +0.004 C 
ENDBRANCH  23  24
ENDBRANCH   8  23
TORSDOF 4
ENDMDL
MODEL 7
REMARK VINA RESULT:      -6.6      4.206      5.979
REMARK  Name = NuBBE_1830
REMARK  6 active torsions:
REMARK  status: ('A' for Active; 'I' for Inactive)
REMARK    1  A    between atoms: C_6  and  C_8
REMARK    2  A    between atoms: C_17  and  C_27
REMARK    3  A    between atoms: C_19  and  C_24
REMARK    4  A    between atoms: C_21  and  O_22
REMARK    5  A    between atoms: O_22  and  C_23
REMARK    6  A    between atoms: C_24  and  C_25
REMARK                            x       y       z     vdW  Elec       q    Type
REMARK                         _______ _______ _______ _____ _____    ______ ____
ROOT
ATOM      1  O   LIG A   1     -10.965   1.232 124.397  0.00  0.00    -0.284 OA
ATOM      2  C   LIG A   1      -9.822   1.133 124.850  0.00  0.00    +0.223 C 
ATOM      3  C   LIG A   1      -8.887   2.266 124.656  0.00  0.00    +0.096 C 
ATOM      4  C   LIG A   1      -7.706   2.273 125.282  0.00  0.00    +0.113 C 
ATOM      5  O   LIG A   1      -6.702   3.155 124.907  0.00  0.00    -0.487 OA
ATOM      6  C   LIG A   1      -5.444   2.468 125.163  0.00  0.00    +0.207 C 
ATOM      7  C   LIG A   1      -5.839   1.035 125.600  0.00  0.00    +0.049 C 
ATOM      8  C   LIG A   1      -7.239   1.196 126.221  0.00  0.00    +0.059 C 
ATOM      9  C   LIG A   1      -8.075  -0.056 126.102  0.00  0.00    +0.038 C 
ATOM     10  C   LIG A   1      -9.288  -0.110 125.526  0.00  0.00    +0.164 C 
ATOM     11  C   LIG A   1      -4.826   0.209 126.373  0.00  0.00    +0.013 C 
ENDROOT
BRANCH   6  12
ATOM     12  C   LIG A   1      -4.544   3.324 126.044  0.00  0.00    -0.003 A 
ATOM     13  C   LIG A   1      -4.996   4.573 126.515  0.00  0.00    +0.056 A 
ATOM     14  C   LIG A   1      -4.163   5.316 127.334  0.00  0.00    +0.167 A 
ATOM     15  C   LIG A   1      -2.911   4.875 127.690  0.00  0.00    +0.166 A 
ATOM     16  C   LIG A   1      -2.431   3.660 127.267  0.00  0.00    +0.050 A 
ATOM     17  C   LIG A   1      -3.268   2.876 126.467  0.00  0.00    +0.011 A 
ATOM     18  O   LIG A   1      -2.251   5.751 128.491  0.00  0.00    -0.453 OA
ATOM     19  C   LIG A   1      -3.238   6.794 128.618  0.00  0.00    +0.466 C 
ATOM     20  O   LIG A   1      -4.452   6.529 127.881  0.00  0.00    -0.453 OA
ENDBRANCH   6  12
BRANCH  10  21
ATOM     21  O   LIG A   1      -9.972  -1.314 125.616  0.00  0.00    -0.492 OA
ATOM     22  C   LIG A   1      -9.226  -2.472 125.964  0.00  0.00    +0.277 C 
ENDBRANCH  10  21
BRANCH   8  23
ATOM     23  C   LIG A   1      -7.250   1.644 127.715  0.00  0.00    +0.045 C 
BRANCH  23  24
ATOM     24  C   LIG A   1      -8.247   2.721 128.078  0.00  0.00    -0.033 C 
ATOM     25  C   LIG A   1      -7.916   3.871 128.680  0.00  0.00    +0.004 C 
ENDBRANCH  23  24
ENDBRANCH   8  23
TORSDOF 4
ENDMDL
MODEL 8
REMARK VINA RESULT:      -6.6      1.891      7.361
REMARK  Name = NuBBE_1830
REMARK  6 active torsions:
REMARK  status: ('A' for Active; 'I' for Inactive)
REMARK    1  A    between atoms: C_6  and  C_8
REMARK    2  A    between atoms: C_17  and  C_27
REMARK    3  A    between atoms: C_19  and  C_24
REMARK    4  A    between atoms: C_21  and  O_22
REMARK    5  A    between atoms: O_22  and  C_23
REMARK    6  A    between atoms: C_24  and  C_25
REMARK                            x       y       z     vdW  Elec       q    Type
REMARK                         _______ _______ _______ _____ _____    ______ ____
ROOT
ATOM      1  O   LIG A   1      -4.440  -0.712 133.340  0.00  0.00    -0.284 OA
ATOM      2  C   LIG A   1      -5.119  -1.229 132.450  0.00  0.00    +0.223 C 
ATOM      3  C   LIG A   1      -5.345  -0.462 131.202  0.00  0.00    +0.096 C 
ATOM      4  C   LIG A   1      -5.920  -1.052 130.150  0.00  0.00    +0.113 C 
ATOM      5  O   LIG A   1      -6.404  -0.304 129.085  0.00  0.00    -0.487 OA
ATOM      6  C   LIG A   1      -7.547  -1.037 128.562  0.00  0.00    +0.207 C 
ATOM      7  C   LIG A   1      -7.753  -2.226 129.534  0.00  0.00    +0.049 C 
ATOM      8  C   LIG A   1      -6.354  -2.491 130.118  0.00  0.00    +0.059 C 
ATOM      9  C   LIG A   1      -6.405  -3.095 131.501  0.00  0.00    +0.038 C 
ATOM     10  C   LIG A   1      -5.806  -2.570 132.584  0.00  0.00    +0.164 C 
ATOM     11  C   LIG A   1      -8.544  -3.429 129.049  0.00  0.00    +0.013 C 
ENDROOT
BRANCH   6  12
ATOM     12  C   LIG A   1      -7.381  -1.281 127.067  0.00  0.00    -0.003 A 
ATOM     13  C   LIG A   1      -8.515  -1.381 126.238  0.00  0.00    +0.056 A 
ATOM     14  C   LIG A   1      -8.331  -1.577 124.879  0.00  0.00    +0.167 A 
ATOM     15  C   LIG A   1      -7.078  -1.687 124.325  0.00  0.00    +0.166 A 
ATOM     16  C   LIG A   1      -5.943  -1.584 125.090  0.00  0.00    +0.050 A 
ATOM     17  C   LIG A   1      -6.103  -1.350 126.460  0.00  0.00    +0.011 A 
ATOM     18  O   LIG A   1      -7.111  -1.883 122.981  0.00  0.00    -0.453 OA
ATOM     19  C   LIG A   1      -8.533  -1.868 122.743  0.00  0.00    +0.466 C 
ATOM     20  O   LIG A   1      -9.314  -1.681 123.945  0.00  0.00    -0.453 OA
ENDBRANCH   6  12
BRANCH  10  21
ATOM     21  O   LIG A   1      -5.849  -3.321 133.750  0.00  0.00    -0.492 OA
ATOM     22  C   LIG A   1      -5.689  -4.727 133.634  0.00  0.00    +0.277 C 
ENDBRANCH  10  21
BRANCH   8  23
ATOM     23  C   LIG A   1      -5.430  -3.385 129.235  0.00  0.00    +0.045 C 
BRANCH  23  24
ATOM     24  C   LIG A   1      -4.002  -2.912 129.076  0.00  0.00    -0.033 C 
ATOM     25  C   LIG A   1      -2.937  -3.722 129.140  0.00  0.00    +0.004 C 
ENDBRANCH  23  24
ENDBRANCH   8  23
TORSDOF 4
ENDMDL
MODEL 9
REMARK VINA RESULT:      -6.5      5.149      9.469
REMARK  Name = NuBBE_1830
REMARK  6 active torsions:
REMARK  status: ('A' for Active; 'I' for Inactive)
REMARK    1  A    between atoms: C_6  and  C_8
REMARK    2  A    between atoms: C_17  and  C_27
REMARK    3  A    between atoms: C_19  and  C_24
REMARK    4  A    between atoms: C_21  and  O_22
REMARK    5  A    between atoms: O_22  and  C_23
REMARK    6  A    between atoms: C_24  and  C_25
REMARK                            x       y       z     vdW  Elec       q    Type
REMARK                         _______ _______ _______ _____ _____    ______ ____
ROOT
ATOM      1  O   LIG A   1      -1.525   6.749 131.140  0.00  0.00    -0.284 OA
ATOM      2  C   LIG A   1      -2.354   5.945 130.707  0.00  0.00    +0.223 C 
ATOM      3  C   LIG A   1      -3.165   6.335 129.531  0.00  0.00    +0.096 C 
ATOM      4  C   LIG A   1      -3.943   5.432 128.926  0.00  0.00    +0.113 C 
ATOM      5  O   LIG A   1      -4.920   5.820 128.019  0.00  0.00    -0.487 OA
ATOM      6  C   LIG A   1      -5.995   4.847 128.142  0.00  0.00    +0.207 C 
ATOM      7  C   LIG A   1      -5.588   3.930 129.323  0.00  0.00    +0.049 C 
ATOM      8  C   LIG A   1      -4.050   3.992 129.342  0.00  0.00    +0.059 C 
ATOM      9  C   LIG A   1      -3.476   3.760 130.720  0.00  0.00    +0.038 C 
ATOM     10  C   LIG A   1      -2.652   4.611 131.355  0.00  0.00    +0.164 C 
ATOM     11  C   LIG A   1      -6.231   2.558 129.429  0.00  0.00    +0.013 C 
ENDROOT
BRANCH   6  12
ATOM     12  C   LIG A   1      -6.329   4.251 126.780  0.00  0.00    -0.003 A 
ATOM     13  C   LIG A   1      -7.637   3.807 126.504  0.00  0.00    +0.056 A 
ATOM     14  C   LIG A   1      -7.915   3.294 125.249  0.00  0.00    +0.167 A 
ATOM     15  C   LIG A   1      -6.950   3.197 124.274  0.00  0.00    +0.166 A 
ATOM     16  C   LIG A   1      -5.665   3.627 124.492  0.00  0.00    +0.050 A 
ATOM     17  C   LIG A   1      -5.369   4.182 125.741  0.00  0.00    +0.011 A 
ATOM     18  O   LIG A   1      -7.421   2.661 123.118  0.00  0.00    -0.453 OA
ATOM     19  C   LIG A   1      -8.803   2.445 123.466  0.00  0.00    +0.466 C 
ATOM     20  O   LIG A   1      -9.123   2.838 124.819  0.00  0.00    -0.453 OA
ENDBRANCH   6  12
BRANCH  10  21
ATOM     21  O   LIG A   1      -2.117   4.184 132.562  0.00  0.00    -0.492 OA
ATOM     22  C   LIG A   1      -2.600   2.961 133.100  0.00  0.00    +0.277 C 
ENDBRANCH  10  21
BRANCH   8  23
ATOM     23  C   LIG A   1      -3.338   3.018 128.353  0.00  0.00    +0.045 C 
BRANCH  23  24
ATOM     24  C   LIG A   1      -2.303   3.637 127.441  0.00  0.00    -0.033 C 
ATOM     25  C   LIG A   1      -1.649   2.959 126.488  0.00  0.00    +0.004 C 
ENDBRANCH  23  24
ENDBRANCH   8  23
TORSDOF 4
ENDMDL
