MODEL 1
REMARK VINA RESULT:      -7.6      0.000      0.000
REMARK  Name = NuBBE_2373
REMARK  7 active torsions:
REMARK  status: ('A' for Active; 'I' for Inactive)
REMARK    1  A    between atoms: O_1  and  C_2
REMARK    2  A    between atoms: C_6  and  C_9
REMARK    3  A    between atoms: C_7  and  O_8
REMARK    4  A    between atoms: C_9  and  C_10
REMARK    5  A    between atoms: C_9  and  C_11
REMARK    6  A    between atoms: C_20  and  C_21
REMARK    7  A    between atoms: C_20  and  C_22
REMARK                            x       y       z     vdW  Elec       q    Type
REMARK                         _______ _______ _______ _____ _____    ______ ____
ROOT
ATOM      1  C   LIG A   1      -8.564  -0.358 123.756  0.00  0.00    +0.162 A 
ATOM      2  C   LIG A   1      -7.547  -0.944 124.515  0.00  0.00    +0.005 A 
ATOM      3  C   LIG A   1      -6.478  -0.125 124.927  0.00  0.00    -0.040 A 
ATOM      4  C   LIG A   1      -6.424   1.224 124.522  0.00  0.00    +0.011 A 
ATOM      5  C   LIG A   1      -7.427   1.798 123.724  0.00  0.00    +0.001 A 
ATOM      6  C   LIG A   1      -8.493   0.981 123.352  0.00  0.00    +0.162 A 
ATOM      7  C   LIG A   1      -5.407  -0.668 125.844  0.00  0.00    +0.036 C 
ATOM      8  C   LIG A   1      -5.986  -1.048 127.212  0.00  0.00    +0.013 C 
ATOM      9  C   LIG A   1      -6.631  -2.461 127.312  0.00  0.00    +0.021 C 
ATOM     10  C   LIG A   1      -7.785  -2.700 126.326  0.00  0.00    -0.065 C 
ATOM     11  C   LIG A   1      -8.936  -3.300 126.688  0.00  0.00    -0.027 C 
ATOM     12  C   LIG A   1      -9.207  -3.856 128.050  0.00  0.00    +0.028 C 
ATOM     13  C   LIG A   1      -7.920  -4.054 128.846  0.00  0.00    +0.011 C 
ATOM     14  C   LIG A   1      -7.010  -2.804 128.813  0.00  0.00    -0.028 C 
ATOM     15  C   LIG A   1      -5.736  -3.138 129.622  0.00  0.00    +0.011 C 
ATOM     16  C   LIG A   1      -7.731  -1.638 129.528  0.00  0.00    +0.011 C 
ATOM     17  C   LIG A   1      -7.529  -2.410 124.863  0.00  0.00    +0.070 C 
ENDROOT
BRANCH   5  18
ATOM     18  C   LIG A   1      -7.347   3.249 123.279  0.00  0.00    +0.017 C 
ATOM     19  C   LIG A   1      -6.575   3.375 121.963  0.00  0.00    +0.012 C 
ATOM     20  C   LIG A   1      -6.738   4.153 124.356  0.00  0.00    +0.012 C 
ENDBRANCH   5  18
BRANCH   1  21
ATOM     21  O   LIG A   1      -9.693  -1.038 123.370  0.00  0.00    -0.503 OA
ATOM     22  H   LIG A   1     -10.350  -0.928 124.079  0.00  0.00    +0.292 HD
ENDBRANCH   1  21
BRANCH   6  23
ATOM     23  O   LIG A   1      -9.511   1.476 122.580  0.00  0.00    -0.503 OA
ATOM     24  H   LIG A   1      -9.295   1.176 121.674  0.00  0.00    +0.292 HD
ENDBRANCH   6  23
TORSDOF 3
ENDMDL
MODEL 2
REMARK VINA RESULT:      -7.5      3.227      6.506
REMARK  Name = NuBBE_2373
REMARK  7 active torsions:
REMARK  status: ('A' for Active; 'I' for Inactive)
REMARK    1  A    between atoms: O_1  and  C_2
REMARK    2  A    between atoms: C_6  and  C_9
REMARK    3  A    between atoms: C_7  and  O_8
REMARK    4  A    between atoms: C_9  and  C_10
REMARK    5  A    between atoms: C_9  and  C_11
REMARK    6  A    between atoms: C_20  and  C_21
REMARK    7  A    between atoms: C_20  and  C_22
REMARK                            x       y       z     vdW  Elec       q    Type
REMARK                         _______ _______ _______ _____ _____    ______ ____
ROOT
ATOM      1  C   LIG A   1      -5.668  -1.079 128.876  0.00  0.00    +0.162 A 
ATOM      2  C   LIG A   1      -6.363  -2.036 128.130  0.00  0.00    +0.005 A 
ATOM      3  C   LIG A   1      -7.607  -2.477 128.621  0.00  0.00    -0.040 A 
ATOM      4  C   LIG A   1      -8.087  -2.002 129.859  0.00  0.00    +0.011 A 
ATOM      5  C   LIG A   1      -7.366  -1.072 130.626  0.00  0.00    +0.001 A 
ATOM      6  C   LIG A   1      -6.152  -0.623 130.108  0.00  0.00    +0.162 A 
ATOM      7  C   LIG A   1      -8.460  -3.422 127.808  0.00  0.00    +0.036 C 
ATOM      8  C   LIG A   1      -8.914  -2.773 126.495  0.00  0.00    +0.013 C 
ATOM      9  C   LIG A   1      -7.904  -2.844 125.313  0.00  0.00    +0.021 C 
ATOM     10  C   LIG A   1      -6.540  -2.203 125.608  0.00  0.00    -0.065 C 
ATOM     11  C   LIG A   1      -5.907  -1.405 124.725  0.00  0.00    -0.027 C 
ATOM     12  C   LIG A   1      -6.410  -1.102 123.349  0.00  0.00    +0.028 C 
ATOM     13  C   LIG A   1      -7.471  -2.103 122.902  0.00  0.00    +0.011 C 
ATOM     14  C   LIG A   1      -8.566  -2.317 123.973  0.00  0.00    -0.028 C 
ATOM     15  C   LIG A   1      -9.557  -3.366 123.418  0.00  0.00    +0.011 C 
ATOM     16  C   LIG A   1      -9.343  -0.995 124.169  0.00  0.00    +0.011 C 
ATOM     17  C   LIG A   1      -5.815  -2.639 126.863  0.00  0.00    +0.070 C 
ENDROOT
BRANCH   5  18
ATOM     18  C   LIG A   1      -7.885  -0.583 131.966  0.00  0.00    +0.017 C 
ATOM     19  C   LIG A   1      -8.022  -1.743 132.956  0.00  0.00    +0.012 C 
ATOM     20  C   LIG A   1      -9.210   0.177 131.833  0.00  0.00    +0.012 C 
ENDBRANCH   5  18
BRANCH   1  21
ATOM     21  O   LIG A   1      -4.489  -0.517 128.453  0.00  0.00    -0.503 OA
ATOM     22  H   LIG A   1      -4.688  -0.002 127.652  0.00  0.00    +0.292 HD
ENDBRANCH   1  21
BRANCH   6  23
ATOM     23  O   LIG A   1      -5.399   0.290 130.798  0.00  0.00    -0.503 OA
ATOM     24  H   LIG A   1      -5.701   1.157 130.460  0.00  0.00    +0.292 HD
ENDBRANCH   6  23
TORSDOF 3
ENDMDL
MODEL 3
REMARK VINA RESULT:      -7.4      3.557      5.011
REMARK  Name = NuBBE_2373
REMARK  7 active torsions:
REMARK  status: ('A' for Active; 'I' for Inactive)
REMARK    1  A    between atoms: O_1  and  C_2
REMARK    2  A    between atoms: C_6  and  C_9
REMARK    3  A    between atoms: C_7  and  O_8
REMARK    4  A    between atoms: C_9  and  C_10
REMARK    5  A    between atoms: C_9  and  C_11
REMARK    6  A    between atoms: C_20  and  C_21
REMARK    7  A    between atoms: C_20  and  C_22
REMARK                            x       y       z     vdW  Elec       q    Type
REMARK                         _______ _______ _______ _____ _____    ______ ____
ROOT
ATOM      1  C   LIG A   1      -5.898   1.091 128.510  0.00  0.00    +0.162 A 
ATOM      2  C   LIG A   1      -6.592   1.015 127.299  0.00  0.00    +0.005 A 
ATOM      3  C   LIG A   1      -5.997   1.593 126.162  0.00  0.00    -0.040 A 
ATOM      4  C   LIG A   1      -4.771   2.279 126.276  0.00  0.00    +0.011 A 
ATOM      5  C   LIG A   1      -4.097   2.390 127.504  0.00  0.00    +0.001 A 
ATOM      6  C   LIG A   1      -4.685   1.783 128.612  0.00  0.00    +0.162 A 
ATOM      7  C   LIG A   1      -6.640   1.446 124.802  0.00  0.00    +0.036 C 
ATOM      8  C   LIG A   1      -6.675  -0.022 124.359  0.00  0.00    +0.013 C 
ATOM      9  C   LIG A   1      -7.867  -0.868 124.892  0.00  0.00    +0.021 C 
ATOM     10  C   LIG A   1      -7.966  -0.927 126.423  0.00  0.00    -0.065 C 
ATOM     11  C   LIG A   1      -8.220  -2.070 127.092  0.00  0.00    -0.027 C 
ATOM     12  C   LIG A   1      -8.497  -3.386 126.437  0.00  0.00    +0.028 C 
ATOM     13  C   LIG A   1      -8.876  -3.219 124.969  0.00  0.00    +0.011 C 
ATOM     14  C   LIG A   1      -7.893  -2.299 124.209  0.00  0.00    -0.028 C 
ATOM     15  C   LIG A   1      -8.398  -2.186 122.752  0.00  0.00    +0.011 C 
ATOM     16  C   LIG A   1      -6.500  -2.970 124.173  0.00  0.00    +0.011 C 
ATOM     17  C   LIG A   1      -7.956   0.385 127.178  0.00  0.00    +0.070 C 
ENDROOT
BRANCH   5  18
ATOM     18  C   LIG A   1      -2.785   3.147 127.618  0.00  0.00    +0.017 C 
ATOM     19  C   LIG A   1      -3.034   4.638 127.858  0.00  0.00    +0.012 C 
ATOM     20  C   LIG A   1      -1.886   2.936 126.394  0.00  0.00    +0.012 C 
ENDBRANCH   5  18
BRANCH   1  21
ATOM     21  O   LIG A   1      -6.341   0.491 129.663  0.00  0.00    -0.503 OA
ATOM     22  H   LIG A   1      -7.173   0.930 129.912  0.00  0.00    +0.292 HD
ENDBRANCH   1  21
BRANCH   6  23
ATOM     23  O   LIG A   1      -4.080   1.845 129.840  0.00  0.00    -0.503 OA
ATOM     24  H   LIG A   1      -4.391   2.691 130.220  0.00  0.00    +0.292 HD
ENDBRANCH   6  23
TORSDOF 3
ENDMDL
MODEL 4
REMARK VINA RESULT:      -7.2      2.726      5.556
REMARK  Name = NuBBE_2373
REMARK  7 active torsions:
REMARK  status: ('A' for Active; 'I' for Inactive)
REMARK    1  A    between atoms: O_1  and  C_2
REMARK    2  A    between atoms: C_6  and  C_9
REMARK    3  A    between atoms: C_7  and  O_8
REMARK    4  A    between atoms: C_9  and  C_10
REMARK    5  A    between atoms: C_9  and  C_11
REMARK    6  A    between atoms: C_20  and  C_21
REMARK    7  A    between atoms: C_20  and  C_22
REMARK                            x       y       z     vdW  Elec       q    Type
REMARK                         _______ _______ _______ _____ _____    ______ ____
ROOT
ATOM      1  C   LIG A   1      -7.825   1.687 127.463  0.00  0.00    +0.162 A 
ATOM      2  C   LIG A   1      -6.779   0.818 127.138  0.00  0.00    +0.005 A 
ATOM      3  C   LIG A   1      -6.381  -0.123 128.106  0.00  0.00    -0.040 A 
ATOM      4  C   LIG A   1      -6.987  -0.129 129.378  0.00  0.00    +0.011 A 
ATOM      5  C   LIG A   1      -8.009   0.775 129.716  0.00  0.00    +0.001 A 
ATOM      6  C   LIG A   1      -8.412   1.678 128.734  0.00  0.00    +0.162 A 
ATOM      7  C   LIG A   1      -5.338  -1.166 127.777  0.00  0.00    +0.036 C 
ATOM      8  C   LIG A   1      -5.826  -2.115 126.677  0.00  0.00    +0.013 C 
ATOM      9  C   LIG A   1      -5.634  -1.621 125.214  0.00  0.00    +0.021 C 
ATOM     10  C   LIG A   1      -6.324  -0.285 124.902  0.00  0.00    -0.065 C 
ATOM     11  C   LIG A   1      -7.023  -0.075 123.769  0.00  0.00    -0.027 C 
ATOM     12  C   LIG A   1      -7.160  -1.075 122.665  0.00  0.00    +0.028 C 
ATOM     13  C   LIG A   1      -6.101  -2.169 122.757  0.00  0.00    +0.011 C 
ATOM     14  C   LIG A   1      -5.996  -2.767 124.179  0.00  0.00    -0.028 C 
ATOM     15  C   LIG A   1      -4.877  -3.833 124.150  0.00  0.00    +0.011 C 
ATOM     16  C   LIG A   1      -7.322  -3.485 124.522  0.00  0.00    +0.011 C 
ATOM     17  C   LIG A   1      -6.043   0.882 125.825  0.00  0.00    +0.070 C 
ENDROOT
BRANCH   5  18
ATOM     18  C   LIG A   1      -8.641   0.771 131.097  0.00  0.00    +0.017 C 
ATOM     19  C   LIG A   1      -8.021   1.853 131.985  0.00  0.00    +0.012 C 
ATOM     20  C   LIG A   1      -8.553  -0.603 131.771  0.00  0.00    +0.012 C 
ENDBRANCH   5  18
BRANCH   1  21
ATOM     21  O   LIG A   1      -8.351   2.588 126.569  0.00  0.00    -0.503 OA
ATOM     22  H   LIG A   1      -7.719   2.664 125.834  0.00  0.00    +0.292 HD
ENDBRANCH   1  21
BRANCH   6  23
ATOM     23  O   LIG A   1      -9.408   2.583 128.991  0.00  0.00    -0.503 OA
ATOM     24  H   LIG A   1      -8.948   3.447 129.014  0.00  0.00    +0.292 HD
ENDBRANCH   6  23
TORSDOF 3
ENDMDL
MODEL 5
REMARK VINA RESULT:      -7.2      7.602      9.361
REMARK  Name = NuBBE_2373
REMARK  7 active torsions:
REMARK  status: ('A' for Active; 'I' for Inactive)
REMARK    1  A    between atoms: O_1  and  C_2
REMARK    2  A    between atoms: C_6  and  C_9
REMARK    3  A    between atoms: C_7  and  O_8
REMARK    4  A    between atoms: C_9  and  C_10
REMARK    5  A    between atoms: C_9  and  C_11
REMARK    6  A    between atoms: C_20  and  C_21
REMARK    7  A    between atoms: C_20  and  C_22
REMARK                            x       y       z     vdW  Elec       q    Type
REMARK                         _______ _______ _______ _____ _____    ______ ____
ROOT
ATOM      1  C   LIG A   1      -7.780   6.866 131.139  0.00  0.00    +0.162 A 
ATOM      2  C   LIG A   1      -7.646   6.049 132.266  0.00  0.00    +0.005 A 
ATOM      3  C   LIG A   1      -8.810   5.453 132.788  0.00  0.00    -0.040 A 
ATOM      4  C   LIG A   1     -10.067   5.736 132.218  0.00  0.00    +0.011 A 
ATOM      5  C   LIG A   1     -10.202   6.592 131.112  0.00  0.00    +0.001 A 
ATOM      6  C   LIG A   1      -9.035   7.146 130.588  0.00  0.00    +0.162 A 
ATOM      7  C   LIG A   1      -8.719   4.470 133.932  0.00  0.00    +0.036 C 
ATOM      8  C   LIG A   1      -7.944   3.211 133.525  0.00  0.00    +0.013 C 
ATOM      9  C   LIG A   1      -6.394   3.302 133.626  0.00  0.00    +0.021 C 
ATOM     10  C   LIG A   1      -5.770   4.426 132.786  0.00  0.00    -0.065 C 
ATOM     11  C   LIG A   1      -4.661   4.247 132.040  0.00  0.00    -0.027 C 
ATOM     12  C   LIG A   1      -3.877   2.974 131.987  0.00  0.00    +0.028 C 
ATOM     13  C   LIG A   1      -4.205   2.058 133.163  0.00  0.00    +0.011 C 
ATOM     14  C   LIG A   1      -5.728   1.886 133.368  0.00  0.00    -0.028 C 
ATOM     15  C   LIG A   1      -5.928   0.969 134.596  0.00  0.00    +0.011 C 
ATOM     16  C   LIG A   1      -6.322   1.162 132.138  0.00  0.00    +0.011 C 
ATOM     17  C   LIG A   1      -6.327   5.823 132.959  0.00  0.00    +0.070 C 
ENDROOT
BRANCH   5  18
ATOM     18  C   LIG A   1     -11.565   6.904 130.517  0.00  0.00    +0.017 C 
ATOM     19  C   LIG A   1     -12.577   7.237 131.616  0.00  0.00    +0.012 C 
ATOM     20  C   LIG A   1     -12.083   5.768 129.627  0.00  0.00    +0.012 C 
ENDBRANCH   5  18
BRANCH   1  21
ATOM     21  O   LIG A   1      -6.705   7.430 130.495  0.00  0.00    -0.503 OA
ATOM     22  H   LIG A   1      -6.744   8.388 130.661  0.00  0.00    +0.292 HD
ENDBRANCH   1  21
BRANCH   6  23
ATOM     23  O   LIG A   1      -9.091   7.984 129.505  0.00  0.00    -0.503 OA
ATOM     24  H   LIG A   1      -9.007   7.387 128.734  0.00  0.00    +0.292 HD
ENDBRANCH   6  23
TORSDOF 3
ENDMDL
MODEL 6
REMARK VINA RESULT:      -7.2      2.881      4.715
REMARK  Name = NuBBE_2373
REMARK  7 active torsions:
REMARK  status: ('A' for Active; 'I' for Inactive)
REMARK    1  A    between atoms: O_1  and  C_2
REMARK    2  A    between atoms: C_6  and  C_9
REMARK    3  A    between atoms: C_7  and  O_8
REMARK    4  A    between atoms: C_9  and  C_10
REMARK    5  A    between atoms: C_9  and  C_11
REMARK    6  A    between atoms: C_20  and  C_21
REMARK    7  A    between atoms: C_20  and  C_22
REMARK                            x       y       z     vdW  Elec       q    Type
REMARK                         _______ _______ _______ _____ _____    ______ ____
ROOT
ATOM      1  C   LIG A   1      -7.865   3.366 125.715  0.00  0.00    +0.162 A 
ATOM      2  C   LIG A   1      -6.961   2.374 125.323  0.00  0.00    +0.005 A 
ATOM      3  C   LIG A   1      -5.968   1.989 126.244  0.00  0.00    -0.040 A 
ATOM      4  C   LIG A   1      -5.866   2.641 127.490  0.00  0.00    +0.011 A 
ATOM      5  C   LIG A   1      -6.750   3.667 127.862  0.00  0.00    +0.001 A 
ATOM      6  C   LIG A   1      -7.747   4.013 126.951  0.00  0.00    +0.162 A 
ATOM      7  C   LIG A   1      -5.033   0.844 125.928  0.00  0.00    +0.036 C 
ATOM      8  C   LIG A   1      -5.797  -0.479 125.801  0.00  0.00    +0.013 C 
ATOM      9  C   LIG A   1      -6.439  -0.766 124.413  0.00  0.00    +0.021 C 
ATOM     10  C   LIG A   1      -7.440   0.302 123.946  0.00  0.00    -0.065 C 
ATOM     11  C   LIG A   1      -8.627  -0.010 123.387  0.00  0.00    -0.027 C 
ATOM     12  C   LIG A   1      -9.083  -1.404 123.097  0.00  0.00    +0.028 C 
ATOM     13  C   LIG A   1      -7.921  -2.393 123.104  0.00  0.00    +0.011 C 
ATOM     14  C   LIG A   1      -7.025  -2.238 124.355  0.00  0.00    -0.028 C 
ATOM     15  C   LIG A   1      -5.876  -3.265 124.230  0.00  0.00    +0.011 C 
ATOM     16  C   LIG A   1      -7.848  -2.604 125.612  0.00  0.00    +0.011 C 
ATOM     17  C   LIG A   1      -6.982   1.744 123.955  0.00  0.00    +0.070 C 
ENDROOT
BRANCH   5  18
ATOM     18  C   LIG A   1      -6.619   4.375 129.200  0.00  0.00    +0.017 C 
ATOM     19  C   LIG A   1      -5.179   4.834 129.436  0.00  0.00    +0.012 C 
ATOM     20  C   LIG A   1      -7.111   3.508 130.365  0.00  0.00    +0.012 C 
ENDBRANCH   5  18
BRANCH   1  21
ATOM     21  O   LIG A   1      -8.923   3.762 124.933  0.00  0.00    -0.503 OA
ATOM     22  H   LIG A   1      -9.736   3.496 125.397  0.00  0.00    +0.292 HD
ENDBRANCH   1  21
BRANCH   6  23
ATOM     23  O   LIG A   1      -8.649   5.000 127.251  0.00  0.00    -0.503 OA
ATOM     24  H   LIG A   1      -8.581   5.102 128.221  0.00  0.00    +0.292 HD
ENDBRANCH   6  23
TORSDOF 3
ENDMDL
MODEL 7
REMARK VINA RESULT:      -7.1      2.550      4.648
REMARK  Name = NuBBE_2373
REMARK  7 active torsions:
REMARK  status: ('A' for Active; 'I' for Inactive)
REMARK    1  A    between atoms: O_1  and  C_2
REMARK    2  A    between atoms: C_6  and  C_9
REMARK    3  A    between atoms: C_7  and  O_8
REMARK    4  A    between atoms: C_9  and  C_10
REMARK    5  A    between atoms: C_9  and  C_11
REMARK    6  A    between atoms: C_20  and  C_21
REMARK    7  A    between atoms: C_20  and  C_22
REMARK                            x       y       z     vdW  Elec       q    Type
REMARK                         _______ _______ _______ _____ _____    ______ ____
ROOT
ATOM      1  C   LIG A   1      -7.690  -0.180 127.015  0.00  0.00    +0.162 A 
ATOM      2  C   LIG A   1      -7.859  -1.139 128.018  0.00  0.00    +0.005 A 
ATOM      3  C   LIG A   1      -8.229  -2.440 127.628  0.00  0.00    -0.040 A 
ATOM      4  C   LIG A   1      -8.478  -2.728 126.271  0.00  0.00    +0.011 A 
ATOM      5  C   LIG A   1      -8.348  -1.750 125.271  0.00  0.00    +0.001 A 
ATOM      6  C   LIG A   1      -7.949  -0.476 125.672  0.00  0.00    +0.162 A 
ATOM      7  C   LIG A   1      -8.316  -3.550 128.650  0.00  0.00    +0.036 C 
ATOM      8  C   LIG A   1      -6.946  -3.844 129.271  0.00  0.00    +0.013 C 
ATOM      9  C   LIG A   1      -6.525  -2.933 130.460  0.00  0.00    +0.021 C 
ATOM     10  C   LIG A   1      -6.481  -1.435 130.124  0.00  0.00    -0.065 C 
ATOM     11  C   LIG A   1      -5.473  -0.631 130.520  0.00  0.00    -0.027 C 
ATOM     12  C   LIG A   1      -4.327  -1.072 131.373  0.00  0.00    +0.028 C 
ATOM     13  C   LIG A   1      -4.627  -2.386 132.089  0.00  0.00    +0.011 C 
ATOM     14  C   LIG A   1      -5.189  -3.462 131.132  0.00  0.00    -0.028 C 
ATOM     15  C   LIG A   1      -5.480  -4.725 131.975  0.00  0.00    +0.011 C 
ATOM     16  C   LIG A   1      -4.103  -3.829 130.094  0.00  0.00    +0.011 C 
ATOM     17  C   LIG A   1      -7.708  -0.823 129.484  0.00  0.00    +0.070 C 
ENDROOT
BRANCH   5  18
ATOM     18  C   LIG A   1      -8.636  -2.069 123.814  0.00  0.00    +0.017 C 
ATOM     19  C   LIG A   1      -9.501  -3.326 123.691  0.00  0.00    +0.012 C 
ATOM     20  C   LIG A   1      -7.354  -2.208 122.985  0.00  0.00    +0.012 C 
ENDBRANCH   5  18
BRANCH   1  21
ATOM     21  O   LIG A   1      -7.251   1.097 127.271  0.00  0.00    -0.503 OA
ATOM     22  H   LIG A   1      -7.310   1.592 126.435  0.00  0.00    +0.292 HD
ENDBRANCH   1  21
BRANCH   6  23
ATOM     23  O   LIG A   1      -7.795   0.525 124.749  0.00  0.00    -0.503 OA
ATOM     24  H   LIG A   1      -6.982   0.990 125.033  0.00  0.00    +0.292 HD
ENDBRANCH   6  23
TORSDOF 3
ENDMDL
MODEL 8
REMARK VINA RESULT:      -6.6      7.554      9.340
REMARK  Name = NuBBE_2373
REMARK  7 active torsions:
REMARK  status: ('A' for Active; 'I' for Inactive)
REMARK    1  A    between atoms: O_1  and  C_2
REMARK    2  A    between atoms: C_6  and  C_9
REMARK    3  A    between atoms: C_7  and  O_8
REMARK    4  A    between atoms: C_9  and  C_10
REMARK    5  A    between atoms: C_9  and  C_11
REMARK    6  A    between atoms: C_20  and  C_21
REMARK    7  A    between atoms: C_20  and  C_22
REMARK                            x       y       z     vdW  Elec       q    Type
REMARK                         _______ _______ _______ _____ _____    ______ ____
ROOT
ATOM      1  C   LIG A   1      -4.944   5.655 132.615  0.00  0.00    +0.162 A 
ATOM      2  C   LIG A   1      -6.319   5.783 132.398  0.00  0.00    +0.005 A 
ATOM      3  C   LIG A   1      -6.746   6.630 131.358  0.00  0.00    -0.040 A 
ATOM      4  C   LIG A   1      -5.803   7.367 130.614  0.00  0.00    +0.011 A 
ATOM      5  C   LIG A   1      -4.424   7.269 130.863  0.00  0.00    +0.001 A 
ATOM      6  C   LIG A   1      -4.018   6.401 131.874  0.00  0.00    +0.162 A 
ATOM      7  C   LIG A   1      -8.211   6.722 130.998  0.00  0.00    +0.036 C 
ATOM      8  C   LIG A   1      -8.741   5.382 130.475  0.00  0.00    +0.013 C 
ATOM      9  C   LIG A   1      -9.186   4.355 131.557  0.00  0.00    +0.021 C 
ATOM     10  C   LIG A   1      -8.083   3.969 132.554  0.00  0.00    -0.065 C 
ATOM     11  C   LIG A   1      -7.865   2.696 132.939  0.00  0.00    -0.027 C 
ATOM     12  C   LIG A   1      -8.693   1.529 132.503  0.00  0.00    +0.028 C 
ATOM     13  C   LIG A   1     -10.037   1.970 131.933  0.00  0.00    +0.011 C 
ATOM     14  C   LIG A   1      -9.890   3.101 130.889  0.00  0.00    -0.028 C 
ATOM     15  C   LIG A   1     -11.312   3.479 130.413  0.00  0.00    +0.011 C 
ATOM     16  C   LIG A   1      -9.113   2.560 129.667  0.00  0.00    +0.011 C 
ATOM     17  C   LIG A   1      -7.348   5.091 133.255  0.00  0.00    +0.070 C 
ENDROOT
BRANCH   5  18
ATOM     18  C   LIG A   1      -3.419   8.083 130.065  0.00  0.00    +0.017 C 
ATOM     19  C   LIG A   1      -3.955   9.488 129.784  0.00  0.00    +0.012 C 
ATOM     20  C   LIG A   1      -3.011   7.385 128.763  0.00  0.00    +0.012 C 
ENDBRANCH   5  18
BRANCH   1  21
ATOM     21  O   LIG A   1      -4.411   4.795 133.544  0.00  0.00    -0.503 OA
ATOM     22  H   LIG A   1      -3.663   4.342 133.118  0.00  0.00    +0.292 HD
ENDBRANCH   1  21
BRANCH   6  23
ATOM     23  O   LIG A   1      -2.688   6.249 132.167  0.00  0.00    -0.503 OA
ATOM     24  H   LIG A   1      -2.421   5.450 131.669  0.00  0.00    +0.292 HD
ENDBRANCH   6  23
TORSDOF 3
ENDMDL
MODEL 9
REMARK VINA RESULT:      -6.5      7.022      9.669
REMARK  Name = NuBBE_2373
REMARK  7 active torsions:
REMARK  status: ('A' for Active; 'I' for Inactive)
REMARK    1  A    between atoms: O_1  and  C_2
REMARK    2  A    between atoms: C_6  and  C_9
REMARK    3  A    between atoms: C_7  and  O_8
REMARK    4  A    between atoms: C_9  and  C_10
REMARK    5  A    between atoms: C_9  and  C_11
REMARK    6  A    between atoms: C_20  and  C_21
REMARK    7  A    between atoms: C_20  and  C_22
REMARK                            x       y       z     vdW  Elec       q    Type
REMARK                         _______ _______ _______ _____ _____    ______ ____
ROOT
ATOM      1  C   LIG A   1      -7.971   4.553 130.063  0.00  0.00    +0.162 A 
ATOM      2  C   LIG A   1      -7.310   4.956 131.227  0.00  0.00    +0.005 A 
ATOM      3  C   LIG A   1      -6.970   3.965 132.167  0.00  0.00    -0.040 A 
ATOM      4  C   LIG A   1      -7.352   2.625 131.952  0.00  0.00    +0.011 A 
ATOM      5  C   LIG A   1      -8.054   2.231 130.800  0.00  0.00    +0.001 A 
ATOM      6  C   LIG A   1      -8.353   3.221 129.866  0.00  0.00    +0.162 A 
ATOM      7  C   LIG A   1      -6.155   4.316 133.390  0.00  0.00    +0.036 C 
ATOM      8  C   LIG A   1      -4.752   4.799 133.003  0.00  0.00    +0.013 C 
ATOM      9  C   LIG A   1      -4.627   6.303 132.624  0.00  0.00    +0.021 C 
ATOM     10  C   LIG A   1      -5.519   6.735 131.451  0.00  0.00    -0.065 C 
ATOM     11  C   LIG A   1      -5.076   7.530 130.456  0.00  0.00    -0.027 C 
ATOM     12  C   LIG A   1      -3.708   8.132 130.403  0.00  0.00    +0.028 C 
ATOM     13  C   LIG A   1      -3.024   8.104 131.766  0.00  0.00    +0.011 C 
ATOM     14  C   LIG A   1      -3.107   6.714 132.439  0.00  0.00    -0.028 C 
ATOM     15  C   LIG A   1      -2.411   6.824 133.815  0.00  0.00    +0.011 C 
ATOM     16  C   LIG A   1      -2.312   5.696 131.589  0.00  0.00    +0.011 C 
ATOM     17  C   LIG A   1      -6.993   6.398 131.528  0.00  0.00    +0.070 C 
ENDROOT
BRANCH   5  18
ATOM     18  C   LIG A   1      -8.476   0.787 130.588  0.00  0.00    +0.017 C 
ATOM     19  C   LIG A   1      -9.213   0.248 131.817  0.00  0.00    +0.012 C 
ATOM     20  C   LIG A   1      -7.291  -0.115 130.225  0.00  0.00    +0.012 C 
ENDBRANCH   5  18
BRANCH   1  21
ATOM     21  O   LIG A   1      -8.276   5.419 129.041  0.00  0.00    -0.503 OA
ATOM     22  H   LIG A   1      -8.748   4.906 128.362  0.00  0.00    +0.292 HD
ENDBRANCH   1  21
BRANCH   6  23
ATOM     23  O   LIG A   1      -9.029   2.908 128.716  0.00  0.00    -0.503 OA
ATOM     24  H   LIG A   1      -8.522   2.164 128.332  0.00  0.00    +0.292 HD
ENDBRANCH   6  23
TORSDOF 3
ENDMDL
