MODEL 1
REMARK VINA RESULT:      -7.8      0.000      0.000
REMARK  Name = NuBBE_571
REMARK  6 active torsions:
REMARK  status: ('A' for Active; 'I' for Inactive)
REMARK    1  A    between atoms: C_3  and  O_9
REMARK    2  A    between atoms: C_5  and  C_6
REMARK    3  A    between atoms: C_14  and  C_15
REMARK    4  A    between atoms: C_23  and  C_24
REMARK    5  A    between atoms: C_23  and  C_25
REMARK    6  A    between atoms: C_27  and  C_29
REMARK                            x       y       z     vdW  Elec       q    Type
REMARK                         _______ _______ _______ _____ _____    ______ ____
ROOT
ATOM      1  O   LIG A   1      -8.337   2.507 131.623  0.00  0.00    -0.294 OA
ATOM      2  C   LIG A   1      -8.434   3.485 132.373  0.00  0.00    +0.172 C 
ATOM      3  C   LIG A   1      -9.235   4.723 131.942  0.00  0.00    +0.155 C 
ATOM      4  C   LIG A   1     -10.269   4.697 130.845  0.00  0.00    +0.022 C 
ATOM      5  C   LIG A   1     -10.779   5.954 130.716  0.00  0.00    -0.008 C 
ATOM      6  C   LIG A   1     -11.568   6.666 131.818  0.00  0.00    +0.047 C 
ATOM      7  C   LIG A   1      -9.463   6.647 130.677  0.00  0.00    +0.168 C 
ATOM      8  O   LIG A   1      -9.283   7.588 129.876  0.00  0.00    -0.292 OA
ATOM      9  C   LIG A   1      -8.434   6.033 131.633  0.00  0.00    +0.134 C 
ATOM     10  C   LIG A   1      -7.119   5.944 130.863  0.00  0.00    +0.165 C 
ATOM     11  C   LIG A   1      -5.610   6.422 131.025  0.00  0.00    +0.094 C 
ATOM     12  C   LIG A   1      -4.707   6.241 129.824  0.00  0.00    +0.044 C 
ATOM     13  O   LIG A   1      -6.647   7.319 130.722  0.00  0.00    -0.364 OA
ATOM     14  C   LIG A   1      -4.885   6.767 132.310  0.00  0.00    +0.038 C 
ATOM     15  C   LIG A   1      -4.121   5.565 132.891  0.00  0.00    +0.007 C 
ATOM     16  C   LIG A   1      -5.119   4.575 133.408  0.00  0.00    -0.001 C 
ATOM     17  C   LIG A   1      -5.414   3.196 134.074  0.00  0.00    -0.001 C 
ATOM     18  C   LIG A   1      -4.621   3.201 132.860  0.00  0.00    -0.029 C 
ATOM     19  C   LIG A   1      -3.222   2.679 133.081  0.00  0.00    +0.011 C 
ATOM     20  C   LIG A   1      -5.190   2.841 131.512  0.00  0.00    +0.011 C 
ATOM     21  C   LIG A   1      -6.762   2.527 134.097  0.00  0.00    +0.015 C 
ATOM     22  C   LIG A   1      -7.989   3.414 133.870  0.00  0.00    +0.056 C 
ATOM     23  C   LIG A   1      -7.887   4.752 134.621  0.00  0.00    +0.015 C 
ENDROOT
BRANCH   3  24
ATOM     24  O   LIG A   1     -10.124   4.789 133.092  0.00  0.00    -0.376 OA
ATOM     25  H   LIG A   1     -11.025   4.939 132.733  0.00  0.00    +0.211 HD
ENDBRANCH   3  24
TORSDOF 1
ENDMDL
MODEL 2
REMARK VINA RESULT:      -7.7      7.496      9.038
REMARK  Name = NuBBE_571
REMARK  6 active torsions:
REMARK  status: ('A' for Active; 'I' for Inactive)
REMARK    1  A    between atoms: C_3  and  O_9
REMARK    2  A    between atoms: C_5  and  C_6
REMARK    3  A    between atoms: C_14  and  C_15
REMARK    4  A    between atoms: C_23  and  C_24
REMARK    5  A    between atoms: C_23  and  C_25
REMARK    6  A    between atoms: C_27  and  C_29
REMARK                            x       y       z     vdW  Elec       q    Type
REMARK                         _______ _______ _______ _____ _____    ______ ____
ROOT
ATOM      1  O   LIG A   1      -9.235   1.416 126.763  0.00  0.00    -0.294 OA
ATOM      2  C   LIG A   1      -8.006   1.379 126.643  0.00  0.00    +0.172 C 
ATOM      3  C   LIG A   1      -7.301   2.212 125.561  0.00  0.00    +0.155 C 
ATOM      4  C   LIG A   1      -7.940   3.401 124.889  0.00  0.00    +0.022 C 
ATOM      5  C   LIG A   1      -7.053   3.901 123.983  0.00  0.00    -0.008 C 
ATOM      6  C   LIG A   1      -5.697   4.500 124.366  0.00  0.00    +0.047 C 
ATOM      7  C   LIG A   1      -6.730   2.593 123.352  0.00  0.00    +0.168 C 
ATOM      8  O   LIG A   1      -6.608   2.518 122.112  0.00  0.00    -0.292 OA
ATOM      9  C   LIG A   1      -6.652   1.442 124.362  0.00  0.00    +0.134 C 
ATOM     10  C   LIG A   1      -7.392   0.262 123.740  0.00  0.00    +0.165 C 
ATOM     11  C   LIG A   1      -7.112  -1.263 123.382  0.00  0.00    +0.094 C 
ATOM     12  C   LIG A   1      -8.162  -1.970 122.552  0.00  0.00    +0.044 C 
ATOM     13  O   LIG A   1      -6.542  -0.210 122.649  0.00  0.00    -0.364 OA
ATOM     14  C   LIG A   1      -6.078  -2.182 124.001  0.00  0.00    +0.038 C 
ATOM     15  C   LIG A   1      -6.651  -3.002 125.170  0.00  0.00    +0.007 C 
ATOM     16  C   LIG A   1      -6.904  -2.075 126.319  0.00  0.00    -0.001 C 
ATOM     17  C   LIG A   1      -7.423  -1.858 127.774  0.00  0.00    -0.001 C 
ATOM     18  C   LIG A   1      -8.333  -2.457 126.818  0.00  0.00    -0.029 C 
ATOM     19  C   LIG A   1      -8.728  -3.863 127.198  0.00  0.00    +0.011 C 
ATOM     20  C   LIG A   1      -9.439  -1.684 126.147  0.00  0.00    +0.011 C 
ATOM     21  C   LIG A   1      -7.735  -0.516 128.381  0.00  0.00    +0.015 C 
ATOM     22  C   LIG A   1      -7.099   0.713 127.728  0.00  0.00    +0.056 C 
ATOM     23  C   LIG A   1      -5.629   0.474 127.342  0.00  0.00    +0.015 C 
ENDROOT
BRANCH   3  24
ATOM     24  O   LIG A   1      -6.372   2.915 126.432  0.00  0.00    -0.376 OA
ATOM     25  H   LIG A   1      -5.580   3.111 125.887  0.00  0.00    +0.211 HD
ENDBRANCH   3  24
TORSDOF 1
ENDMDL
MODEL 3
REMARK VINA RESULT:      -7.6      7.294      8.816
REMARK  Name = NuBBE_571
REMARK  6 active torsions:
REMARK  status: ('A' for Active; 'I' for Inactive)
REMARK    1  A    between atoms: C_3  and  O_9
REMARK    2  A    between atoms: C_5  and  C_6
REMARK    3  A    between atoms: C_14  and  C_15
REMARK    4  A    between atoms: C_23  and  C_24
REMARK    5  A    between atoms: C_23  and  C_25
REMARK    6  A    between atoms: C_27  and  C_29
REMARK                            x       y       z     vdW  Elec       q    Type
REMARK                         _______ _______ _______ _____ _____    ______ ____
ROOT
ATOM      1  O   LIG A   1      -5.075  -1.548 125.043  0.00  0.00    -0.294 OA
ATOM      2  C   LIG A   1      -6.139  -1.850 125.593  0.00  0.00    +0.172 C 
ATOM      3  C   LIG A   1      -7.425  -2.016 124.769  0.00  0.00    +0.155 C 
ATOM      4  C   LIG A   1      -7.426  -2.250 123.279  0.00  0.00    +0.022 C 
ATOM      5  C   LIG A   1      -8.722  -2.343 122.868  0.00  0.00    -0.008 C 
ATOM      6  C   LIG A   1      -9.676  -3.453 123.318  0.00  0.00    +0.047 C 
ATOM      7  C   LIG A   1      -9.193  -1.122 123.574  0.00  0.00    +0.168 C 
ATOM      8  O   LIG A   1      -9.990  -0.347 123.005  0.00  0.00    -0.292 OA
ATOM      9  C   LIG A   1      -8.548  -0.939 124.953  0.00  0.00    +0.134 C 
ATOM     10  C   LIG A   1      -8.163   0.533 125.066  0.00  0.00    +0.165 C 
ATOM     11  C   LIG A   1      -8.419   1.758 126.049  0.00  0.00    +0.094 C 
ATOM     12  C   LIG A   1      -7.956   3.118 125.575  0.00  0.00    +0.044 C 
ATOM     13  O   LIG A   1      -9.422   1.263 125.200  0.00  0.00    -0.364 OA
ATOM     14  C   LIG A   1      -8.801   1.699 127.515  0.00  0.00    +0.038 C 
ATOM     15  C   LIG A   1      -7.574   1.760 128.441  0.00  0.00    +0.007 C 
ATOM     16  C   LIG A   1      -6.821   0.471 128.313  0.00  0.00    -0.001 C 
ATOM     17  C   LIG A   1      -5.595  -0.407 128.711  0.00  0.00    -0.001 C 
ATOM     18  C   LIG A   1      -5.330   0.909 128.161  0.00  0.00    -0.029 C 
ATOM     19  C   LIG A   1      -4.629   1.815 129.143  0.00  0.00    +0.011 C 
ATOM     20  C   LIG A   1      -4.902   1.125 126.732  0.00  0.00    +0.011 C 
ATOM     21  C   LIG A   1      -5.151  -1.642 127.973  0.00  0.00    +0.015 C 
ATOM     22  C   LIG A   1      -6.182  -2.333 127.079  0.00  0.00    +0.056 C 
ATOM     23  C   LIG A   1      -7.570  -2.405 127.738  0.00  0.00    +0.015 C 
ENDROOT
BRANCH   3  24
ATOM     24  O   LIG A   1      -7.766  -3.359 125.210  0.00  0.00    -0.376 OA
ATOM     25  H   LIG A   1      -8.722  -3.476 125.020  0.00  0.00    +0.211 HD
ENDBRANCH   3  24
TORSDOF 1
ENDMDL
MODEL 4
REMARK VINA RESULT:      -7.3      1.944      6.015
REMARK  Name = NuBBE_571
REMARK  6 active torsions:
REMARK  status: ('A' for Active; 'I' for Inactive)
REMARK    1  A    between atoms: C_3  and  O_9
REMARK    2  A    between atoms: C_5  and  C_6
REMARK    3  A    between atoms: C_14  and  C_15
REMARK    4  A    between atoms: C_23  and  C_24
REMARK    5  A    between atoms: C_23  and  C_25
REMARK    6  A    between atoms: C_27  and  C_29
REMARK                            x       y       z     vdW  Elec       q    Type
REMARK                         _______ _______ _______ _____ _____    ______ ____
ROOT
ATOM      1  O   LIG A   1      -5.502   4.340 129.642  0.00  0.00    -0.294 OA
ATOM      2  C   LIG A   1      -5.361   4.475 130.862  0.00  0.00    +0.172 C 
ATOM      3  C   LIG A   1      -4.852   3.309 131.723  0.00  0.00    +0.155 C 
ATOM      4  C   LIG A   1      -4.110   2.125 131.155  0.00  0.00    +0.022 C 
ATOM      5  C   LIG A   1      -3.814   1.280 132.182  0.00  0.00    -0.008 C 
ATOM      6  C   LIG A   1      -2.889   1.650 133.344  0.00  0.00    +0.047 C 
ATOM      7  C   LIG A   1      -5.182   1.271 132.768  0.00  0.00    +0.168 C 
ATOM      8  O   LIG A   1      -5.666   0.200 133.190  0.00  0.00    -0.292 OA
ATOM      9  C   LIG A   1      -5.868   2.640 132.711  0.00  0.00    +0.134 C 
ATOM     10  C   LIG A   1      -7.303   2.392 132.255  0.00  0.00    +0.165 C 
ATOM     11  C   LIG A   1      -8.781   2.705 132.755  0.00  0.00    +0.094 C 
ATOM     12  C   LIG A   1      -9.910   2.029 132.005  0.00  0.00    +0.044 C 
ATOM     13  O   LIG A   1      -7.971   1.745 133.382  0.00  0.00    -0.364 OA
ATOM     14  C   LIG A   1      -9.223   3.810 133.693  0.00  0.00    +0.038 C 
ATOM     15  C   LIG A   1      -9.666   5.076 132.937  0.00  0.00    +0.007 C 
ATOM     16  C   LIG A   1      -8.453   5.712 132.331  0.00  0.00    -0.001 C 
ATOM     17  C   LIG A   1      -7.832   6.848 131.461  0.00  0.00    -0.001 C 
ATOM     18  C   LIG A   1      -8.882   6.043 130.866  0.00  0.00    -0.029 C 
ATOM     19  C   LIG A   1     -10.109   6.853 130.526  0.00  0.00    +0.011 C 
ATOM     20  C   LIG A   1      -8.603   4.934 129.885  0.00  0.00    +0.011 C 
ATOM     21  C   LIG A   1      -6.440   6.825 130.888  0.00  0.00    +0.015 C 
ATOM     22  C   LIG A   1      -5.429   5.881 131.543  0.00  0.00    +0.056 C 
ATOM     23  C   LIG A   1      -5.525   5.898 133.077  0.00  0.00    +0.015 C 
ENDROOT
BRANCH   3  24
ATOM     24  O   LIG A   1      -3.734   4.000 132.347  0.00  0.00    -0.376 OA
ATOM     25  H   LIG A   1      -3.996   4.943 132.410  0.00  0.00    +0.211 HD
ENDBRANCH   3  24
TORSDOF 1
ENDMDL
MODEL 5
REMARK VINA RESULT:      -7.1      5.511      8.612
REMARK  Name = NuBBE_571
REMARK  6 active torsions:
REMARK  status: ('A' for Active; 'I' for Inactive)
REMARK    1  A    between atoms: C_3  and  O_9
REMARK    2  A    between atoms: C_5  and  C_6
REMARK    3  A    between atoms: C_14  and  C_15
REMARK    4  A    between atoms: C_23  and  C_24
REMARK    5  A    between atoms: C_23  and  C_25
REMARK    6  A    between atoms: C_27  and  C_29
REMARK                            x       y       z     vdW  Elec       q    Type
REMARK                         _______ _______ _______ _____ _____    ______ ____
ROOT
ATOM      1  O   LIG A   1      -5.773   0.926 130.756  0.00  0.00    -0.294 OA
ATOM      2  C   LIG A   1      -5.959   0.110 131.664  0.00  0.00    +0.172 C 
ATOM      3  C   LIG A   1      -4.852  -0.184 132.689  0.00  0.00    +0.155 C 
ATOM      4  C   LIG A   1      -3.688   0.744 132.936  0.00  0.00    +0.022 C 
ATOM      5  C   LIG A   1      -2.897   0.182 133.892  0.00  0.00    -0.008 C 
ATOM      6  C   LIG A   1      -3.355  -0.070 135.331  0.00  0.00    +0.047 C 
ATOM      7  C   LIG A   1      -2.839  -1.167 133.267  0.00  0.00    +0.168 C 
ATOM      8  O   LIG A   1      -1.761  -1.796 133.254  0.00  0.00    -0.292 OA
ATOM      9  C   LIG A   1      -4.168  -1.592 132.633  0.00  0.00    +0.134 C 
ATOM     10  C   LIG A   1      -3.831  -2.208 131.278  0.00  0.00    +0.165 C 
ATOM     11  C   LIG A   1      -4.085  -3.568 130.493  0.00  0.00    +0.094 C 
ATOM     12  C   LIG A   1      -3.326  -3.758 129.197  0.00  0.00    +0.044 C 
ATOM     13  O   LIG A   1      -3.191  -3.488 131.573  0.00  0.00    -0.364 OA
ATOM     14  C   LIG A   1      -5.200  -4.570 130.720  0.00  0.00    +0.038 C 
ATOM     15  C   LIG A   1      -6.412  -4.311 129.809  0.00  0.00    +0.007 C 
ATOM     16  C   LIG A   1      -7.088  -3.056 130.267  0.00  0.00    -0.001 C 
ATOM     17  C   LIG A   1      -8.222  -2.002 130.078  0.00  0.00    -0.001 C 
ATOM     18  C   LIG A   1      -7.343  -2.253 128.952  0.00  0.00    -0.029 C 
ATOM     19  C   LIG A   1      -8.077  -2.824 127.763  0.00  0.00    +0.011 C 
ATOM     20  C   LIG A   1      -6.215  -1.328 128.575  0.00  0.00    +0.011 C 
ATOM     21  C   LIG A   1      -8.249  -0.646 130.733  0.00  0.00    +0.015 C 
ATOM     22  C   LIG A   1      -7.383  -0.453 131.980  0.00  0.00    +0.056 C 
ATOM     23  C   LIG A   1      -7.450  -1.660 132.929  0.00  0.00    +0.015 C 
ENDROOT
BRANCH   3  24
ATOM     24  O   LIG A   1      -5.621   0.092 133.892  0.00  0.00    -0.376 OA
ATOM     25  H   LIG A   1      -6.411  -0.489 133.852  0.00  0.00    +0.211 HD
ENDBRANCH   3  24
TORSDOF 1
ENDMDL
MODEL 6
REMARK VINA RESULT:      -7.1      6.794      8.501
REMARK  Name = NuBBE_571
REMARK  6 active torsions:
REMARK  status: ('A' for Active; 'I' for Inactive)
REMARK    1  A    between atoms: C_3  and  O_9
REMARK    2  A    between atoms: C_5  and  C_6
REMARK    3  A    between atoms: C_14  and  C_15
REMARK    4  A    between atoms: C_23  and  C_24
REMARK    5  A    between atoms: C_23  and  C_25
REMARK    6  A    between atoms: C_27  and  C_29
REMARK                            x       y       z     vdW  Elec       q    Type
REMARK                         _______ _______ _______ _____ _____    ______ ____
ROOT
ATOM      1  O   LIG A   1      -8.842   2.003 127.547  0.00  0.00    -0.294 OA
ATOM      2  C   LIG A   1      -7.988   1.886 126.662  0.00  0.00    +0.172 C 
ATOM      3  C   LIG A   1      -8.405   1.663 125.200  0.00  0.00    +0.155 C 
ATOM      4  C   LIG A   1      -9.781   1.986 124.675  0.00  0.00    +0.022 C 
ATOM      5  C   LIG A   1      -9.815   1.663 123.352  0.00  0.00    -0.008 C 
ATOM      6  C   LIG A   1      -8.950   2.347 122.289  0.00  0.00    +0.047 C 
ATOM      7  C   LIG A   1      -9.224   0.307 123.513  0.00  0.00    +0.168 C 
ATOM      8  O   LIG A   1      -9.683  -0.650 122.856  0.00  0.00    -0.292 OA
ATOM      9  C   LIG A   1      -8.114   0.258 124.569  0.00  0.00    +0.134 C 
ATOM     10  C   LIG A   1      -8.353  -1.000 125.399  0.00  0.00    +0.165 C 
ATOM     11  C   LIG A   1      -7.555  -2.304 125.840  0.00  0.00    +0.094 C 
ATOM     12  C   LIG A   1      -8.355  -3.390 126.528  0.00  0.00    +0.044 C 
ATOM     13  O   LIG A   1      -8.015  -2.121 124.526  0.00  0.00    -0.364 OA
ATOM     14  C   LIG A   1      -6.053  -2.482 125.923  0.00  0.00    +0.038 C 
ATOM     15  C   LIG A   1      -5.506  -2.187 127.330  0.00  0.00    +0.007 C 
ATOM     16  C   LIG A   1      -5.611  -0.714 127.579  0.00  0.00    -0.001 C 
ATOM     17  C   LIG A   1      -5.410   0.498 128.539  0.00  0.00    -0.001 C 
ATOM     18  C   LIG A   1      -6.222  -0.607 129.012  0.00  0.00    -0.029 C 
ATOM     19  C   LIG A   1      -5.624  -1.287 130.219  0.00  0.00    +0.011 C 
ATOM     20  C   LIG A   1      -7.728  -0.564 129.030  0.00  0.00    +0.011 C 
ATOM     21  C   LIG A   1      -6.022   1.860 128.340  0.00  0.00    +0.015 C 
ATOM     22  C   LIG A   1      -6.484   2.220 126.927  0.00  0.00    +0.056 C 
ATOM     23  C   LIG A   1      -5.480   1.770 125.852  0.00  0.00    +0.015 C 
ENDROOT
BRANCH   3  24
ATOM     24  O   LIG A   1      -7.672   2.776 124.616  0.00  0.00    -0.376 OA
ATOM     25  H   LIG A   1      -7.030   2.382 123.987  0.00  0.00    +0.211 HD
ENDBRANCH   3  24
TORSDOF 1
ENDMDL
MODEL 7
REMARK VINA RESULT:      -7.1      3.106      5.488
REMARK  Name = NuBBE_571
REMARK  6 active torsions:
REMARK  status: ('A' for Active; 'I' for Inactive)
REMARK    1  A    between atoms: C_3  and  O_9
REMARK    2  A    between atoms: C_5  and  C_6
REMARK    3  A    between atoms: C_14  and  C_15
REMARK    4  A    between atoms: C_23  and  C_24
REMARK    5  A    between atoms: C_23  and  C_25
REMARK    6  A    between atoms: C_27  and  C_29
REMARK                            x       y       z     vdW  Elec       q    Type
REMARK                         _______ _______ _______ _____ _____    ______ ____
ROOT
ATOM      1  O   LIG A   1      -4.448   6.448 127.241  0.00  0.00    -0.294 OA
ATOM      2  C   LIG A   1      -4.333   5.332 127.758  0.00  0.00    +0.172 C 
ATOM      3  C   LIG A   1      -5.411   4.257 127.546  0.00  0.00    +0.155 C 
ATOM      4  C   LIG A   1      -6.408   4.302 126.415  0.00  0.00    +0.022 C 
ATOM      5  C   LIG A   1      -7.218   3.211 126.525  0.00  0.00    -0.008 C 
ATOM      6  C   LIG A   1      -6.720   1.769 126.393  0.00  0.00    +0.047 C 
ATOM      7  C   LIG A   1      -7.511   3.385 127.973  0.00  0.00    +0.168 C 
ATOM      8  O   LIG A   1      -8.669   3.192 128.397  0.00  0.00    -0.292 OA
ATOM      9  C   LIG A   1      -6.297   3.866 128.777  0.00  0.00    +0.134 C 
ATOM     10  C   LIG A   1      -6.799   4.959 129.716  0.00  0.00    +0.165 C 
ATOM     11  C   LIG A   1      -6.794   5.284 131.274  0.00  0.00    +0.094 C 
ATOM     12  C   LIG A   1      -7.646   6.450 131.728  0.00  0.00    +0.044 C 
ATOM     13  O   LIG A   1      -7.603   4.275 130.726  0.00  0.00    -0.364 OA
ATOM     14  C   LIG A   1      -5.829   4.766 132.321  0.00  0.00    +0.038 C 
ATOM     15  C   LIG A   1      -4.645   5.723 132.549  0.00  0.00    +0.007 C 
ATOM     16  C   LIG A   1      -3.766   5.684 131.337  0.00  0.00    -0.001 C 
ATOM     17  C   LIG A   1      -2.501   6.201 130.585  0.00  0.00    -0.001 C 
ATOM     18  C   LIG A   1      -3.471   7.185 131.026  0.00  0.00    -0.029 C 
ATOM     19  C   LIG A   1      -2.899   8.144 132.042  0.00  0.00    +0.011 C 
ATOM     20  C   LIG A   1      -4.469   7.822 130.094  0.00  0.00    +0.011 C 
ATOM     21  C   LIG A   1      -2.237   6.001 129.116  0.00  0.00    +0.015 C 
ATOM     22  C   LIG A   1      -2.992   4.869 128.416  0.00  0.00    +0.056 C 
ATOM     23  C   LIG A   1      -3.050   3.591 129.270  0.00  0.00    +0.015 C 
ENDROOT
BRANCH   3  24
ATOM     24  O   LIG A   1      -4.541   3.206 127.040  0.00  0.00    -0.376 OA
ATOM     25  H   LIG A   1      -4.554   3.286 126.062  0.00  0.00    +0.211 HD
ENDBRANCH   3  24
TORSDOF 1
ENDMDL
MODEL 8
REMARK VINA RESULT:      -7.1      6.113      8.288
REMARK  Name = NuBBE_571
REMARK  6 active torsions:
REMARK  status: ('A' for Active; 'I' for Inactive)
REMARK    1  A    between atoms: C_3  and  O_9
REMARK    2  A    between atoms: C_5  and  C_6
REMARK    3  A    between atoms: C_14  and  C_15
REMARK    4  A    between atoms: C_23  and  C_24
REMARK    5  A    between atoms: C_23  and  C_25
REMARK    6  A    between atoms: C_27  and  C_29
REMARK                            x       y       z     vdW  Elec       q    Type
REMARK                         _______ _______ _______ _____ _____    ______ ____
ROOT
ATOM      1  O   LIG A   1      -5.791   1.470 126.598  0.00  0.00    -0.294 OA
ATOM      2  C   LIG A   1      -7.003   1.324 126.789  0.00  0.00    +0.172 C 
ATOM      3  C   LIG A   1      -7.623   1.653 128.156  0.00  0.00    +0.155 C 
ATOM      4  C   LIG A   1      -6.950   2.537 129.177  0.00  0.00    +0.022 C 
ATOM      5  C   LIG A   1      -7.761   2.612 130.269  0.00  0.00    -0.008 C 
ATOM      6  C   LIG A   1      -9.159   3.237 130.247  0.00  0.00    +0.047 C 
ATOM      7  C   LIG A   1      -7.997   1.147 130.383  0.00  0.00    +0.168 C 
ATOM      8  O   LIG A   1      -8.003   0.607 131.508  0.00  0.00    -0.292 OA
ATOM      9  C   LIG A   1      -8.144   0.456 129.022  0.00  0.00    +0.134 C 
ATOM     10  C   LIG A   1      -7.325  -0.830 129.093  0.00  0.00    +0.165 C 
ATOM     11  C   LIG A   1      -7.538  -2.390 128.870  0.00  0.00    +0.094 C 
ATOM     12  C   LIG A   1      -6.402  -3.299 129.288  0.00  0.00    +0.044 C 
ATOM     13  O   LIG A   1      -8.061  -1.720 129.987  0.00  0.00    -0.364 OA
ATOM     14  C   LIG A   1      -8.606  -3.064 128.031  0.00  0.00    +0.038 C 
ATOM     15  C   LIG A   1      -8.125  -3.355 126.598  0.00  0.00    +0.007 C 
ATOM     16  C   LIG A   1      -7.999  -2.054 125.869  0.00  0.00    -0.001 C 
ATOM     17  C   LIG A   1      -7.620  -1.280 124.568  0.00  0.00    -0.001 C 
ATOM     18  C   LIG A   1      -6.613  -2.144 125.154  0.00  0.00    -0.029 C 
ATOM     19  C   LIG A   1      -6.226  -3.282 124.241  0.00  0.00    +0.011 C 
ATOM     20  C   LIG A   1      -5.467  -1.619 125.980  0.00  0.00    +0.011 C 
ATOM     21  C   LIG A   1      -7.393   0.206 124.491  0.00  0.00    +0.015 C 
ATOM     22  C   LIG A   1      -7.992   1.065 125.607  0.00  0.00    +0.056 C 
ATOM     23  C   LIG A   1      -9.414   0.620 125.985  0.00  0.00    +0.015 C 
ENDROOT
BRANCH   3  24
ATOM     24  O   LIG A   1      -8.642   2.580 127.690  0.00  0.00    -0.376 OA
ATOM     25  H   LIG A   1      -9.496   2.248 128.041  0.00  0.00    +0.211 HD
ENDBRANCH   3  24
TORSDOF 1
ENDMDL
MODEL 9
REMARK VINA RESULT:      -7.1      3.030      4.695
REMARK  Name = NuBBE_571
REMARK  6 active torsions:
REMARK  status: ('A' for Active; 'I' for Inactive)
REMARK    1  A    between atoms: C_3  and  O_9
REMARK    2  A    between atoms: C_5  and  C_6
REMARK    3  A    between atoms: C_14  and  C_15
REMARK    4  A    between atoms: C_23  and  C_24
REMARK    5  A    between atoms: C_23  and  C_25
REMARK    6  A    between atoms: C_27  and  C_29
REMARK                            x       y       z     vdW  Elec       q    Type
REMARK                         _______ _______ _______ _____ _____    ______ ____
ROOT
ATOM      1  O   LIG A   1      -4.843   3.240 131.439  0.00  0.00    -0.294 OA
ATOM      2  C   LIG A   1      -5.225   4.323 130.984  0.00  0.00    +0.172 C 
ATOM      3  C   LIG A   1      -6.713   4.704 131.019  0.00  0.00    +0.155 C 
ATOM      4  C   LIG A   1      -7.712   4.048 131.939  0.00  0.00    +0.022 C 
ATOM      5  C   LIG A   1      -8.931   4.612 131.709  0.00  0.00    -0.008 C 
ATOM      6  C   LIG A   1      -9.246   6.088 131.972  0.00  0.00    +0.047 C 
ATOM      7  C   LIG A   1      -8.877   4.489 130.228  0.00  0.00    +0.168 C 
ATOM      8  O   LIG A   1      -9.898   4.143 129.598  0.00  0.00    -0.292 OA
ATOM      9  C   LIG A   1      -7.480   4.757 129.654  0.00  0.00    +0.134 C 
ATOM     10  C   LIG A   1      -7.222   3.677 128.607  0.00  0.00    +0.165 C 
ATOM     11  C   LIG A   1      -6.822   3.581 127.070  0.00  0.00    +0.094 C 
ATOM     12  C   LIG A   1      -6.898   2.210 126.432  0.00  0.00    +0.044 C 
ATOM     13  O   LIG A   1      -8.098   3.997 127.483  0.00  0.00    -0.364 OA
ATOM     14  C   LIG A   1      -6.100   4.621 126.239  0.00  0.00    +0.038 C 
ATOM     15  C   LIG A   1      -4.578   4.395 126.212  0.00  0.00    +0.007 C 
ATOM     16  C   LIG A   1      -4.029   4.713 127.568  0.00  0.00    -0.001 C 
ATOM     17  C   LIG A   1      -2.804   4.792 128.531  0.00  0.00    -0.001 C 
ATOM     18  C   LIG A   1      -3.074   3.520 127.888  0.00  0.00    -0.029 C 
ATOM     19  C   LIG A   1      -1.955   3.087 126.973  0.00  0.00    +0.011 C 
ATOM     20  C   LIG A   1      -3.748   2.374 128.597  0.00  0.00    +0.011 C 
ATOM     21  C   LIG A   1      -2.899   4.922 130.028  0.00  0.00    +0.015 C 
ATOM     22  C   LIG A   1      -4.213   5.453 130.604  0.00  0.00    +0.056 C 
ATOM     23  C   LIG A   1      -4.773   6.631 129.790  0.00  0.00    +0.015 C 
ENDROOT
BRANCH   3  24
ATOM     24  O   LIG A   1      -6.572   5.978 131.708  0.00  0.00    -0.376 OA
ATOM     25  H   LIG A   1      -6.005   6.538 131.135  0.00  0.00    +0.211 HD
ENDBRANCH   3  24
TORSDOF 1
ENDMDL
