MODEL 1
REMARK VINA RESULT:      -7.1      0.000      0.000
REMARK  Name = NuBBE_1222
REMARK  10 active torsions:
REMARK  status: ('A' for Active; 'I' for Inactive)
REMARK    1  A    between atoms: C_4  and  C_17
REMARK    2  A    between atoms: C_8  and  O_9
REMARK    3  A    between atoms: C_11  and  O_12
REMARK    4  A    between atoms: O_12  and  C_13
REMARK    5  A    between atoms: C_14  and  O_15
REMARK    6  A    between atoms: O_15  and  C_16
REMARK    7  A    between atoms: C_20  and  O_25
REMARK    8  A    between atoms: C_21  and  O_22
REMARK    9  A    between atoms: O_22  and  C_23
REMARK   10  A    between atoms: O_25  and  C_26
REMARK                            x       y       z     vdW  Elec       q    Type
REMARK                         _______ _______ _______ _____ _____    ______ ____
ROOT
ATOM      1  O   LIG A   1      -9.229   2.766 133.342  0.00  0.00    -0.287 OA
ATOM      2  C   LIG A   1      -9.369   3.150 132.194  0.00  0.00    +0.197 A 
ATOM      3  C   LIG A   1     -10.092   4.385 131.883  0.00  0.00    +0.098 A 
ATOM      4  C   LIG A   1     -10.167   4.791 130.609  0.00  0.00    +0.140 A 
ATOM      5  O   LIG A   1      -9.600   4.092 129.549  0.00  0.00    -0.451 OA
ATOM      6  C   LIG A   1      -9.006   2.867 129.769  0.00  0.00    +0.188 A 
ATOM      7  C   LIG A   1      -8.840   2.376 131.063  0.00  0.00    +0.109 A 
ATOM      8  C   LIG A   1      -8.208   1.156 131.295  0.00  0.00    +0.135 A 
ATOM      9  C   LIG A   1      -7.706   0.423 130.230  0.00  0.00    +0.095 A 
ATOM     10  C   LIG A   1      -7.836   0.898 128.922  0.00  0.00    +0.169 A 
ATOM     11  C   LIG A   1      -8.537   2.108 128.673  0.00  0.00    +0.205 A 
ENDROOT
BRANCH   4  12
ATOM     12  C   LIG A   1     -10.903   6.018 130.222  0.00  0.00    +0.021 A 
ATOM     13  C   LIG A   1     -11.926   6.509 131.035  0.00  0.00    +0.015 A 
ATOM     14  C   LIG A   1     -12.645   7.657 130.686  0.00  0.00    +0.050 A 
ATOM     15  C   LIG A   1     -12.349   8.372 129.520  0.00  0.00    +0.162 A 
ATOM     16  C   LIG A   1     -11.319   7.899 128.691  0.00  0.00    +0.162 A 
ATOM     17  C   LIG A   1     -10.626   6.723 129.039  0.00  0.00    +0.061 A 
BRANCH  16  18
ATOM     18  O   LIG A   1     -10.909   8.425 127.491  0.00  0.00    -0.491 OA
ATOM     19  C   LIG A   1     -10.745   7.526 126.402  0.00  0.00    +0.277 C 
ENDBRANCH  16  18
BRANCH  15  20
ATOM     20  O   LIG A   1     -13.026   9.502 129.152  0.00  0.00    -0.491 OA
ATOM     21  C   LIG A   1     -13.263  10.493 130.146  0.00  0.00    +0.277 C 
ENDBRANCH  15  20
ENDBRANCH   4  12
BRANCH   8  22
ATOM     22  O   LIG A   1      -8.040   0.609 132.535  0.00  0.00    -0.506 OA
ATOM     23  H   LIG A   1      -7.683  -0.302 132.425  0.00  0.00    +0.292 HD
ENDBRANCH   8  22
BRANCH  10  24
ATOM     24  O   LIG A   1      -7.330   0.207 127.842  0.00  0.00    -0.491 OA
ATOM     25  C   LIG A   1      -5.903   0.184 127.737  0.00  0.00    +0.277 C 
ENDBRANCH  10  24
BRANCH  11  26
ATOM     26  O   LIG A   1      -8.677   2.451 127.347  0.00  0.00    -0.488 OA
ATOM     27  C   LIG A   1      -7.731   3.362 126.796  0.00  0.00    +0.277 C 
ENDBRANCH  11  26
TORSDOF 6
ENDMDL
MODEL 2
REMARK VINA RESULT:      -6.8      2.460      8.063
REMARK  Name = NuBBE_1222
REMARK  10 active torsions:
REMARK  status: ('A' for Active; 'I' for Inactive)
REMARK    1  A    between atoms: C_4  and  C_17
REMARK    2  A    between atoms: C_8  and  O_9
REMARK    3  A    between atoms: C_11  and  O_12
REMARK    4  A    between atoms: O_12  and  C_13
REMARK    5  A    between atoms: C_14  and  O_15
REMARK    6  A    between atoms: O_15  and  C_16
REMARK    7  A    between atoms: C_20  and  O_25
REMARK    8  A    between atoms: C_21  and  O_22
REMARK    9  A    between atoms: O_22  and  C_23
REMARK   10  A    between atoms: O_25  and  C_26
REMARK                            x       y       z     vdW  Elec       q    Type
REMARK                         _______ _______ _______ _____ _____    ______ ____
ROOT
ATOM      1  O   LIG A   1      -9.164   3.973 134.358  0.00  0.00    -0.287 OA
ATOM      2  C   LIG A   1      -9.006   3.539 133.231  0.00  0.00    +0.197 A 
ATOM      3  C   LIG A   1      -8.630   2.143 132.995  0.00  0.00    +0.098 A 
ATOM      4  C   LIG A   1      -8.525   1.702 131.735  0.00  0.00    +0.140 A 
ATOM      5  O   LIG A   1      -8.743   2.508 130.622  0.00  0.00    -0.451 OA
ATOM      6  C   LIG A   1      -8.987   3.856 130.782  0.00  0.00    +0.188 A 
ATOM      7  C   LIG A   1      -9.158   4.404 132.053  0.00  0.00    +0.109 A 
ATOM      8  C   LIG A   1      -9.442   5.757 132.221  0.00  0.00    +0.135 A 
ATOM      9  C   LIG A   1      -9.588   6.577 131.112  0.00  0.00    +0.095 A 
ATOM     10  C   LIG A   1      -9.445   6.054 129.823  0.00  0.00    +0.169 A 
ATOM     11  C   LIG A   1      -9.091   4.690 129.647  0.00  0.00    +0.205 A 
ENDROOT
BRANCH   4  12
ATOM     12  C   LIG A   1      -8.126   0.309 131.424  0.00  0.00    +0.021 A 
ATOM     13  C   LIG A   1      -8.082  -0.129 130.099  0.00  0.00    +0.015 A 
ATOM     14  C   LIG A   1      -7.721  -1.442 129.779  0.00  0.00    +0.050 A 
ATOM     15  C   LIG A   1      -7.368  -2.361 130.773  0.00  0.00    +0.162 A 
ATOM     16  C   LIG A   1      -7.399  -1.939 132.112  0.00  0.00    +0.162 A 
ATOM     17  C   LIG A   1      -7.796  -0.622 132.421  0.00  0.00    +0.061 A 
BRANCH  16  18
ATOM     18  O   LIG A   1      -7.135  -2.692 133.229  0.00  0.00    -0.491 OA
ATOM     19  C   LIG A   1      -8.246  -3.195 133.961  0.00  0.00    +0.277 C 
ENDBRANCH  16  18
BRANCH  15  20
ATOM     20  O   LIG A   1      -7.003  -3.649 130.496  0.00  0.00    -0.491 OA
ATOM     21  C   LIG A   1      -5.626  -3.919 130.264  0.00  0.00    +0.277 C 
ENDBRANCH  15  20
ENDBRANCH   4  12
BRANCH   8  22
ATOM     22  O   LIG A   1      -9.592   6.359 133.439  0.00  0.00    -0.506 OA
ATOM     23  H   LIG A   1      -9.911   7.279 133.291  0.00  0.00    +0.292 HD
ENDBRANCH   8  22
BRANCH  10  24
ATOM     24  O   LIG A   1      -9.605   6.834 128.698  0.00  0.00    -0.491 OA
ATOM     25  C   LIG A   1     -10.417   8.000 128.866  0.00  0.00    +0.277 C 
ENDBRANCH  10  24
BRANCH  11  26
ATOM     26  O   LIG A   1      -8.900   4.291 128.343  0.00  0.00    -0.488 OA
ATOM     27  C   LIG A   1      -7.559   4.128 127.892  0.00  0.00    +0.277 C 
ENDBRANCH  11  26
TORSDOF 6
ENDMDL
MODEL 3
REMARK VINA RESULT:      -6.8      6.717      9.819
REMARK  Name = NuBBE_1222
REMARK  10 active torsions:
REMARK  status: ('A' for Active; 'I' for Inactive)
REMARK    1  A    between atoms: C_4  and  C_17
REMARK    2  A    between atoms: C_8  and  O_9
REMARK    3  A    between atoms: C_11  and  O_12
REMARK    4  A    between atoms: O_12  and  C_13
REMARK    5  A    between atoms: C_14  and  O_15
REMARK    6  A    between atoms: O_15  and  C_16
REMARK    7  A    between atoms: C_20  and  O_25
REMARK    8  A    between atoms: C_21  and  O_22
REMARK    9  A    between atoms: O_22  and  C_23
REMARK   10  A    between atoms: O_25  and  C_26
REMARK                            x       y       z     vdW  Elec       q    Type
REMARK                         _______ _______ _______ _____ _____    ______ ____
ROOT
ATOM      1  O   LIG A   1      -9.746  -2.751 124.098  0.00  0.00    -0.287 OA
ATOM      2  C   LIG A   1      -9.043  -2.081 124.834  0.00  0.00    +0.197 A 
ATOM      3  C   LIG A   1      -8.498  -2.629 126.078  0.00  0.00    +0.098 A 
ATOM      4  C   LIG A   1      -7.684  -1.869 126.822  0.00  0.00    +0.140 A 
ATOM      5  O   LIG A   1      -7.332  -0.567 126.482  0.00  0.00    -0.451 OA
ATOM      6  C   LIG A   1      -7.905   0.040 125.384  0.00  0.00    +0.188 A 
ATOM      7  C   LIG A   1      -8.732  -0.680 124.522  0.00  0.00    +0.109 A 
ATOM      8  C   LIG A   1      -9.284  -0.084 123.390  0.00  0.00    +0.135 A 
ATOM      9  C   LIG A   1      -8.990   1.238 123.091  0.00  0.00    +0.095 A 
ATOM     10  C   LIG A   1      -8.147   1.981 123.923  0.00  0.00    +0.169 A 
ATOM     11  C   LIG A   1      -7.634   1.399 125.113  0.00  0.00    +0.205 A 
ENDROOT
BRANCH   4  12
ATOM     12  C   LIG A   1      -7.116  -2.352 128.102  0.00  0.00    +0.021 A 
ATOM     13  C   LIG A   1      -7.957  -2.842 129.103  0.00  0.00    +0.015 A 
ATOM     14  C   LIG A   1      -7.448  -3.292 130.325  0.00  0.00    +0.050 A 
ATOM     15  C   LIG A   1      -6.073  -3.292 130.583  0.00  0.00    +0.162 A 
ATOM     16  C   LIG A   1      -5.208  -2.810 129.588  0.00  0.00    +0.162 A 
ATOM     17  C   LIG A   1      -5.738  -2.329 128.374  0.00  0.00    +0.061 A 
BRANCH  16  18
ATOM     18  O   LIG A   1      -3.843  -2.684 129.661  0.00  0.00    -0.491 OA
ATOM     19  C   LIG A   1      -3.056  -3.743 129.130  0.00  0.00    +0.277 C 
ENDBRANCH  16  18
BRANCH  15  20
ATOM     20  O   LIG A   1      -5.540  -3.731 131.764  0.00  0.00    -0.491 OA
ATOM     21  C   LIG A   1      -5.312  -5.128 131.915  0.00  0.00    +0.277 C 
ENDBRANCH  15  20
ENDBRANCH   4  12
BRANCH   8  22
ATOM     22  O   LIG A   1     -10.122  -0.726 122.524  0.00  0.00    -0.506 OA
ATOM     23  H   LIG A   1     -10.893  -0.139 122.348  0.00  0.00    +0.292 HD
ENDBRANCH   8  22
BRANCH  10  24
ATOM     24  O   LIG A   1      -7.817   3.290 123.645  0.00  0.00    -0.491 OA
ATOM     25  C   LIG A   1      -6.845   3.474 122.611  0.00  0.00    +0.277 C 
ENDBRANCH  10  24
BRANCH  11  26
ATOM     26  O   LIG A   1      -6.877   2.236 125.902  0.00  0.00    -0.488 OA
ATOM     27  C   LIG A   1      -5.460   2.110 125.830  0.00  0.00    +0.277 C 
ENDBRANCH  11  26
TORSDOF 6
ENDMDL
MODEL 4
REMARK VINA RESULT:      -6.8      6.860      7.979
REMARK  Name = NuBBE_1222
REMARK  10 active torsions:
REMARK  status: ('A' for Active; 'I' for Inactive)
REMARK    1  A    between atoms: C_4  and  C_17
REMARK    2  A    between atoms: C_8  and  O_9
REMARK    3  A    between atoms: C_11  and  O_12
REMARK    4  A    between atoms: O_12  and  C_13
REMARK    5  A    between atoms: C_14  and  O_15
REMARK    6  A    between atoms: O_15  and  C_16
REMARK    7  A    between atoms: C_20  and  O_25
REMARK    8  A    between atoms: C_21  and  O_22
REMARK    9  A    between atoms: O_22  and  C_23
REMARK   10  A    between atoms: O_25  and  C_26
REMARK                            x       y       z     vdW  Elec       q    Type
REMARK                         _______ _______ _______ _____ _____    ______ ____
ROOT
ATOM      1  O   LIG A   1      -5.196   1.689 127.135  0.00  0.00    -0.287 OA
ATOM      2  C   LIG A   1      -5.987   1.338 126.277  0.00  0.00    +0.197 A 
ATOM      3  C   LIG A   1      -6.189   2.123 125.057  0.00  0.00    +0.098 A 
ATOM      4  C   LIG A   1      -7.029   1.663 124.120  0.00  0.00    +0.140 A 
ATOM      5  O   LIG A   1      -7.738   0.473 124.246  0.00  0.00    -0.451 OA
ATOM      6  C   LIG A   1      -7.674  -0.248 125.420  0.00  0.00    +0.188 A 
ATOM      7  C   LIG A   1      -6.797   0.124 126.439  0.00  0.00    +0.109 A 
ATOM      8  C   LIG A   1      -6.700  -0.621 127.613  0.00  0.00    +0.135 A 
ATOM      9  C   LIG A   1      -7.463  -1.769 127.769  0.00  0.00    +0.095 A 
ATOM     10  C   LIG A   1      -8.335  -2.181 126.757  0.00  0.00    +0.169 A 
ATOM     11  C   LIG A   1      -8.486  -1.391 125.586  0.00  0.00    +0.205 A 
ENDROOT
BRANCH   4  12
ATOM     12  C   LIG A   1      -7.297   2.417 122.873  0.00  0.00    +0.021 A 
ATOM     13  C   LIG A   1      -8.612   2.638 122.455  0.00  0.00    +0.015 A 
ATOM     14  C   LIG A   1      -8.893   3.334 121.276  0.00  0.00    +0.050 A 
ATOM     15  C   LIG A   1      -7.869   3.860 120.481  0.00  0.00    +0.162 A 
ATOM     16  C   LIG A   1      -6.540   3.655 120.886  0.00  0.00    +0.162 A 
ATOM     17  C   LIG A   1      -6.271   2.923 122.060  0.00  0.00    +0.061 A 
BRANCH  16  18
ATOM     18  O   LIG A   1      -5.399   4.046 120.228  0.00  0.00    -0.491 OA
ATOM     19  C   LIG A   1      -4.887   5.341 120.513  0.00  0.00    +0.277 C 
ENDBRANCH  16  18
BRANCH  15  20
ATOM     20  O   LIG A   1      -8.107   4.552 119.326  0.00  0.00    -0.491 OA
ATOM     21  C   LIG A   1      -9.387   4.418 118.719  0.00  0.00    +0.277 C 
ENDBRANCH  15  20
ENDBRANCH   4  12
BRANCH   8  22
ATOM     22  O   LIG A   1      -5.883  -0.294 128.657  0.00  0.00    -0.506 OA
ATOM     23  H   LIG A   1      -6.445   0.020 129.402  0.00  0.00    +0.292 HD
ENDBRANCH   8  22
BRANCH  10  24
ATOM     24  O   LIG A   1      -9.091  -3.328 126.869  0.00  0.00    -0.491 OA
ATOM     25  C   LIG A   1      -9.001  -4.006 128.125  0.00  0.00    +0.277 C 
ENDBRANCH  10  24
BRANCH  11  26
ATOM     26  O   LIG A   1      -9.425  -1.841 124.685  0.00  0.00    -0.488 OA
ATOM     27  C   LIG A   1      -8.969  -2.648 123.604  0.00  0.00    +0.277 C 
ENDBRANCH  11  26
TORSDOF 6
ENDMDL
MODEL 5
REMARK VINA RESULT:      -6.8      2.169      7.691
REMARK  Name = NuBBE_1222
REMARK  10 active torsions:
REMARK  status: ('A' for Active; 'I' for Inactive)
REMARK    1  A    between atoms: C_4  and  C_17
REMARK    2  A    between atoms: C_8  and  O_9
REMARK    3  A    between atoms: C_11  and  O_12
REMARK    4  A    between atoms: O_12  and  C_13
REMARK    5  A    between atoms: C_14  and  O_15
REMARK    6  A    between atoms: O_15  and  C_16
REMARK    7  A    between atoms: C_20  and  O_25
REMARK    8  A    between atoms: C_21  and  O_22
REMARK    9  A    between atoms: O_22  and  C_23
REMARK   10  A    between atoms: O_25  and  C_26
REMARK                            x       y       z     vdW  Elec       q    Type
REMARK                         _______ _______ _______ _____ _____    ______ ____
ROOT
ATOM      1  O   LIG A   1      -9.169   3.878 134.273  0.00  0.00    -0.287 OA
ATOM      2  C   LIG A   1      -9.008   3.475 133.134  0.00  0.00    +0.197 A 
ATOM      3  C   LIG A   1      -8.640   2.085 132.860  0.00  0.00    +0.098 A 
ATOM      4  C   LIG A   1      -8.532   1.679 131.588  0.00  0.00    +0.140 A 
ATOM      5  O   LIG A   1      -8.741   2.517 130.498  0.00  0.00    -0.451 OA
ATOM      6  C   LIG A   1      -8.977   3.862 130.696  0.00  0.00    +0.188 A 
ATOM      7  C   LIG A   1      -9.150   4.374 131.981  0.00  0.00    +0.109 A 
ATOM      8  C   LIG A   1      -9.426   5.724 132.186  0.00  0.00    +0.135 A 
ATOM      9  C   LIG A   1      -9.563   6.576 131.100  0.00  0.00    +0.095 A 
ATOM     10  C   LIG A   1      -9.418   6.089 129.798  0.00  0.00    +0.169 A 
ATOM     11  C   LIG A   1      -9.072   4.728 129.585  0.00  0.00    +0.205 A 
ENDROOT
BRANCH   4  12
ATOM     12  C   LIG A   1      -8.141   0.293 131.240  0.00  0.00    +0.021 A 
ATOM     13  C   LIG A   1      -7.980  -0.665 132.243  0.00  0.00    +0.015 A 
ATOM     14  C   LIG A   1      -7.598  -1.976 131.943  0.00  0.00    +0.050 A 
ATOM     15  C   LIG A   1      -7.388  -2.387 130.622  0.00  0.00    +0.162 A 
ATOM     16  C   LIG A   1      -7.551  -1.442 129.597  0.00  0.00    +0.162 A 
ATOM     17  C   LIG A   1      -7.904  -0.115 129.917  0.00  0.00    +0.061 A 
BRANCH  16  18
ATOM     18  O   LIG A   1      -7.349  -1.629 128.252  0.00  0.00    -0.491 OA
ATOM     19  C   LIG A   1      -6.071  -1.294 127.726  0.00  0.00    +0.277 C 
ENDBRANCH  16  18
BRANCH  15  20
ATOM     20  O   LIG A   1      -7.022  -3.662 130.292  0.00  0.00    -0.491 OA
ATOM     21  C   LIG A   1      -5.641  -3.999 130.357  0.00  0.00    +0.277 C 
ENDBRANCH  15  20
ENDBRANCH   4  12
BRANCH   8  22
ATOM     22  O   LIG A   1      -9.578   6.291 133.420  0.00  0.00    -0.506 OA
ATOM     23  H   LIG A   1     -10.262   5.782 133.912  0.00  0.00    +0.292 HD
ENDBRANCH   8  22
BRANCH  10  24
ATOM     24  O   LIG A   1      -9.568   6.902 128.695  0.00  0.00    -0.491 OA
ATOM     25  C   LIG A   1     -10.423   8.035 128.875  0.00  0.00    +0.277 C 
ENDBRANCH  10  24
BRANCH  11  26
ATOM     26  O   LIG A   1      -8.877   4.365 128.270  0.00  0.00    -0.488 OA
ATOM     27  C   LIG A   1      -7.540   4.133 127.840  0.00  0.00    +0.277 C 
ENDBRANCH  11  26
TORSDOF 6
ENDMDL
MODEL 6
REMARK VINA RESULT:      -6.7      6.566      7.720
REMARK  Name = NuBBE_1222
REMARK  10 active torsions:
REMARK  status: ('A' for Active; 'I' for Inactive)
REMARK    1  A    between atoms: C_4  and  C_17
REMARK    2  A    between atoms: C_8  and  O_9
REMARK    3  A    between atoms: C_11  and  O_12
REMARK    4  A    between atoms: O_12  and  C_13
REMARK    5  A    between atoms: C_14  and  O_15
REMARK    6  A    between atoms: O_15  and  C_16
REMARK    7  A    between atoms: C_20  and  O_25
REMARK    8  A    between atoms: C_21  and  O_22
REMARK    9  A    between atoms: O_22  and  C_23
REMARK   10  A    between atoms: O_25  and  C_26
REMARK                            x       y       z     vdW  Elec       q    Type
REMARK                         _______ _______ _______ _____ _____    ______ ____
ROOT
ATOM      1  O   LIG A   1      -9.804  -2.457 125.549  0.00  0.00    -0.287 OA
ATOM      2  C   LIG A   1      -8.860  -1.762 125.881  0.00  0.00    +0.197 A 
ATOM      3  C   LIG A   1      -8.439  -0.611 125.079  0.00  0.00    +0.098 A 
ATOM      4  C   LIG A   1      -7.432   0.154 125.520  0.00  0.00    +0.140 A 
ATOM      5  O   LIG A   1      -6.746  -0.091 126.705  0.00  0.00    -0.451 OA
ATOM      6  C   LIG A   1      -7.024  -1.224 127.441  0.00  0.00    +0.188 A 
ATOM      7  C   LIG A   1      -8.082  -2.062 127.090  0.00  0.00    +0.109 A 
ATOM      8  C   LIG A   1      -8.392  -3.187 127.851  0.00  0.00    +0.135 A 
ATOM      9  C   LIG A   1      -7.661  -3.473 128.994  0.00  0.00    +0.095 A 
ATOM     10  C   LIG A   1      -6.607  -2.641 129.386  0.00  0.00    +0.169 A 
ATOM     11  C   LIG A   1      -6.245  -1.529 128.579  0.00  0.00    +0.205 A 
ENDROOT
BRANCH   4  12
ATOM     12  C   LIG A   1      -6.939   1.319 124.748  0.00  0.00    +0.021 A 
ATOM     13  C   LIG A   1      -7.258   1.450 123.394  0.00  0.00    +0.015 A 
ATOM     14  C   LIG A   1      -6.795   2.533 122.640  0.00  0.00    +0.050 A 
ATOM     15  C   LIG A   1      -6.016   3.541 123.217  0.00  0.00    +0.162 A 
ATOM     16  C   LIG A   1      -5.689   3.432 124.579  0.00  0.00    +0.162 A 
ATOM     17  C   LIG A   1      -6.135   2.319 125.319  0.00  0.00    +0.061 A 
BRANCH  16  18
ATOM     18  O   LIG A   1      -4.904   4.283 125.317  0.00  0.00    -0.491 OA
ATOM     19  C   LIG A   1      -4.034   3.704 126.282  0.00  0.00    +0.277 C 
ENDBRANCH  16  18
BRANCH  15  20
ATOM     20  O   LIG A   1      -5.553   4.617 122.512  0.00  0.00    -0.491 OA
ATOM     21  C   LIG A   1      -5.224   4.425 121.141  0.00  0.00    +0.277 C 
ENDBRANCH  15  20
ENDBRANCH   4  12
BRANCH   8  22
ATOM     22  O   LIG A   1      -9.396  -4.060 127.544  0.00  0.00    -0.506 OA
ATOM     23  H   LIG A   1      -8.992  -4.874 127.163  0.00  0.00    +0.292 HD
ENDBRANCH   8  22
BRANCH  10  24
ATOM     24  O   LIG A   1      -5.874  -2.882 130.527  0.00  0.00    -0.491 OA
ATOM     25  C   LIG A   1      -5.346  -4.206 130.654  0.00  0.00    +0.277 C 
ENDBRANCH  10  24
BRANCH  11  26
ATOM     26  O   LIG A   1      -5.148  -0.817 129.010  0.00  0.00    -0.488 OA
ATOM     27  C   LIG A   1      -5.383   0.392 129.724  0.00  0.00    +0.277 C 
ENDBRANCH  11  26
TORSDOF 6
ENDMDL
MODEL 7
REMARK VINA RESULT:      -6.7      4.222      4.652
REMARK  Name = NuBBE_1222
REMARK  10 active torsions:
REMARK  status: ('A' for Active; 'I' for Inactive)
REMARK    1  A    between atoms: C_4  and  C_17
REMARK    2  A    between atoms: C_8  and  O_9
REMARK    3  A    between atoms: C_11  and  O_12
REMARK    4  A    between atoms: O_12  and  C_13
REMARK    5  A    between atoms: C_14  and  O_15
REMARK    6  A    between atoms: O_15  and  C_16
REMARK    7  A    between atoms: C_20  and  O_25
REMARK    8  A    between atoms: C_21  and  O_22
REMARK    9  A    between atoms: O_22  and  C_23
REMARK   10  A    between atoms: O_25  and  C_26
REMARK                            x       y       z     vdW  Elec       q    Type
REMARK                         _______ _______ _______ _____ _____    ______ ____
ROOT
ATOM      1  O   LIG A   1      -7.534   4.810 135.167  0.00  0.00    -0.287 OA
ATOM      2  C   LIG A   1      -7.449   5.289 134.049  0.00  0.00    +0.197 A 
ATOM      3  C   LIG A   1      -8.638   5.706 133.304  0.00  0.00    +0.098 A 
ATOM      4  C   LIG A   1      -8.484   6.280 132.103  0.00  0.00    +0.140 A 
ATOM      5  O   LIG A   1      -7.244   6.492 131.510  0.00  0.00    -0.451 OA
ATOM      6  C   LIG A   1      -6.099   6.016 132.114  0.00  0.00    +0.188 A 
ATOM      7  C   LIG A   1      -6.148   5.444 133.385  0.00  0.00    +0.109 A 
ATOM      8  C   LIG A   1      -4.990   4.995 134.017  0.00  0.00    +0.135 A 
ATOM      9  C   LIG A   1      -3.760   5.142 133.394  0.00  0.00    +0.095 A 
ATOM     10  C   LIG A   1      -3.674   5.732 132.129  0.00  0.00    +0.169 A 
ATOM     11  C   LIG A   1      -4.857   6.132 131.452  0.00  0.00    +0.205 A 
ENDROOT
BRANCH   4  12
ATOM     12  C   LIG A   1      -9.644   6.705 131.285  0.00  0.00    +0.021 A 
ATOM     13  C   LIG A   1     -10.945   6.513 131.758  0.00  0.00    +0.015 A 
ATOM     14  C   LIG A   1     -12.057   6.894 131.000  0.00  0.00    +0.050 A 
ATOM     15  C   LIG A   1     -11.910   7.504 129.750  0.00  0.00    +0.162 A 
ATOM     16  C   LIG A   1     -10.611   7.712 129.259  0.00  0.00    +0.162 A 
ATOM     17  C   LIG A   1      -9.501   7.294 130.019  0.00  0.00    +0.061 A 
BRANCH  16  18
ATOM     18  O   LIG A   1     -10.256   8.248 128.045  0.00  0.00    -0.491 OA
ATOM     19  C   LIG A   1     -10.507   7.467 126.884  0.00  0.00    +0.277 C 
ENDBRANCH  16  18
BRANCH  15  20
ATOM     20  O   LIG A   1     -12.975   7.895 128.987  0.00  0.00    -0.491 OA
ATOM     21  C   LIG A   1     -13.738   6.886 128.337  0.00  0.00    +0.277 C 
ENDBRANCH  15  20
ENDBRANCH   4  12
BRANCH   8  22
ATOM     22  O   LIG A   1      -4.976   4.401 135.247  0.00  0.00    -0.506 OA
ATOM     23  H   LIG A   1      -5.364   3.500 135.158  0.00  0.00    +0.292 HD
ENDBRANCH   8  22
BRANCH  10  24
ATOM     24  O   LIG A   1      -2.467   5.913 131.490  0.00  0.00    -0.491 OA
ATOM     25  C   LIG A   1      -1.542   6.782 132.152  0.00  0.00    +0.277 C 
ENDBRANCH  10  24
BRANCH  11  26
ATOM     26  O   LIG A   1      -4.672   6.631 130.182  0.00  0.00    -0.488 OA
ATOM     27  C   LIG A   1      -4.451   8.032 130.049  0.00  0.00    +0.277 C 
ENDBRANCH  11  26
TORSDOF 6
ENDMDL
MODEL 8
REMARK VINA RESULT:      -6.6      7.887     10.359
REMARK  Name = NuBBE_1222
REMARK  10 active torsions:
REMARK  status: ('A' for Active; 'I' for Inactive)
REMARK    1  A    between atoms: C_4  and  C_17
REMARK    2  A    between atoms: C_8  and  O_9
REMARK    3  A    between atoms: C_11  and  O_12
REMARK    4  A    between atoms: O_12  and  C_13
REMARK    5  A    between atoms: C_14  and  O_15
REMARK    6  A    between atoms: O_15  and  C_16
REMARK    7  A    between atoms: C_20  and  O_25
REMARK    8  A    between atoms: C_21  and  O_22
REMARK    9  A    between atoms: O_22  and  C_23
REMARK   10  A    between atoms: O_25  and  C_26
REMARK                            x       y       z     vdW  Elec       q    Type
REMARK                         _______ _______ _______ _____ _____    ______ ____
ROOT
ATOM      1  O   LIG A   1      -9.645  -4.055 127.885  0.00  0.00    -0.287 OA
ATOM      2  C   LIG A   1      -8.555  -3.512 127.905  0.00  0.00    +0.197 A 
ATOM      3  C   LIG A   1      -7.653  -3.648 129.051  0.00  0.00    +0.098 A 
ATOM      4  C   LIG A   1      -6.443  -3.077 128.997  0.00  0.00    +0.140 A 
ATOM      5  O   LIG A   1      -5.991  -2.344 127.905  0.00  0.00    -0.451 OA
ATOM      6  C   LIG A   1      -6.838  -2.087 126.847  0.00  0.00    +0.188 A 
ATOM      7  C   LIG A   1      -8.104  -2.670 126.789  0.00  0.00    +0.109 A 
ATOM      8  C   LIG A   1      -8.950  -2.446 125.705  0.00  0.00    +0.135 A 
ATOM      9  C   LIG A   1      -8.527  -1.653 124.649  0.00  0.00    +0.095 A 
ATOM     10  C   LIG A   1      -7.256  -1.072 124.666  0.00  0.00    +0.169 A 
ATOM     11  C   LIG A   1      -6.414  -1.243 125.797  0.00  0.00    +0.205 A 
ENDROOT
BRANCH   4  12
ATOM     12  C   LIG A   1      -5.490  -3.156 130.129  0.00  0.00    +0.021 A 
ATOM     13  C   LIG A   1      -4.520  -2.165 130.301  0.00  0.00    +0.015 A 
ATOM     14  C   LIG A   1      -3.601  -2.222 131.353  0.00  0.00    +0.050 A 
ATOM     15  C   LIG A   1      -3.632  -3.260 132.289  0.00  0.00    +0.162 A 
ATOM     16  C   LIG A   1      -4.604  -4.264 132.140  0.00  0.00    +0.162 A 
ATOM     17  C   LIG A   1      -5.502  -4.210 131.056  0.00  0.00    +0.061 A 
BRANCH  16  18
ATOM     18  O   LIG A   1      -4.772  -5.382 132.918  0.00  0.00    -0.491 OA
ATOM     19  C   LIG A   1      -5.763  -5.332 133.936  0.00  0.00    +0.277 C 
ENDBRANCH  16  18
BRANCH  15  20
ATOM     20  O   LIG A   1      -2.754  -3.343 133.334  0.00  0.00    -0.491 OA
ATOM     21  C   LIG A   1      -2.983  -2.513 134.467  0.00  0.00    +0.277 C 
ENDBRANCH  15  20
ENDBRANCH   4  12
BRANCH   8  22
ATOM     22  O   LIG A   1     -10.209  -2.965 125.603  0.00  0.00    -0.506 OA
ATOM     23  H   LIG A   1     -10.775  -2.312 125.129  0.00  0.00    +0.292 HD
ENDBRANCH   8  22
BRANCH  10  24
ATOM     24  O   LIG A   1      -6.794  -0.297 123.624  0.00  0.00    -0.491 OA
ATOM     25  C   LIG A   1      -7.487   0.938 123.419  0.00  0.00    +0.277 C 
ENDBRANCH  10  24
BRANCH  11  26
ATOM     26  O   LIG A   1      -5.214  -0.568 125.750  0.00  0.00    -0.488 OA
ATOM     27  C   LIG A   1      -5.147   0.704 126.386  0.00  0.00    +0.277 C 
ENDBRANCH  11  26
TORSDOF 6
ENDMDL
MODEL 9
REMARK VINA RESULT:      -6.5      6.204      8.995
REMARK  Name = NuBBE_1222
REMARK  10 active torsions:
REMARK  status: ('A' for Active; 'I' for Inactive)
REMARK    1  A    between atoms: C_4  and  C_17
REMARK    2  A    between atoms: C_8  and  O_9
REMARK    3  A    between atoms: C_11  and  O_12
REMARK    4  A    between atoms: O_12  and  C_13
REMARK    5  A    between atoms: C_14  and  O_15
REMARK    6  A    between atoms: O_15  and  C_16
REMARK    7  A    between atoms: C_20  and  O_25
REMARK    8  A    between atoms: C_21  and  O_22
REMARK    9  A    between atoms: O_22  and  C_23
REMARK   10  A    between atoms: O_25  and  C_26
REMARK                            x       y       z     vdW  Elec       q    Type
REMARK                         _______ _______ _______ _____ _____    ______ ____
ROOT
ATOM      1  O   LIG A   1      -3.109  -3.637 130.706  0.00  0.00    -0.287 OA
ATOM      2  C   LIG A   1      -4.220  -3.136 130.703  0.00  0.00    +0.197 A 
ATOM      3  C   LIG A   1      -5.079  -3.187 129.518  0.00  0.00    +0.098 A 
ATOM      4  C   LIG A   1      -6.313  -2.671 129.587  0.00  0.00    +0.140 A 
ATOM      5  O   LIG A   1      -6.828  -2.070 130.731  0.00  0.00    -0.451 OA
ATOM      6  C   LIG A   1      -6.026  -1.892 131.838  0.00  0.00    +0.188 A 
ATOM      7  C   LIG A   1      -4.740  -2.431 131.882  0.00  0.00    +0.109 A 
ATOM      8  C   LIG A   1      -3.938  -2.287 133.012  0.00  0.00    +0.135 A 
ATOM      9  C   LIG A   1      -4.426  -1.623 134.128  0.00  0.00    +0.095 A 
ATOM     10  C   LIG A   1      -5.718  -1.091 134.124  0.00  0.00    +0.169 A 
ATOM     11  C   LIG A   1      -6.517  -1.177 132.953  0.00  0.00    +0.205 A 
ENDROOT
BRANCH   4  12
ATOM     12  C   LIG A   1      -7.226  -2.668 128.420  0.00  0.00    +0.021 A 
ATOM     13  C   LIG A   1      -8.238  -3.626 128.317  0.00  0.00    +0.015 A 
ATOM     14  C   LIG A   1      -9.104  -3.654 127.220  0.00  0.00    +0.050 A 
ATOM     15  C   LIG A   1      -9.008  -2.708 126.194  0.00  0.00    +0.162 A 
ATOM     16  C   LIG A   1      -8.002  -1.732 126.280  0.00  0.00    +0.162 A 
ATOM     17  C   LIG A   1      -7.115  -1.736 127.375  0.00  0.00    +0.061 A 
BRANCH  16  18
ATOM     18  O   LIG A   1      -7.712  -0.752 125.363  0.00  0.00    -0.491 OA
ATOM     19  C   LIG A   1      -8.383   0.495 125.500  0.00  0.00    +0.277 C 
ENDBRANCH  16  18
BRANCH  15  20
ATOM     20  O   LIG A   1      -9.843  -2.701 125.111  0.00  0.00    -0.491 OA
ATOM     21  C   LIG A   1      -9.407  -3.360 123.928  0.00  0.00    +0.277 C 
ENDBRANCH  15  20
ENDBRANCH   4  12
BRANCH   8  22
ATOM     22  O   LIG A   1      -2.662  -2.766 133.106  0.00  0.00    -0.506 OA
ATOM     23  H   LIG A   1      -2.506  -3.377 132.349  0.00  0.00    +0.292 HD
ENDBRANCH   8  22
BRANCH  10  24
ATOM     24  O   LIG A   1      -6.244  -0.445 135.223  0.00  0.00    -0.491 OA
ATOM     25  C   LIG A   1      -5.301  -0.091 136.239  0.00  0.00    +0.277 C 
ENDBRANCH  10  24
BRANCH  11  26
ATOM     26  O   LIG A   1      -7.744  -0.556 133.025  0.00  0.00    -0.488 OA
ATOM     27  C   LIG A   1      -7.879   0.715 132.398  0.00  0.00    +0.277 C 
ENDBRANCH  11  26
TORSDOF 6
ENDMDL
