MODEL 1
REMARK VINA RESULT:      -9.4      0.000      0.000
REMARK  Name = NuBBE_258
REMARK  10 active torsions:
REMARK  status: ('A' for Active; 'I' for Inactive)
REMARK    1  A    between atoms: C_3  and  O_4
REMARK    2  A    between atoms: C_5  and  C_6
REMARK    3  A    between atoms: C_12  and  C_13
REMARK    4  A    between atoms: C_15  and  C_26
REMARK    5  A    between atoms: C_18  and  C_19
REMARK    6  A    between atoms: C_18  and  C_20
REMARK    7  A    between atoms: C_20  and  O_21
REMARK    8  A    between atoms: O_21  and  C_22
REMARK    9  A    between atoms: C_29  and  C_30
REMARK   10  A    between atoms: C_33  and  C_34
REMARK                            x       y       z     vdW  Elec       q    Type
REMARK                         _______ _______ _______ _____ _____    ______ ____
ROOT
ATOM      1  O   LIG A   1      -4.616   4.616 120.393  0.00  0.00    -0.284 OA
ATOM      2  C   LIG A   1      -5.670   4.229 120.891  0.00  0.00    +0.221 C 
ATOM      3  C   LIG A   1      -6.941   4.337 120.116  0.00  0.00    +0.167 C 
ATOM      4  C   LIG A   1      -8.088   3.823 120.601  0.00  0.00    +0.002 C 
ATOM      5  C   LIG A   1      -9.387   3.943 119.849  0.00  0.00    +0.048 C 
ATOM      6  C   LIG A   1      -8.045   3.087 121.875  0.00  0.00    -0.014 C 
ATOM      7  C   LIG A   1      -9.049   2.276 122.269  0.00  0.00    +0.009 C 
ATOM      8  C   LIG A   1      -8.915   1.359 123.387  0.00  0.00    +0.005 C 
ATOM      9  C   LIG A   1      -7.877   1.398 124.252  0.00  0.00    -0.034 C 
ATOM     10  C   LIG A   1      -7.575   0.310 125.236  0.00  0.00    -0.038 C 
ATOM     11  C   LIG A   1      -8.154  -0.930 125.255  0.00  0.00    -0.068 C 
ATOM     12  C   LIG A   1      -8.968  -1.572 124.149  0.00  0.00    +0.039 C 
ATOM     13  C   LIG A   1      -8.014  -1.922 126.413  0.00  0.00    +0.038 C 
ATOM     14  C   LIG A   1      -7.317  -1.462 127.721  0.00  0.00    -0.018 C 
ATOM     15  C   LIG A   1      -8.263  -1.700 128.923  0.00  0.00    +0.082 C 
ATOM     16  C   LIG A   1      -7.624  -1.247 130.223  0.00  0.00    +0.150 C 
ATOM     17  C   LIG A   1      -7.040   0.166 130.266  0.00  0.00    +0.123 C 
ATOM     18  C   LIG A   1      -8.228   1.118 130.497  0.00  0.00    +0.031 C 
ATOM     19  C   LIG A   1      -6.290   0.523 128.948  0.00  0.00    +0.030 C 
ATOM     20  O   LIG A   1      -7.709  -1.966 131.219  0.00  0.00    -0.296 OA
ATOM     21  C   LIG A   1      -6.083  -2.378 127.968  0.00  0.00    +0.012 C 
ATOM     22  C   LIG A   1      -7.030   0.067 127.672  0.00  0.00    +0.007 C 
ATOM     23  C   LIG A   1      -6.454   0.553 126.291  0.00  0.00    -0.003 C 
ATOM     24  C   LIG A   1      -5.196  -0.247 125.847  0.00  0.00    +0.016 C 
ATOM     25  C   LIG A   1      -6.004   2.027 126.399  0.00  0.00    +0.013 C 
ATOM     26  C   LIG A   1      -5.782   2.666 125.034  0.00  0.00    +0.017 C 
ATOM     27  C   LIG A   1      -7.093   2.740 124.233  0.00  0.00    +0.019 C 
ATOM     28  C   LIG A   1      -7.972   3.839 124.924  0.00  0.00    +0.021 C 
ATOM     29  C   LIG A   1      -6.874   3.207 122.771  0.00  0.00    -0.026 C 
ATOM     30  C   LIG A   1      -5.734   3.721 122.277  0.00  0.00    +0.059 C 
ENDROOT
BRANCH   3  31
ATOM     31  O   LIG A   1      -6.868   4.973 118.889  0.00  0.00    -0.503 OA
ATOM     32  H   LIG A   1      -5.927   4.893 118.621  0.00  0.00    +0.292 HD
ENDBRANCH   3  31
BRANCH  17  33
ATOM     33  C   LIG A   1      -6.020   0.360 131.380  0.00  0.00    +0.320 C 
ATOM     34  O   LIG A   1      -6.268   0.929 132.450  0.00  0.00    -0.250 OA
BRANCH  33  35
ATOM     35  O   LIG A   1      -4.776   0.002 130.973  0.00  0.00    -0.467 OA
ATOM     36  C   LIG A   1      -4.186  -1.092 131.674  0.00  0.00    +0.280 C 
ENDBRANCH  33  35
ENDBRANCH  17  33
TORSDOF 3
ENDMDL
MODEL 2
REMARK VINA RESULT:      -8.9      4.318     10.419
REMARK  Name = NuBBE_258
REMARK  10 active torsions:
REMARK  status: ('A' for Active; 'I' for Inactive)
REMARK    1  A    between atoms: C_3  and  O_4
REMARK    2  A    between atoms: C_5  and  C_6
REMARK    3  A    between atoms: C_12  and  C_13
REMARK    4  A    between atoms: C_15  and  C_26
REMARK    5  A    between atoms: C_18  and  C_19
REMARK    6  A    between atoms: C_18  and  C_20
REMARK    7  A    between atoms: C_20  and  O_21
REMARK    8  A    between atoms: O_21  and  C_22
REMARK    9  A    between atoms: C_29  and  C_30
REMARK   10  A    between atoms: C_33  and  C_34
REMARK                            x       y       z     vdW  Elec       q    Type
REMARK                         _______ _______ _______ _____ _____    ______ ____
ROOT
ATOM      1  O   LIG A   1      -1.713  -4.679 134.581  0.00  0.00    -0.284 OA
ATOM      2  C   LIG A   1      -2.897  -4.675 134.256  0.00  0.00    +0.221 C 
ATOM      3  C   LIG A   1      -3.937  -5.097 135.240  0.00  0.00    +0.167 C 
ATOM      4  C   LIG A   1      -5.248  -5.000 134.940  0.00  0.00    +0.002 C 
ATOM      5  C   LIG A   1      -6.314  -5.445 135.905  0.00  0.00    +0.048 C 
ATOM      6  C   LIG A   1      -5.630  -4.399 133.652  0.00  0.00    -0.014 C 
ATOM      7  C   LIG A   1      -6.886  -3.968 133.406  0.00  0.00    +0.009 C 
ATOM      8  C   LIG A   1      -7.217  -3.154 132.250  0.00  0.00    +0.005 C 
ATOM      9  C   LIG A   1      -6.362  -2.950 131.223  0.00  0.00    -0.034 C 
ATOM     10  C   LIG A   1      -6.570  -1.911 130.165  0.00  0.00    -0.038 C 
ATOM     11  C   LIG A   1      -7.505  -0.913 130.202  0.00  0.00    -0.068 C 
ATOM     12  C   LIG A   1      -8.303  -0.456 131.406  0.00  0.00    +0.039 C 
ATOM     13  C   LIG A   1      -7.860  -0.029 129.002  0.00  0.00    +0.038 C 
ATOM     14  C   LIG A   1      -7.259  -0.367 127.612  0.00  0.00    -0.018 C 
ATOM     15  C   LIG A   1      -8.402  -0.532 126.581  0.00  0.00    +0.082 C 
ATOM     16  C   LIG A   1      -7.857  -0.879 125.208  0.00  0.00    +0.150 C 
ATOM     17  C   LIG A   1      -6.872  -2.046 125.115  0.00  0.00    +0.123 C 
ATOM     18  C   LIG A   1      -7.722  -3.330 125.124  0.00  0.00    +0.031 C 
ATOM     19  C   LIG A   1      -5.858  -2.043 126.298  0.00  0.00    +0.030 C 
ATOM     20  O   LIG A   1      -8.313  -0.309 124.216  0.00  0.00    -0.296 OA
ATOM     21  C   LIG A   1      -6.428   0.857 127.126  0.00  0.00    +0.012 C 
ATOM     22  C   LIG A   1      -6.503  -1.725 127.664  0.00  0.00    +0.007 C 
ATOM     23  C   LIG A   1      -5.602  -1.892 128.943  0.00  0.00    -0.003 C 
ATOM     24  C   LIG A   1      -4.607  -0.712 129.138  0.00  0.00    +0.016 C 
ATOM     25  C   LIG A   1      -4.733  -3.162 128.812  0.00  0.00    +0.013 C 
ATOM     26  C   LIG A   1      -4.118  -3.584 130.141  0.00  0.00    +0.017 C 
ATOM     27  C   LIG A   1      -5.203  -3.983 131.155  0.00  0.00    +0.019 C 
ATOM     28  C   LIG A   1      -5.785  -5.353 130.663  0.00  0.00    +0.021 C 
ATOM     29  C   LIG A   1      -4.631  -4.234 132.574  0.00  0.00    -0.026 C 
ATOM     30  C   LIG A   1      -3.326  -4.332 132.884  0.00  0.00    +0.059 C 
ENDROOT
BRANCH   3  31
ATOM     31  O   LIG A   1      -3.484  -5.572 136.458  0.00  0.00    -0.503 OA
ATOM     32  H   LIG A   1      -3.877  -6.468 136.539  0.00  0.00    +0.292 HD
ENDBRANCH   3  31
BRANCH  17  33
ATOM     33  C   LIG A   1      -6.023  -2.017 123.851  0.00  0.00    +0.320 C 
ATOM     34  O   LIG A   1      -6.465  -1.736 122.730  0.00  0.00    -0.250 OA
BRANCH  33  35
ATOM     35  O   LIG A   1      -4.782  -2.516 124.083  0.00  0.00    -0.467 OA
ATOM     36  C   LIG A   1      -4.492  -3.766 123.460  0.00  0.00    +0.280 C 
ENDBRANCH  33  35
ENDBRANCH  17  33
TORSDOF 3
ENDMDL
MODEL 3
REMARK VINA RESULT:      -8.8      3.082      5.675
REMARK  Name = NuBBE_258
REMARK  10 active torsions:
REMARK  status: ('A' for Active; 'I' for Inactive)
REMARK    1  A    between atoms: C_3  and  O_4
REMARK    2  A    between atoms: C_5  and  C_6
REMARK    3  A    between atoms: C_12  and  C_13
REMARK    4  A    between atoms: C_15  and  C_26
REMARK    5  A    between atoms: C_18  and  C_19
REMARK    6  A    between atoms: C_18  and  C_20
REMARK    7  A    between atoms: C_20  and  O_21
REMARK    8  A    between atoms: O_21  and  C_22
REMARK    9  A    between atoms: C_29  and  C_30
REMARK   10  A    between atoms: C_33  and  C_34
REMARK                            x       y       z     vdW  Elec       q    Type
REMARK                         _______ _______ _______ _____ _____    ______ ____
ROOT
ATOM      1  O   LIG A   1      -9.710  -2.301 123.283  0.00  0.00    -0.284 OA
ATOM      2  C   LIG A   1      -9.234  -1.433 124.010  0.00  0.00    +0.221 C 
ATOM      3  C   LIG A   1      -9.365   0.006 123.632  0.00  0.00    +0.167 C 
ATOM      4  C   LIG A   1      -8.943   0.977 124.466  0.00  0.00    +0.002 C 
ATOM      5  C   LIG A   1      -9.041   2.433 124.095  0.00  0.00    +0.048 C 
ATOM      6  C   LIG A   1      -8.419   0.591 125.786  0.00  0.00    -0.014 C 
ATOM      7  C   LIG A   1      -8.282   1.481 126.791  0.00  0.00    +0.009 C 
ATOM      8  C   LIG A   1      -8.009   1.075 128.158  0.00  0.00    +0.005 C 
ATOM      9  C   LIG A   1      -7.653  -0.185 128.496  0.00  0.00    -0.034 C 
ATOM     10  C   LIG A   1      -7.631  -0.692 129.905  0.00  0.00    -0.038 C 
ATOM     11  C   LIG A   1      -8.156  -0.047 130.991  0.00  0.00    -0.068 C 
ATOM     12  C   LIG A   1      -9.112   1.130 130.979  0.00  0.00    +0.039 C 
ATOM     13  C   LIG A   1      -7.897  -0.465 132.442  0.00  0.00    +0.038 C 
ATOM     14  C   LIG A   1      -6.858  -1.580 132.732  0.00  0.00    -0.018 C 
ATOM     15  C   LIG A   1      -5.797  -1.052 133.727  0.00  0.00    +0.082 C 
ATOM     16  C   LIG A   1      -4.750  -2.109 134.026  0.00  0.00    +0.150 C 
ATOM     17  C   LIG A   1      -4.080  -2.794 132.833  0.00  0.00    +0.123 C 
ATOM     18  C   LIG A   1      -2.989  -1.826 132.337  0.00  0.00    +0.031 C 
ATOM     19  C   LIG A   1      -5.100  -3.110 131.699  0.00  0.00    +0.030 C 
ATOM     20  O   LIG A   1      -4.386  -2.286 135.189  0.00  0.00    -0.296 OA
ATOM     21  C   LIG A   1      -7.582  -2.746 133.467  0.00  0.00    +0.012 C 
ATOM     22  C   LIG A   1      -6.099  -1.965 131.429  0.00  0.00    +0.007 C 
ATOM     23  C   LIG A   1      -7.039  -2.108 130.175  0.00  0.00    -0.003 C 
ATOM     24  C   LIG A   1      -8.224  -3.086 130.418  0.00  0.00    +0.016 C 
ATOM     25  C   LIG A   1      -6.244  -2.692 128.986  0.00  0.00    +0.013 C 
ATOM     26  C   LIG A   1      -6.973  -2.519 127.661  0.00  0.00    +0.017 C 
ATOM     27  C   LIG A   1      -7.132  -1.032 127.301  0.00  0.00    +0.019 C 
ATOM     28  C   LIG A   1      -5.703  -0.517 126.911  0.00  0.00    +0.021 C 
ATOM     29  C   LIG A   1      -8.033  -0.811 126.059  0.00  0.00    -0.026 C 
ATOM     30  C   LIG A   1      -8.460  -1.772 125.222  0.00  0.00    +0.059 C 
ENDROOT
BRANCH   3  31
ATOM     31  O   LIG A   1      -9.947   0.275 122.406  0.00  0.00    -0.503 OA
ATOM     32  H   LIG A   1      -9.498  -0.330 121.777  0.00  0.00    +0.292 HD
ENDBRANCH   3  31
BRANCH  17  33
ATOM     33  C   LIG A   1      -3.439  -4.129 133.189  0.00  0.00    +0.320 C 
ATOM     34  O   LIG A   1      -2.231  -4.278 133.404  0.00  0.00    -0.250 OA
BRANCH  33  35
ATOM     35  O   LIG A   1      -4.326  -5.148 133.055  0.00  0.00    -0.467 OA
ATOM     36  C   LIG A   1      -4.622  -5.871 134.249  0.00  0.00    +0.280 C 
ENDBRANCH  33  35
ENDBRANCH  17  33
TORSDOF 3
ENDMDL
MODEL 4
REMARK VINA RESULT:      -8.6      6.920      8.740
REMARK  Name = NuBBE_258
REMARK  10 active torsions:
REMARK  status: ('A' for Active; 'I' for Inactive)
REMARK    1  A    between atoms: C_3  and  O_4
REMARK    2  A    between atoms: C_5  and  C_6
REMARK    3  A    between atoms: C_12  and  C_13
REMARK    4  A    between atoms: C_15  and  C_26
REMARK    5  A    between atoms: C_18  and  C_19
REMARK    6  A    between atoms: C_18  and  C_20
REMARK    7  A    between atoms: C_20  and  O_21
REMARK    8  A    between atoms: O_21  and  C_22
REMARK    9  A    between atoms: C_29  and  C_30
REMARK   10  A    between atoms: C_33  and  C_34
REMARK                            x       y       z     vdW  Elec       q    Type
REMARK                         _______ _______ _______ _____ _____    ______ ____
ROOT
ATOM      1  O   LIG A   1     -13.506   7.408 131.847  0.00  0.00    -0.284 OA
ATOM      2  C   LIG A   1     -12.450   7.175 131.266  0.00  0.00    +0.221 C 
ATOM      3  C   LIG A   1     -12.088   7.954 130.044  0.00  0.00    +0.167 C 
ATOM      4  C   LIG A   1     -10.889   7.788 129.453  0.00  0.00    +0.002 C 
ATOM      5  C   LIG A   1     -10.512   8.541 128.205  0.00  0.00    +0.048 C 
ATOM      6  C   LIG A   1      -9.916   6.878 130.081  0.00  0.00    -0.014 C 
ATOM      7  C   LIG A   1      -8.606   6.896 129.757  0.00  0.00    +0.009 C 
ATOM      8  C   LIG A   1      -7.602   6.192 130.535  0.00  0.00    +0.005 C 
ATOM      9  C   LIG A   1      -7.912   5.295 131.498  0.00  0.00    -0.034 C 
ATOM     10  C   LIG A   1      -6.921   4.765 132.488  0.00  0.00    -0.038 C 
ATOM     11  C   LIG A   1      -5.660   5.254 132.693  0.00  0.00    -0.068 C 
ATOM     12  C   LIG A   1      -5.108   6.580 132.209  0.00  0.00    +0.039 C 
ATOM     13  C   LIG A   1      -4.590   4.540 133.524  0.00  0.00    +0.038 C 
ATOM     14  C   LIG A   1      -4.869   3.104 134.040  0.00  0.00    -0.018 C 
ATOM     15  C   LIG A   1      -3.740   2.156 133.571  0.00  0.00    +0.082 C 
ATOM     16  C   LIG A   1      -3.983   0.735 134.043  0.00  0.00    +0.150 C 
ATOM     17  C   LIG A   1      -5.356   0.123 133.757  0.00  0.00    +0.123 C 
ATOM     18  C   LIG A   1      -5.321  -0.350 132.292  0.00  0.00    +0.031 C 
ATOM     19  C   LIG A   1      -6.506   1.150 133.983  0.00  0.00    +0.030 C 
ATOM     20  O   LIG A   1      -3.048   0.087 134.515  0.00  0.00    -0.296 OA
ATOM     21  C   LIG A   1      -4.788   3.118 135.595  0.00  0.00    +0.012 C 
ATOM     22  C   LIG A   1      -6.194   2.558 133.433  0.00  0.00    +0.007 C 
ATOM     23  C   LIG A   1      -7.365   3.609 133.436  0.00  0.00    -0.003 C 
ATOM     24  C   LIG A   1      -7.626   4.216 134.844  0.00  0.00    +0.016 C 
ATOM     25  C   LIG A   1      -8.685   2.926 133.016  0.00  0.00    +0.013 C 
ATOM     26  C   LIG A   1      -9.766   3.933 132.646  0.00  0.00    +0.017 C 
ATOM     27  C   LIG A   1      -9.365   4.751 131.406  0.00  0.00    +0.019 C 
ATOM     28  C   LIG A   1      -9.455   3.773 130.184  0.00  0.00    +0.021 C 
ATOM     29  C   LIG A   1     -10.350   5.912 131.113  0.00  0.00    -0.026 C 
ATOM     30  C   LIG A   1     -11.548   6.087 131.697  0.00  0.00    +0.059 C 
ENDROOT
BRANCH   3  31
ATOM     31  O   LIG A   1     -13.035   8.847 129.574  0.00  0.00    -0.503 OA
ATOM     32  H   LIG A   1     -13.299   8.492 128.698  0.00  0.00    +0.292 HD
ENDBRANCH   3  31
BRANCH  17  33
ATOM     33  C   LIG A   1      -5.684  -1.062 134.656  0.00  0.00    +0.320 C 
ATOM     34  O   LIG A   1      -5.485  -2.241 134.344  0.00  0.00    -0.250 OA
BRANCH  33  35
ATOM     35  O   LIG A   1      -6.387  -0.666 135.748  0.00  0.00    -0.467 OA
ATOM     36  C   LIG A   1      -5.833  -1.037 137.009  0.00  0.00    +0.280 C 
ENDBRANCH  33  35
ENDBRANCH  17  33
TORSDOF 3
ENDMDL
MODEL 5
REMARK VINA RESULT:      -8.4      4.076      7.568
REMARK  Name = NuBBE_258
REMARK  10 active torsions:
REMARK  status: ('A' for Active; 'I' for Inactive)
REMARK    1  A    between atoms: C_3  and  O_4
REMARK    2  A    between atoms: C_5  and  C_6
REMARK    3  A    between atoms: C_12  and  C_13
REMARK    4  A    between atoms: C_15  and  C_26
REMARK    5  A    between atoms: C_18  and  C_19
REMARK    6  A    between atoms: C_18  and  C_20
REMARK    7  A    between atoms: C_20  and  O_21
REMARK    8  A    between atoms: O_21  and  C_22
REMARK    9  A    between atoms: C_29  and  C_30
REMARK   10  A    between atoms: C_33  and  C_34
REMARK                            x       y       z     vdW  Elec       q    Type
REMARK                         _______ _______ _______ _____ _____    ______ ____
ROOT
ATOM      1  O   LIG A   1      -4.107   8.104 129.215  0.00  0.00    -0.284 OA
ATOM      2  C   LIG A   1      -3.825   6.949 129.524  0.00  0.00    +0.221 C 
ATOM      3  C   LIG A   1      -3.019   6.685 130.752  0.00  0.00    +0.167 C 
ATOM      4  C   LIG A   1      -2.788   5.423 131.166  0.00  0.00    +0.002 C 
ATOM      5  C   LIG A   1      -1.956   5.132 132.386  0.00  0.00    +0.048 C 
ATOM      6  C   LIG A   1      -3.410   4.316 130.422  0.00  0.00    -0.014 C 
ATOM      7  C   LIG A   1      -3.507   3.072 130.936  0.00  0.00    +0.009 C 
ATOM      8  C   LIG A   1      -4.331   2.041 130.331  0.00  0.00    +0.005 C 
ATOM      9  C   LIG A   1      -4.883   2.166 129.103  0.00  0.00    -0.034 C 
ATOM     10  C   LIG A   1      -5.944   1.250 128.573  0.00  0.00    -0.038 C 
ATOM     11  C   LIG A   1      -6.636   0.325 129.306  0.00  0.00    -0.068 C 
ATOM     12  C   LIG A   1      -6.709   0.229 130.817  0.00  0.00    +0.039 C 
ATOM     13  C   LIG A   1      -7.525  -0.760 128.692  0.00  0.00    +0.038 C 
ATOM     14  C   LIG A   1      -7.534  -0.948 127.153  0.00  0.00    -0.018 C 
ATOM     15  C   LIG A   1      -7.186  -2.416 126.808  0.00  0.00    +0.082 C 
ATOM     16  C   LIG A   1      -7.168  -2.638 125.307  0.00  0.00    +0.150 C 
ATOM     17  C   LIG A   1      -6.336  -1.672 124.461  0.00  0.00    +0.123 C 
ATOM     18  C   LIG A   1      -4.876  -2.152 124.569  0.00  0.00    +0.031 C 
ATOM     19  C   LIG A   1      -6.475  -0.202 124.956  0.00  0.00    +0.030 C 
ATOM     20  O   LIG A   1      -7.706  -3.643 124.839  0.00  0.00    -0.296 OA
ATOM     21  C   LIG A   1      -8.987  -0.728 126.640  0.00  0.00    +0.012 C 
ATOM     22  C   LIG A   1      -6.439  -0.061 126.493  0.00  0.00    +0.007 C 
ATOM     23  C   LIG A   1      -6.374   1.397 127.082  0.00  0.00    -0.003 C 
ATOM     24  C   LIG A   1      -7.749   2.122 127.048  0.00  0.00    +0.016 C 
ATOM     25  C   LIG A   1      -5.415   2.264 126.236  0.00  0.00    +0.013 C 
ATOM     26  C   LIG A   1      -5.023   3.554 126.944  0.00  0.00    +0.017 C 
ATOM     27  C   LIG A   1      -4.223   3.266 128.225  0.00  0.00    +0.019 C 
ATOM     28  C   LIG A   1      -2.815   2.755 127.762  0.00  0.00    +0.021 C 
ATOM     29  C   LIG A   1      -3.971   4.540 129.072  0.00  0.00    -0.026 C 
ATOM     30  C   LIG A   1      -4.198   5.803 128.669  0.00  0.00    +0.059 C 
ENDROOT
BRANCH   3  31
ATOM     31  O   LIG A   1      -2.545   7.792 131.434  0.00  0.00    -0.503 OA
ATOM     32  H   LIG A   1      -1.770   7.462 131.938  0.00  0.00    +0.292 HD
ENDBRANCH   3  31
BRANCH  17  33
ATOM     33  C   LIG A   1      -6.748  -1.650 122.995  0.00  0.00    +0.320 C 
ATOM     34  O   LIG A   1      -6.093  -2.173 122.086  0.00  0.00    -0.250 OA
BRANCH  33  35
ATOM     35  O   LIG A   1      -7.812  -0.830 122.799  0.00  0.00    -0.467 OA
ATOM     36  C   LIG A   1      -9.071  -1.481 122.628  0.00  0.00    +0.280 C 
ENDBRANCH  33  35
ENDBRANCH  17  33
TORSDOF 3
ENDMDL
MODEL 6
REMARK VINA RESULT:      -8.2      2.092      4.459
REMARK  Name = NuBBE_258
REMARK  10 active torsions:
REMARK  status: ('A' for Active; 'I' for Inactive)
REMARK    1  A    between atoms: C_3  and  O_4
REMARK    2  A    between atoms: C_5  and  C_6
REMARK    3  A    between atoms: C_12  and  C_13
REMARK    4  A    between atoms: C_15  and  C_26
REMARK    5  A    between atoms: C_18  and  C_19
REMARK    6  A    between atoms: C_18  and  C_20
REMARK    7  A    between atoms: C_20  and  O_21
REMARK    8  A    between atoms: O_21  and  C_22
REMARK    9  A    between atoms: C_29  and  C_30
REMARK   10  A    between atoms: C_33  and  C_34
REMARK                            x       y       z     vdW  Elec       q    Type
REMARK                         _______ _______ _______ _____ _____    ______ ____
ROOT
ATOM      1  O   LIG A   1      -9.350   2.577 122.082  0.00  0.00    -0.284 OA
ATOM      2  C   LIG A   1      -8.333   2.708 122.758  0.00  0.00    +0.221 C 
ATOM      3  C   LIG A   1      -7.168   3.463 122.208  0.00  0.00    +0.167 C 
ATOM      4  C   LIG A   1      -6.085   3.707 122.971  0.00  0.00    +0.002 C 
ATOM      5  C   LIG A   1      -4.887   4.442 122.430  0.00  0.00    +0.048 C 
ATOM      6  C   LIG A   1      -6.106   3.279 124.379  0.00  0.00    -0.014 C 
ATOM      7  C   LIG A   1      -5.229   3.756 125.287  0.00  0.00    +0.009 C 
ATOM      8  C   LIG A   1      -5.391   3.541 126.714  0.00  0.00    +0.005 C 
ATOM      9  C   LIG A   1      -6.291   2.674 127.231  0.00  0.00    -0.034 C 
ATOM     10  C   LIG A   1      -6.665   2.632 128.681  0.00  0.00    -0.038 C 
ATOM     11  C   LIG A   1      -6.326   3.570 129.618  0.00  0.00    -0.068 C 
ATOM     12  C   LIG A   1      -5.786   4.962 129.359  0.00  0.00    +0.039 C 
ATOM     13  C   LIG A   1      -6.504   3.375 131.126  0.00  0.00    +0.038 C 
ATOM     14  C   LIG A   1      -6.939   1.985 131.661  0.00  0.00    -0.018 C 
ATOM     15  C   LIG A   1      -5.913   1.490 132.710  0.00  0.00    +0.082 C 
ATOM     16  C   LIG A   1      -6.293   0.124 133.248  0.00  0.00    +0.150 C 
ATOM     17  C   LIG A   1      -6.597  -0.976 132.228  0.00  0.00    +0.123 C 
ATOM     18  C   LIG A   1      -5.235  -1.519 131.759  0.00  0.00    +0.031 C 
ATOM     19  C   LIG A   1      -7.424  -0.435 131.023  0.00  0.00    +0.030 C 
ATOM     20  O   LIG A   1      -6.221  -0.089 134.459  0.00  0.00    -0.296 OA
ATOM     21  C   LIG A   1      -8.281   2.154 132.432  0.00  0.00    +0.012 C 
ATOM     22  C   LIG A   1      -6.943   0.939 130.510  0.00  0.00    +0.007 C 
ATOM     23  C   LIG A   1      -7.584   1.475 129.177  0.00  0.00    -0.003 C 
ATOM     24  C   LIG A   1      -9.012   2.054 129.386  0.00  0.00    +0.016 C 
ATOM     25  C   LIG A   1      -7.738   0.319 128.165  0.00  0.00    +0.013 C 
ATOM     26  C   LIG A   1      -8.004   0.818 126.751  0.00  0.00    +0.017 C 
ATOM     27  C   LIG A   1      -6.810   1.623 126.210  0.00  0.00    +0.019 C 
ATOM     28  C   LIG A   1      -5.666   0.587 125.936  0.00  0.00    +0.021 C 
ATOM     29  C   LIG A   1      -7.116   2.307 124.853  0.00  0.00    -0.026 C 
ATOM     30  C   LIG A   1      -8.194   2.071 124.084  0.00  0.00    +0.059 C 
ENDROOT
BRANCH   3  31
ATOM     31  O   LIG A   1      -7.272   3.898 120.899  0.00  0.00    -0.503 OA
ATOM     32  H   LIG A   1      -7.809   4.719 120.950  0.00  0.00    +0.292 HD
ENDBRANCH   3  31
BRANCH  17  33
ATOM     33  C   LIG A   1      -7.419  -2.120 132.806  0.00  0.00    +0.320 C 
ATOM     34  O   LIG A   1      -8.521  -1.974 133.347  0.00  0.00    -0.250 OA
BRANCH  33  35
ATOM     35  O   LIG A   1      -6.707  -3.276 132.818  0.00  0.00    -0.467 OA
ATOM     36  C   LIG A   1      -6.768  -4.029 134.028  0.00  0.00    +0.280 C 
ENDBRANCH  33  35
ENDBRANCH  17  33
TORSDOF 3
ENDMDL
MODEL 7
REMARK VINA RESULT:      -8.2      6.749     10.703
REMARK  Name = NuBBE_258
REMARK  10 active torsions:
REMARK  status: ('A' for Active; 'I' for Inactive)
REMARK    1  A    between atoms: C_3  and  O_4
REMARK    2  A    between atoms: C_5  and  C_6
REMARK    3  A    between atoms: C_12  and  C_13
REMARK    4  A    between atoms: C_15  and  C_26
REMARK    5  A    between atoms: C_18  and  C_19
REMARK    6  A    between atoms: C_18  and  C_20
REMARK    7  A    between atoms: C_20  and  O_21
REMARK    8  A    between atoms: O_21  and  C_22
REMARK    9  A    between atoms: C_29  and  C_30
REMARK   10  A    between atoms: C_33  and  C_34
REMARK                            x       y       z     vdW  Elec       q    Type
REMARK                         _______ _______ _______ _____ _____    ______ ____
ROOT
ATOM      1  O   LIG A   1      -1.574  10.908 132.316  0.00  0.00    -0.284 OA
ATOM      2  C   LIG A   1      -1.793   9.926 133.020  0.00  0.00    +0.221 C 
ATOM      3  C   LIG A   1      -1.133   9.808 134.354  0.00  0.00    +0.167 C 
ATOM      4  C   LIG A   1      -1.440   8.792 135.186  0.00  0.00    +0.002 C 
ATOM      5  C   LIG A   1      -0.768   8.637 136.524  0.00  0.00    +0.048 C 
ATOM      6  C   LIG A   1      -2.492   7.846 134.780  0.00  0.00    -0.014 C 
ATOM      7  C   LIG A   1      -3.085   7.012 135.661  0.00  0.00    +0.009 C 
ATOM      8  C   LIG A   1      -4.284   6.260 135.336  0.00  0.00    +0.005 C 
ATOM      9  C   LIG A   1      -4.772   6.159 134.078  0.00  0.00    -0.034 C 
ATOM     10  C   LIG A   1      -6.135   5.627 133.758  0.00  0.00    -0.038 C 
ATOM     11  C   LIG A   1      -7.127   5.380 134.667  0.00  0.00    -0.068 C 
ATOM     12  C   LIG A   1      -7.186   5.857 136.104  0.00  0.00    +0.039 C 
ATOM     13  C   LIG A   1      -8.408   4.606 134.344  0.00  0.00    +0.038 C 
ATOM     14  C   LIG A   1      -8.544   3.912 132.963  0.00  0.00    -0.018 C 
ATOM     15  C   LIG A   1      -8.855   2.410 133.166  0.00  0.00    +0.082 C 
ATOM     16  C   LIG A   1      -8.979   1.689 131.836  0.00  0.00    +0.150 C 
ATOM     17  C   LIG A   1      -7.846   1.875 130.825  0.00  0.00    +0.123 C 
ATOM     18  C   LIG A   1      -6.719   0.919 131.259  0.00  0.00    +0.031 C 
ATOM     19  C   LIG A   1      -7.340   3.348 130.787  0.00  0.00    +0.030 C 
ATOM     20  O   LIG A   1      -9.903   0.893 131.666  0.00  0.00    -0.296 OA
ATOM     21  C   LIG A   1      -9.787   4.505 132.236  0.00  0.00    +0.012 C 
ATOM     22  C   LIG A   1      -7.199   3.990 132.184  0.00  0.00    +0.007 C 
ATOM     23  C   LIG A   1      -6.511   5.403 132.261  0.00  0.00    -0.003 C 
ATOM     24  C   LIG A   1      -7.455   6.559 131.826  0.00  0.00    +0.016 C 
ATOM     25  C   LIG A   1      -5.304   5.454 131.298  0.00  0.00    +0.013 C 
ATOM     26  C   LIG A   1      -4.385   6.635 131.582  0.00  0.00    +0.017 C 
ATOM     27  C   LIG A   1      -3.739   6.517 132.973  0.00  0.00    +0.019 C 
ATOM     28  C   LIG A   1      -2.690   5.355 132.876  0.00  0.00    +0.021 C 
ATOM     29  C   LIG A   1      -2.950   7.789 133.375  0.00  0.00    -0.026 C 
ATOM     30  C   LIG A   1      -2.639   8.808 132.554  0.00  0.00    +0.059 C 
ENDROOT
BRANCH   3  31
ATOM     31  O   LIG A   1      -0.217  10.791 134.684  0.00  0.00    -0.503 OA
ATOM     32  H   LIG A   1      -0.094  10.703 135.654  0.00  0.00    +0.292 HD
ENDBRANCH   3  31
BRANCH  17  33
ATOM     33  C   LIG A   1      -8.257   1.547 129.396  0.00  0.00    +0.320 C 
ATOM     34  O   LIG A   1      -9.001   2.259 128.711  0.00  0.00    -0.250 OA
BRANCH  33  35
ATOM     35  O   LIG A   1      -7.857   0.297 129.047  0.00  0.00    -0.467 OA
ATOM     36  C   LIG A   1      -7.827   0.025 127.647  0.00  0.00    +0.280 C 
ENDBRANCH  33  35
ENDBRANCH  17  33
TORSDOF 3
ENDMDL
MODEL 8
REMARK VINA RESULT:      -8.1      2.306      4.879
REMARK  Name = NuBBE_258
REMARK  10 active torsions:
REMARK  status: ('A' for Active; 'I' for Inactive)
REMARK    1  A    between atoms: C_3  and  O_4
REMARK    2  A    between atoms: C_5  and  C_6
REMARK    3  A    between atoms: C_12  and  C_13
REMARK    4  A    between atoms: C_15  and  C_26
REMARK    5  A    between atoms: C_18  and  C_19
REMARK    6  A    between atoms: C_18  and  C_20
REMARK    7  A    between atoms: C_20  and  O_21
REMARK    8  A    between atoms: O_21  and  C_22
REMARK    9  A    between atoms: C_29  and  C_30
REMARK   10  A    between atoms: C_33  and  C_34
REMARK                            x       y       z     vdW  Elec       q    Type
REMARK                         _______ _______ _______ _____ _____    ______ ____
ROOT
ATOM      1  O   LIG A   1     -10.151   1.971 123.350  0.00  0.00    -0.284 OA
ATOM      2  C   LIG A   1      -8.995   2.047 123.758  0.00  0.00    +0.221 C 
ATOM      3  C   LIG A   1      -8.020   2.938 123.063  0.00  0.00    +0.167 C 
ATOM      4  C   LIG A   1      -6.779   3.116 123.557  0.00  0.00    +0.002 C 
ATOM      5  C   LIG A   1      -5.769   3.988 122.859  0.00  0.00    +0.048 C 
ATOM      6  C   LIG A   1      -6.431   2.472 124.834  0.00  0.00    -0.014 C 
ATOM      7  C   LIG A   1      -5.354   2.845 125.555  0.00  0.00    +0.009 C 
ATOM      8  C   LIG A   1      -5.139   2.401 126.921  0.00  0.00    +0.005 C 
ATOM      9  C   LIG A   1      -5.867   1.418 127.499  0.00  0.00    -0.034 C 
ATOM     10  C   LIG A   1      -5.853   1.131 128.969  0.00  0.00    -0.038 C 
ATOM     11  C   LIG A   1      -5.293   1.927 129.931  0.00  0.00    -0.068 C 
ATOM     12  C   LIG A   1      -4.852   3.368 129.777  0.00  0.00    +0.039 C 
ATOM     13  C   LIG A   1      -5.073   1.488 131.381  0.00  0.00    +0.038 C 
ATOM     14  C   LIG A   1      -5.340   0.011 131.773  0.00  0.00    -0.018 C 
ATOM     15  C   LIG A   1      -4.074  -0.588 132.431  0.00  0.00    +0.082 C 
ATOM     16  C   LIG A   1      -4.289  -2.040 132.815  0.00  0.00    +0.150 C 
ATOM     17  C   LIG A   1      -4.835  -2.980 131.738  0.00  0.00    +0.123 C 
ATOM     18  C   LIG A   1      -3.634  -3.371 130.857  0.00  0.00    +0.031 C 
ATOM     19  C   LIG A   1      -5.950  -2.301 130.888  0.00  0.00    +0.030 C 
ATOM     20  O   LIG A   1      -3.904  -2.437 133.915  0.00  0.00    -0.296 OA
ATOM     21  C   LIG A   1      -6.439  -0.013 132.875  0.00  0.00    +0.012 C 
ATOM     22  C   LIG A   1      -5.632  -0.841 130.504  0.00  0.00    +0.007 C 
ATOM     23  C   LIG A   1      -6.601  -0.136 129.484  0.00  0.00    -0.003 C 
ATOM     24  C   LIG A   1      -7.933   0.328 130.141  0.00  0.00    +0.016 C 
ATOM     25  C   LIG A   1      -7.000  -1.126 128.367  0.00  0.00    +0.013 C 
ATOM     26  C   LIG A   1      -7.627  -0.425 127.169  0.00  0.00    +0.017 C 
ATOM     27  C   LIG A   1      -6.621   0.515 126.484  0.00  0.00    +0.019 C 
ATOM     28  C   LIG A   1      -5.577  -0.405 125.762  0.00  0.00    +0.021 C 
ATOM     29  C   LIG A   1      -7.275   1.387 125.381  0.00  0.00    -0.026 C 
ATOM     30  C   LIG A   1      -8.512   1.218 124.882  0.00  0.00    +0.059 C 
ENDROOT
BRANCH   3  31
ATOM     31  O   LIG A   1      -8.463   3.568 121.914  0.00  0.00    -0.503 OA
ATOM     32  H   LIG A   1      -8.303   2.919 121.195  0.00  0.00    +0.292 HD
ENDBRANCH   3  31
BRANCH  17  33
ATOM     33  C   LIG A   1      -5.468  -4.243 132.309  0.00  0.00    +0.320 C 
ATOM     34  O   LIG A   1      -5.072  -5.387 132.059  0.00  0.00    -0.250 OA
BRANCH  33  35
ATOM     35  O   LIG A   1      -6.622  -3.957 132.965  0.00  0.00    -0.467 OA
ATOM     36  C   LIG A   1      -6.733  -4.491 134.283  0.00  0.00    +0.280 C 
ENDBRANCH  33  35
ENDBRANCH  17  33
TORSDOF 3
ENDMDL
MODEL 9
REMARK VINA RESULT:      -8.1      3.811      6.861
REMARK  Name = NuBBE_258
REMARK  10 active torsions:
REMARK  status: ('A' for Active; 'I' for Inactive)
REMARK    1  A    between atoms: C_3  and  O_4
REMARK    2  A    between atoms: C_5  and  C_6
REMARK    3  A    between atoms: C_12  and  C_13
REMARK    4  A    between atoms: C_15  and  C_26
REMARK    5  A    between atoms: C_18  and  C_19
REMARK    6  A    between atoms: C_18  and  C_20
REMARK    7  A    between atoms: C_20  and  O_21
REMARK    8  A    between atoms: O_21  and  C_22
REMARK    9  A    between atoms: C_29  and  C_30
REMARK   10  A    between atoms: C_33  and  C_34
REMARK                            x       y       z     vdW  Elec       q    Type
REMARK                         _______ _______ _______ _____ _____    ______ ____
ROOT
ATOM      1  O   LIG A   1      -9.038   1.660 125.789  0.00  0.00    -0.284 OA
ATOM      2  C   LIG A   1      -8.400   0.635 126.019  0.00  0.00    +0.221 C 
ATOM      3  C   LIG A   1      -7.800  -0.134 124.889  0.00  0.00    +0.167 C 
ATOM      4  C   LIG A   1      -7.009  -1.199 125.125  0.00  0.00    +0.002 C 
ATOM      5  C   LIG A   1      -6.415  -2.007 124.002  0.00  0.00    +0.048 C 
ATOM      6  C   LIG A   1      -6.691  -1.542 126.521  0.00  0.00    -0.014 C 
ATOM      7  C   LIG A   1      -5.672  -2.366 126.843  0.00  0.00    +0.009 C 
ATOM      8  C   LIG A   1      -5.190  -2.514 128.205  0.00  0.00    +0.005 C 
ATOM      9  C   LIG A   1      -5.851  -2.022 129.277  0.00  0.00    -0.034 C 
ATOM     10  C   LIG A   1      -5.251  -1.922 130.646  0.00  0.00    -0.038 C 
ATOM     11  C   LIG A   1      -3.930  -2.104 130.952  0.00  0.00    -0.068 C 
ATOM     12  C   LIG A   1      -2.766  -2.140 129.982  0.00  0.00    +0.039 C 
ATOM     13  C   LIG A   1      -3.395  -2.245 132.380  0.00  0.00    +0.038 C 
ATOM     14  C   LIG A   1      -4.401  -2.352 133.556  0.00  0.00    -0.018 C 
ATOM     15  C   LIG A   1      -4.112  -3.637 134.369  0.00  0.00    +0.082 C 
ATOM     16  C   LIG A   1      -5.086  -3.789 135.522  0.00  0.00    +0.150 C 
ATOM     17  C   LIG A   1      -6.578  -3.675 135.204  0.00  0.00    +0.123 C 
ATOM     18  C   LIG A   1      -7.004  -5.043 134.638  0.00  0.00    +0.031 C 
ATOM     19  C   LIG A   1      -6.866  -2.537 134.180  0.00  0.00    +0.030 C 
ATOM     20  O   LIG A   1      -4.662  -4.121 136.630  0.00  0.00    -0.296 OA
ATOM     21  C   LIG A   1      -4.141  -1.168 134.534  0.00  0.00    +0.012 C 
ATOM     22  C   LIG A   1      -5.854  -2.481 133.016  0.00  0.00    +0.007 C 
ATOM     23  C   LIG A   1      -6.172  -1.497 131.830  0.00  0.00    -0.003 C 
ATOM     24  C   LIG A   1      -5.854  -0.014 132.177  0.00  0.00    +0.016 C 
ATOM     25  C   LIG A   1      -7.680  -1.542 131.499  0.00  0.00    +0.013 C 
ATOM     26  C   LIG A   1      -7.996  -0.908 130.151  0.00  0.00    +0.017 C 
ATOM     27  C   LIG A   1      -7.343  -1.691 128.999  0.00  0.00    +0.019 C 
ATOM     28  C   LIG A   1      -8.137  -3.037 128.875  0.00  0.00    +0.021 C 
ATOM     29  C   LIG A   1      -7.483  -0.971 127.633  0.00  0.00    -0.026 C 
ATOM     30  C   LIG A   1      -8.268   0.092 127.386  0.00  0.00    +0.059 C 
ENDROOT
BRANCH   3  31
ATOM     31  O   LIG A   1      -8.088   0.312 123.611  0.00  0.00    -0.503 OA
ATOM     32  H   LIG A   1      -8.604   1.137 123.744  0.00  0.00    +0.292 HD
ENDBRANCH   3  31
BRANCH  17  33
ATOM     33  C   LIG A   1      -7.429  -3.352 136.424  0.00  0.00    +0.320 C 
ATOM     34  O   LIG A   1      -8.165  -4.169 136.989  0.00  0.00    -0.250 OA
BRANCH  33  35
ATOM     35  O   LIG A   1      -7.419  -2.020 136.688  0.00  0.00    -0.467 OA
ATOM     36  C   LIG A   1      -7.007  -1.653 138.004  0.00  0.00    +0.280 C 
ENDBRANCH  33  35
ENDBRANCH  17  33
TORSDOF 3
ENDMDL
