MODEL 1
REMARK VINA RESULT:      -5.2      0.000      0.000
REMARK  Name = NuBBE_1253
REMARK  7 active torsions:
REMARK  status: ('A' for Active; 'I' for Inactive)
REMARK    1  A    between atoms: C_2  and  C_3
REMARK    2  A    between atoms: C_4  and  O_13
REMARK    3  A    between atoms: C_6  and  O_11
REMARK    4  A    between atoms: C_8  and  O_9
REMARK    5  A    between atoms: O_9  and  C_10
REMARK    6  A    between atoms: O_11  and  C_12
REMARK    7  A    between atoms: O_13  and  C_14
REMARK                            x       y       z     vdW  Elec       q    Type
REMARK                         _______ _______ _______ _____ _____    ______ ____
ROOT
ATOM      1  C   LIG A   1     -10.974   7.203 128.423  0.00  0.00    +0.098 A 
ATOM      2  C   LIG A   1      -9.994   6.347 128.977  0.00  0.00    +0.137 A 
ATOM      3  C   LIG A   1      -9.968   6.142 130.361  0.00  0.00    +0.092 A 
ATOM      4  C   LIG A   1     -10.922   6.728 131.187  0.00  0.00    +0.127 A 
ATOM      5  C   LIG A   1     -11.881   7.572 130.639  0.00  0.00    +0.092 A 
ATOM      6  C   LIG A   1     -11.907   7.837 129.265  0.00  0.00    +0.137 A 
ENDROOT
BRANCH   1   8
ATOM      7  O   LIG A   1     -11.706   6.845 126.155  0.00  0.00    -0.295 OA
ATOM      8  C   LIG A   1     -10.980   7.425 126.946  0.00  0.00    +0.266 C 
ENDBRANCH   1   8
BRANCH   6   9
ATOM      9  O   LIG A   1     -12.885   8.628 128.720  0.00  0.00    -0.494 OA
ATOM     10  C   LIG A   1     -13.117   9.888 129.346  0.00  0.00    +0.277 C 
ENDBRANCH   6   9
BRANCH   4  11
ATOM     11  O   LIG A   1     -10.812   6.428 132.518  0.00  0.00    -0.495 OA
ATOM     12  C   LIG A   1      -9.602   5.777 132.898  0.00  0.00    +0.277 C 
ENDBRANCH   4  11
BRANCH   2  13
ATOM     13  O   LIG A   1      -9.112   5.736 128.116  0.00  0.00    -0.494 OA
ATOM     14  C   LIG A   1      -8.352   4.644 128.633  0.00  0.00    +0.277 C 
ENDBRANCH   2  13
TORSDOF 4
ENDMDL
MODEL 2
REMARK VINA RESULT:      -5.0      7.780      9.544
REMARK  Name = NuBBE_1253
REMARK  7 active torsions:
REMARK  status: ('A' for Active; 'I' for Inactive)
REMARK    1  A    between atoms: C_2  and  C_3
REMARK    2  A    between atoms: C_4  and  O_13
REMARK    3  A    between atoms: C_6  and  O_11
REMARK    4  A    between atoms: C_8  and  O_9
REMARK    5  A    between atoms: O_9  and  C_10
REMARK    6  A    between atoms: O_11  and  C_12
REMARK    7  A    between atoms: O_13  and  C_14
REMARK                            x       y       z     vdW  Elec       q    Type
REMARK                         _______ _______ _______ _____ _____    ______ ____
ROOT
ATOM      1  C   LIG A   1      -5.694   4.229 121.878  0.00  0.00    +0.098 A 
ATOM      2  C   LIG A   1      -6.703   3.916 120.937  0.00  0.00    +0.137 A 
ATOM      3  C   LIG A   1      -7.875   3.288 121.373  0.00  0.00    +0.092 A 
ATOM      4  C   LIG A   1      -8.079   3.016 122.722  0.00  0.00    +0.127 A 
ATOM      5  C   LIG A   1      -7.084   3.321 123.643  0.00  0.00    +0.092 A 
ATOM      6  C   LIG A   1      -5.880   3.906 123.236  0.00  0.00    +0.137 A 
ENDROOT
BRANCH   1   8
ATOM      7  O   LIG A   1      -4.340   6.064 121.103  0.00  0.00    -0.295 OA
ATOM      8  C   LIG A   1      -4.443   4.884 121.396  0.00  0.00    +0.266 C 
ENDBRANCH   1   8
BRANCH   6   9
ATOM      9  O   LIG A   1      -4.921   4.254 124.152  0.00  0.00    -0.494 OA
ATOM     10  C   LIG A   1      -5.211   3.982 125.521  0.00  0.00    +0.277 C 
ENDBRANCH   6   9
BRANCH   4  11
ATOM     11  O   LIG A   1      -9.277   2.429 123.030  0.00  0.00    -0.495 OA
ATOM     12  C   LIG A   1      -9.413   1.997 124.382  0.00  0.00    +0.277 C 
ENDBRANCH   4  11
BRANCH   2  13
ATOM     13  O   LIG A   1      -6.488   4.263 119.623  0.00  0.00    -0.494 OA
ATOM     14  C   LIG A   1      -7.641   4.478 118.811  0.00  0.00    +0.277 C 
ENDBRANCH   2  13
TORSDOF 4
ENDMDL
MODEL 3
REMARK VINA RESULT:      -4.5      6.771      8.664
REMARK  Name = NuBBE_1253
REMARK  7 active torsions:
REMARK  status: ('A' for Active; 'I' for Inactive)
REMARK    1  A    between atoms: C_2  and  C_3
REMARK    2  A    between atoms: C_4  and  O_13
REMARK    3  A    between atoms: C_6  and  O_11
REMARK    4  A    between atoms: C_8  and  O_9
REMARK    5  A    between atoms: O_9  and  C_10
REMARK    6  A    between atoms: O_11  and  C_12
REMARK    7  A    between atoms: O_13  and  C_14
REMARK                            x       y       z     vdW  Elec       q    Type
REMARK                         _______ _______ _______ _____ _____    ______ ____
ROOT
ATOM      1  C   LIG A   1      -9.312   0.326 124.266  0.00  0.00    +0.098 A 
ATOM      2  C   LIG A   1      -9.031  -1.040 124.504  0.00  0.00    +0.137 A 
ATOM      3  C   LIG A   1      -8.475  -1.420 125.731  0.00  0.00    +0.092 A 
ATOM      4  C   LIG A   1      -8.245  -0.481 126.732  0.00  0.00    +0.127 A 
ATOM      5  C   LIG A   1      -8.518   0.861 126.492  0.00  0.00    +0.092 A 
ATOM      6  C   LIG A   1      -9.030   1.283 125.260  0.00  0.00    +0.137 A 
ENDROOT
BRANCH   1   8
ATOM      7  O   LIG A   1     -11.044   0.528 122.604  0.00  0.00    -0.295 OA
ATOM      8  C   LIG A   1      -9.889   0.719 122.947  0.00  0.00    +0.266 C 
ENDBRANCH   1   8
BRANCH   6   9
ATOM      9  O   LIG A   1      -9.348   2.599 125.043  0.00  0.00    -0.494 OA
ATOM     10  C   LIG A   1      -8.259   3.511 124.917  0.00  0.00    +0.277 C 
ENDBRANCH   6   9
BRANCH   4  11
ATOM     11  O   LIG A   1      -7.729  -0.978 127.898  0.00  0.00    -0.495 OA
ATOM     12  C   LIG A   1      -7.849  -2.389 128.064  0.00  0.00    +0.277 C 
ENDBRANCH   4  11
BRANCH   2  13
ATOM     13  O   LIG A   1      -9.336  -1.943 123.512  0.00  0.00    -0.494 OA
ATOM     14  C   LIG A   1      -9.341  -3.324 123.871  0.00  0.00    +0.277 C 
ENDBRANCH   2  13
TORSDOF 4
ENDMDL
MODEL 4
REMARK VINA RESULT:      -4.5      2.224      4.250
REMARK  Name = NuBBE_1253
REMARK  7 active torsions:
REMARK  status: ('A' for Active; 'I' for Inactive)
REMARK    1  A    between atoms: C_2  and  C_3
REMARK    2  A    between atoms: C_4  and  O_13
REMARK    3  A    between atoms: C_6  and  O_11
REMARK    4  A    between atoms: C_8  and  O_9
REMARK    5  A    between atoms: O_9  and  C_10
REMARK    6  A    between atoms: O_11  and  C_12
REMARK    7  A    between atoms: O_13  and  C_14
REMARK                            x       y       z     vdW  Elec       q    Type
REMARK                         _______ _______ _______ _____ _____    ______ ____
ROOT
ATOM      1  C   LIG A   1      -9.435   6.863 130.669  0.00  0.00    +0.098 A 
ATOM      2  C   LIG A   1     -10.479   6.196 131.352  0.00  0.00    +0.137 A 
ATOM      3  C   LIG A   1     -10.178   5.445 132.495  0.00  0.00    +0.092 A 
ATOM      4  C   LIG A   1      -8.879   5.391 132.991  0.00  0.00    +0.127 A 
ATOM      5  C   LIG A   1      -7.856   6.045 132.314  0.00  0.00    +0.092 A 
ATOM      6  C   LIG A   1      -8.113   6.766 131.143  0.00  0.00    +0.137 A 
ENDROOT
BRANCH   1   8
ATOM      7  O   LIG A   1      -9.829   7.187 128.314  0.00  0.00    -0.295 OA
ATOM      8  C   LIG A   1      -9.769   7.647 129.443  0.00  0.00    +0.266 C 
ENDBRANCH   1   8
BRANCH   6   9
ATOM      9  O   LIG A   1      -7.112   7.453 130.505  0.00  0.00    -0.494 OA
ATOM     10  C   LIG A   1      -5.774   7.117 130.861  0.00  0.00    +0.277 C 
ENDBRANCH   6   9
BRANCH   4  11
ATOM     11  O   LIG A   1      -8.715   4.652 134.132  0.00  0.00    -0.495 OA
ATOM     12  C   LIG A   1      -7.759   5.165 135.057  0.00  0.00    +0.277 C 
ENDBRANCH   4  11
BRANCH   2  13
ATOM     13  O   LIG A   1     -11.758   6.331 130.865  0.00  0.00    -0.494 OA
ATOM     14  C   LIG A   1     -12.615   7.254 131.536  0.00  0.00    +0.277 C 
ENDBRANCH   2  13
TORSDOF 4
ENDMDL
MODEL 5
REMARK VINA RESULT:      -4.5      8.851      9.734
REMARK  Name = NuBBE_1253
REMARK  7 active torsions:
REMARK  status: ('A' for Active; 'I' for Inactive)
REMARK    1  A    between atoms: C_2  and  C_3
REMARK    2  A    between atoms: C_4  and  O_13
REMARK    3  A    between atoms: C_6  and  O_11
REMARK    4  A    between atoms: C_8  and  O_9
REMARK    5  A    between atoms: O_9  and  C_10
REMARK    6  A    between atoms: O_11  and  C_12
REMARK    7  A    between atoms: O_13  and  C_14
REMARK                            x       y       z     vdW  Elec       q    Type
REMARK                         _______ _______ _______ _____ _____    ______ ____
ROOT
ATOM      1  C   LIG A   1      -8.951   0.193 123.245  0.00  0.00    +0.098 A 
ATOM      2  C   LIG A   1      -8.724  -1.113 123.740  0.00  0.00    +0.137 A 
ATOM      3  C   LIG A   1      -7.572  -1.369 124.493  0.00  0.00    +0.092 A 
ATOM      4  C   LIG A   1      -6.679  -0.347 124.799  0.00  0.00    +0.127 A 
ATOM      5  C   LIG A   1      -6.903   0.934 124.307  0.00  0.00    +0.092 A 
ATOM      6  C   LIG A   1      -8.020   1.215 123.512  0.00  0.00    +0.137 A 
ENDROOT
BRANCH   1   8
ATOM      7  O   LIG A   1     -11.279   0.696 122.886  0.00  0.00    -0.295 OA
ATOM      8  C   LIG A   1     -10.175   0.447 122.430  0.00  0.00    +0.266 C 
ENDBRANCH   1   8
BRANCH   6   9
ATOM      9  O   LIG A   1      -8.267   2.489 123.070  0.00  0.00    -0.494 OA
ATOM     10  C   LIG A   1      -7.215   3.139 122.361  0.00  0.00    +0.277 C 
ENDBRANCH   6   9
BRANCH   4  11
ATOM     11  O   LIG A   1      -5.607  -0.712 125.569  0.00  0.00    -0.495 OA
ATOM     12  C   LIG A   1      -5.770  -1.923 126.303  0.00  0.00    +0.277 C 
ENDBRANCH   4  11
BRANCH   2  13
ATOM     13  O   LIG A   1      -9.666  -2.078 123.469  0.00  0.00    -0.494 OA
ATOM     14  C   LIG A   1      -9.312  -3.430 123.756  0.00  0.00    +0.277 C 
ENDBRANCH   2  13
TORSDOF 4
ENDMDL
MODEL 6
REMARK VINA RESULT:      -4.4      6.752      9.021
REMARK  Name = NuBBE_1253
REMARK  7 active torsions:
REMARK  status: ('A' for Active; 'I' for Inactive)
REMARK    1  A    between atoms: C_2  and  C_3
REMARK    2  A    between atoms: C_4  and  O_13
REMARK    3  A    between atoms: C_6  and  O_11
REMARK    4  A    between atoms: C_8  and  O_9
REMARK    5  A    between atoms: O_9  and  C_10
REMARK    6  A    between atoms: O_11  and  C_12
REMARK    7  A    between atoms: O_13  and  C_14
REMARK                            x       y       z     vdW  Elec       q    Type
REMARK                         _______ _______ _______ _____ _____    ______ ____
ROOT
ATOM      1  C   LIG A   1      -9.344   0.342 124.296  0.00  0.00    +0.098 A 
ATOM      2  C   LIG A   1      -9.069   1.302 125.298  0.00  0.00    +0.137 A 
ATOM      3  C   LIG A   1      -8.514   0.883 126.513  0.00  0.00    +0.092 A 
ATOM      4  C   LIG A   1      -8.186  -0.452 126.724  0.00  0.00    +0.127 A 
ATOM      5  C   LIG A   1      -8.462  -1.393 125.739  0.00  0.00    +0.092 A 
ATOM      6  C   LIG A   1      -9.059  -1.017 124.530  0.00  0.00    +0.137 A 
ENDROOT
BRANCH   1   8
ATOM      7  O   LIG A   1     -11.090   0.559 122.650  0.00  0.00    -0.295 OA
ATOM      8  C   LIG A   1      -9.950   0.801 123.011  0.00  0.00    +0.266 C 
ENDBRANCH   1   8
BRANCH   6   9
ATOM      9  O   LIG A   1      -9.283  -1.937 123.539  0.00  0.00    -0.494 OA
ATOM     10  C   LIG A   1      -9.339  -3.306 123.933  0.00  0.00    +0.277 C 
ENDBRANCH   6   9
BRANCH   4  11
ATOM     11  O   LIG A   1      -7.621  -0.734 127.938  0.00  0.00    -0.495 OA
ATOM     12  C   LIG A   1      -7.734  -2.091 128.362  0.00  0.00    +0.277 C 
ENDBRANCH   4  11
BRANCH   2  13
ATOM     13  O   LIG A   1      -9.348   2.621 125.021  0.00  0.00    -0.494 OA
ATOM     14  C   LIG A   1      -8.241   3.519 124.960  0.00  0.00    +0.277 C 
ENDBRANCH   2  13
TORSDOF 4
ENDMDL
MODEL 7
REMARK VINA RESULT:      -4.4      8.585     10.973
REMARK  Name = NuBBE_1253
REMARK  7 active torsions:
REMARK  status: ('A' for Active; 'I' for Inactive)
REMARK    1  A    between atoms: C_2  and  C_3
REMARK    2  A    between atoms: C_4  and  O_13
REMARK    3  A    between atoms: C_6  and  O_11
REMARK    4  A    between atoms: C_8  and  O_9
REMARK    5  A    between atoms: O_9  and  C_10
REMARK    6  A    between atoms: O_11  and  C_12
REMARK    7  A    between atoms: O_13  and  C_14
REMARK                            x       y       z     vdW  Elec       q    Type
REMARK                         _______ _______ _______ _____ _____    ______ ____
ROOT
ATOM      1  C   LIG A   1      -7.905  -0.919 125.009  0.00  0.00    +0.098 A 
ATOM      2  C   LIG A   1      -7.344  -2.084 125.582  0.00  0.00    +0.137 A 
ATOM      3  C   LIG A   1      -6.382  -2.805 124.865  0.00  0.00    +0.092 A 
ATOM      4  C   LIG A   1      -5.937  -2.360 123.624  0.00  0.00    +0.127 A 
ATOM      5  C   LIG A   1      -6.493  -1.217 123.062  0.00  0.00    +0.092 A 
ATOM      6  C   LIG A   1      -7.491  -0.499 123.730  0.00  0.00    +0.137 A 
ENDROOT
BRANCH   1   8
ATOM      7  O   LIG A   1     -10.132  -0.153 125.513  0.00  0.00    -0.295 OA
ATOM      8  C   LIG A   1      -8.942  -0.170 125.778  0.00  0.00    +0.266 C 
ENDBRANCH   1   8
BRANCH   6   9
ATOM      9  O   LIG A   1      -8.002   0.657 123.199  0.00  0.00    -0.494 OA
ATOM     10  C   LIG A   1      -7.135   1.787 123.164  0.00  0.00    +0.277 C 
ENDBRANCH   6   9
BRANCH   4  11
ATOM     11  O   LIG A   1      -4.971  -3.130 123.034  0.00  0.00    -0.495 OA
ATOM     12  C   LIG A   1      -4.591  -4.295 123.765  0.00  0.00    +0.277 C 
ENDBRANCH   4  11
BRANCH   2  13
ATOM     13  O   LIG A   1      -7.765  -2.451 126.840  0.00  0.00    -0.494 OA
ATOM     14  C   LIG A   1      -8.719  -3.509 126.922  0.00  0.00    +0.277 C 
ENDBRANCH   2  13
TORSDOF 4
ENDMDL
MODEL 8
REMARK VINA RESULT:      -4.3      8.506     10.379
REMARK  Name = NuBBE_1253
REMARK  7 active torsions:
REMARK  status: ('A' for Active; 'I' for Inactive)
REMARK    1  A    between atoms: C_2  and  C_3
REMARK    2  A    between atoms: C_4  and  O_13
REMARK    3  A    between atoms: C_6  and  O_11
REMARK    4  A    between atoms: C_8  and  O_9
REMARK    5  A    between atoms: O_9  and  C_10
REMARK    6  A    between atoms: O_11  and  C_12
REMARK    7  A    between atoms: O_13  and  C_14
REMARK                            x       y       z     vdW  Elec       q    Type
REMARK                         _______ _______ _______ _____ _____    ______ ____
ROOT
ATOM      1  C   LIG A   1      -8.060  -1.801 123.868  0.00  0.00    +0.098 A 
ATOM      2  C   LIG A   1      -6.754  -2.183 124.256  0.00  0.00    +0.137 A 
ATOM      3  C   LIG A   1      -5.926  -1.246 124.885  0.00  0.00    +0.092 A 
ATOM      4  C   LIG A   1      -6.389   0.033 125.176  0.00  0.00    +0.127 A 
ATOM      5  C   LIG A   1      -7.670   0.406 124.789  0.00  0.00    +0.092 A 
ATOM      6  C   LIG A   1      -8.509  -0.490 124.116  0.00  0.00    +0.137 A 
ENDROOT
BRANCH   1   8
ATOM      7  O   LIG A   1      -9.885  -3.363 123.691  0.00  0.00    -0.295 OA
ATOM      8  C   LIG A   1      -8.926  -2.806 123.183  0.00  0.00    +0.266 C 
ENDBRANCH   1   8
BRANCH   6   9
ATOM      9  O   LIG A   1      -9.791  -0.138 123.780  0.00  0.00    -0.494 OA
ATOM     10  C   LIG A   1      -9.941   0.877 122.790  0.00  0.00    +0.277 C 
ENDBRANCH   6   9
BRANCH   4  11
ATOM     11  O   LIG A   1      -5.498   0.848 125.821  0.00  0.00    -0.495 OA
ATOM     12  C   LIG A   1      -5.719   2.247 125.651  0.00  0.00    +0.277 C 
ENDBRANCH   4  11
BRANCH   2  13
ATOM     13  O   LIG A   1      -6.361  -3.478 124.009  0.00  0.00    -0.494 OA
ATOM     14  C   LIG A   1      -4.960  -3.719 123.890  0.00  0.00    +0.277 C 
ENDBRANCH   2  13
TORSDOF 4
ENDMDL
MODEL 9
REMARK VINA RESULT:      -4.3      7.491      9.373
REMARK  Name = NuBBE_1253
REMARK  7 active torsions:
REMARK  status: ('A' for Active; 'I' for Inactive)
REMARK    1  A    between atoms: C_2  and  C_3
REMARK    2  A    between atoms: C_4  and  O_13
REMARK    3  A    between atoms: C_6  and  O_11
REMARK    4  A    between atoms: C_8  and  O_9
REMARK    5  A    between atoms: O_9  and  C_10
REMARK    6  A    between atoms: O_11  and  C_12
REMARK    7  A    between atoms: O_13  and  C_14
REMARK                            x       y       z     vdW  Elec       q    Type
REMARK                         _______ _______ _______ _____ _____    ______ ____
ROOT
ATOM      1  C   LIG A   1      -7.664   2.561 124.189  0.00  0.00    +0.098 A 
ATOM      2  C   LIG A   1      -8.619   2.532 123.146  0.00  0.00    +0.137 A 
ATOM      3  C   LIG A   1      -8.291   3.082 121.901  0.00  0.00    +0.092 A 
ATOM      4  C   LIG A   1      -7.024   3.607 121.666  0.00  0.00    +0.127 A 
ATOM      5  C   LIG A   1      -6.089   3.637 122.694  0.00  0.00    +0.092 A 
ATOM      6  C   LIG A   1      -6.400   3.139 123.964  0.00  0.00    +0.137 A 
ENDROOT
BRANCH   1   8
ATOM      7  O   LIG A   1      -7.830   0.833 125.859  0.00  0.00    -0.295 OA
ATOM      8  C   LIG A   1      -8.034   1.986 125.516  0.00  0.00    +0.266 C 
ENDBRANCH   1   8
BRANCH   6   9
ATOM      9  O   LIG A   1      -5.460   3.122 124.963  0.00  0.00    -0.494 OA
ATOM     10  C   LIG A   1      -5.183   4.364 125.606  0.00  0.00    +0.277 C 
ENDBRANCH   6   9
BRANCH   4  11
ATOM     11  O   LIG A   1      -6.811   4.086 120.401  0.00  0.00    -0.495 OA
ATOM     12  C   LIG A   1      -5.546   4.707 120.190  0.00  0.00    +0.277 C 
ENDBRANCH   4  11
BRANCH   2  13
ATOM     13  O   LIG A   1      -9.836   1.944 123.403  0.00  0.00    -0.494 OA
ATOM     14  C   LIG A   1     -10.154   0.763 122.669  0.00  0.00    +0.277 C 
ENDBRANCH   2  13
TORSDOF 4
ENDMDL
