MODEL 1
REMARK VINA RESULT:      -7.2      0.000      0.000
REMARK  Name = NuBBE_236
REMARK  22 active torsions:
REMARK  status: ('A' for Active; 'I' for Inactive)
REMARK    1  A    between atoms: C_1  and  C_2
REMARK    2  A    between atoms: C_4  and  O_6
REMARK    3  A    between atoms: O_6  and  C_7
REMARK    4  A    between atoms: C_7  and  C_8
REMARK    5  A    between atoms: C_8  and  C_9
REMARK    6  A    between atoms: C_9  and  C_10
REMARK    7  A    between atoms: C_12  and  O_14
REMARK    8  A    between atoms: O_14  and  C_15
REMARK    9  A    between atoms: C_15  and  C_16
REMARK   10  A    between atoms: C_20  and  O_22
REMARK   11  A    between atoms: O_22  and  C_23
REMARK   12  A    between atoms: C_23  and  C_24
REMARK   13  A    between atoms: C_27  and  O_29
REMARK   14  A    between atoms: O_29  and  C_30
REMARK   15  A    between atoms: C_30  and  C_31
REMARK   16  A    between atoms: C_34  and  O_36
REMARK   17  A    between atoms: O_36  and  C_37
REMARK   18  A    between atoms: C_41  and  C_42
REMARK   19  A    between atoms: C_41  and  C_43
REMARK   20  A    between atoms: C_43  and  C_44
REMARK   21  A    between atoms: C_45  and  C_46
REMARK   22  A    between atoms: C_45  and  C_48
REMARK                            x       y       z     vdW  Elec       q    Type
REMARK                         _______ _______ _______ _____ _____    ______ ____
ROOT
ATOM      1  C   LIG A   1      -5.852   1.031 131.335  0.00  0.00    +0.012 C 
ATOM      2  C   LIG A   1      -5.458   2.465 131.759  0.00  0.00    +0.037 C 
ATOM      3  C   LIG A   1      -6.713   3.136 132.352  0.00  0.00    +0.221 C 
ATOM      4  C   LIG A   1      -7.729   3.402 131.218  0.00  0.00    +0.234 C 
ATOM      5  C   LIG A   1      -7.285   4.493 130.193  0.00  0.00    +0.104 C 
ATOM      6  C   LIG A   1      -7.659   5.911 130.623  0.00  0.00    +0.013 C 
ATOM      7  C   LIG A   1      -9.013   6.277 130.080  0.00  0.00    +0.343 C 
ATOM      8  O   LIG A   1      -9.194   5.434 128.939  0.00  0.00    -0.297 OA
ATOM      9  C   LIG A   1      -8.257   4.345 128.941  0.00  0.00    +0.328 C 
ATOM     10  C   LIG A   1      -6.794   6.828 131.090  0.00  0.00    +0.010 C 
ATOM     11  C   LIG A   1      -5.328   6.721 130.866  0.00  0.00    +0.141 C 
ATOM     12  C   LIG A   1      -5.124   5.771 129.667  0.00  0.00    +0.041 C 
ATOM     13  C   LIG A   1      -5.730   4.351 129.857  0.00  0.00    +0.018 C 
ATOM     14  C   LIG A   1      -4.736   3.342 130.664  0.00  0.00    -0.018 C 
ATOM     15  C   LIG A   1      -3.573   4.096 131.387  0.00  0.00    +0.012 C 
ENDROOT
BRANCH  11  16
ATOM     16  O   LIG A   1      -4.920   8.055 130.528  0.00  0.00    -0.376 OA
ATOM     17  C   LIG A   1      -3.755   8.121 129.726  0.00  0.00    +0.194 C 
ENDBRANCH  11  16
BRANCH   3  18
ATOM     18  O   LIG A   1      -6.461   4.340 133.107  0.00  0.00    -0.457 OA
BRANCH  18  19
ATOM     19  C   LIG A   1      -6.802   4.288 134.429  0.00  0.00    +0.307 C 
ATOM     20  O   LIG A   1      -7.929   4.073 134.859  0.00  0.00    -0.251 OA
BRANCH  19  21
ATOM     21  C   LIG A   1      -5.639   4.667 135.311  0.00  0.00    +0.120 C 
BRANCH  21  22
ATOM     22  C   LIG A   1      -5.233   3.475 136.178  0.00  0.00    +0.008 C 
ATOM     23  C   LIG A   1      -4.567   2.374 135.367  0.00  0.00    +0.004 C 
ENDBRANCH  21  22
ENDBRANCH  19  21
ENDBRANCH  18  19
ENDBRANCH   3  18
BRANCH   4  24
ATOM     24  O   LIG A   1      -9.021   3.671 131.821  0.00  0.00    -0.457 OA
BRANCH  24  25
ATOM     25  C   LIG A   1     -10.024   2.844 131.411  0.00  0.00    +0.304 C 
ATOM     26  C   LIG A   1      -9.785   1.439 131.900  0.00  0.00    +0.136 C 
ATOM     27  O   LIG A   1     -10.978   3.163 130.713  0.00  0.00    -0.251 OA
ENDBRANCH  24  25
ENDBRANCH   4  24
BRANCH   7  28
ATOM     28  O   LIG A   1      -9.061   7.630 129.594  0.00  0.00    -0.431 OA
BRANCH  28  29
ATOM     29  C   LIG A   1     -10.211   7.997 128.974  0.00  0.00    +0.306 C 
ATOM     30  C   LIG A   1     -11.397   7.764 129.866  0.00  0.00    +0.136 C 
ATOM     31  O   LIG A   1     -10.302   8.393 127.827  0.00  0.00    -0.251 OA
ENDBRANCH  28  29
ENDBRANCH   7  28
BRANCH   9  32
ATOM     32  O   LIG A   1      -7.602   4.358 127.664  0.00  0.00    -0.434 OA
BRANCH  32  33
ATOM     33  C   LIG A   1      -8.082   3.397 126.801  0.00  0.00    +0.306 C 
ATOM     34  C   LIG A   1      -8.026   2.038 127.467  0.00  0.00    +0.136 C 
ATOM     35  O   LIG A   1      -8.388   3.566 125.646  0.00  0.00    -0.251 OA
ENDBRANCH  32  33
ENDBRANCH   9  32
BRANCH  14  36
ATOM     36  C   LIG A   1      -3.989   2.450 129.562  0.00  0.00    +0.034 C 
BRANCH  36  37
ATOM     37  C   LIG A   1      -4.463   2.605 128.129  0.00  0.00    -0.023 C 
ATOM     38  C   LIG A   1      -3.840   3.118 127.050  0.00  0.00    -0.055 C 
ATOM     39  C   LIG A   1      -4.577   3.244 125.736  0.00  0.00    +0.043 C 
BRANCH  38  40
ATOM     40  C   LIG A   1      -2.485   3.624 127.035  0.00  0.00    -0.005 C 
ATOM     41  C   LIG A   1      -1.441   2.931 126.569  0.00  0.00    +0.008 C 
ENDBRANCH  38  40
ENDBRANCH  36  37
ENDBRANCH  14  36
TORSDOF 14
ENDMDL
MODEL 2
REMARK VINA RESULT:      -7.2      2.037      5.597
REMARK  Name = NuBBE_236
REMARK  22 active torsions:
REMARK  status: ('A' for Active; 'I' for Inactive)
REMARK    1  A    between atoms: C_1  and  C_2
REMARK    2  A    between atoms: C_4  and  O_6
REMARK    3  A    between atoms: O_6  and  C_7
REMARK    4  A    between atoms: C_7  and  C_8
REMARK    5  A    between atoms: C_8  and  C_9
REMARK    6  A    between atoms: C_9  and  C_10
REMARK    7  A    between atoms: C_12  and  O_14
REMARK    8  A    between atoms: O_14  and  C_15
REMARK    9  A    between atoms: C_15  and  C_16
REMARK   10  A    between atoms: C_20  and  O_22
REMARK   11  A    between atoms: O_22  and  C_23
REMARK   12  A    between atoms: C_23  and  C_24
REMARK   13  A    between atoms: C_27  and  O_29
REMARK   14  A    between atoms: O_29  and  C_30
REMARK   15  A    between atoms: C_30  and  C_31
REMARK   16  A    between atoms: C_34  and  O_36
REMARK   17  A    between atoms: O_36  and  C_37
REMARK   18  A    between atoms: C_41  and  C_42
REMARK   19  A    between atoms: C_41  and  C_43
REMARK   20  A    between atoms: C_43  and  C_44
REMARK   21  A    between atoms: C_45  and  C_46
REMARK   22  A    between atoms: C_45  and  C_48
REMARK                            x       y       z     vdW  Elec       q    Type
REMARK                         _______ _______ _______ _____ _____    ______ ____
ROOT
ATOM      1  C   LIG A   1      -4.343   2.001 131.373  0.00  0.00    +0.012 C 
ATOM      2  C   LIG A   1      -4.723   2.308 129.906  0.00  0.00    +0.037 C 
ATOM      3  C   LIG A   1      -4.953   3.828 129.794  0.00  0.00    +0.221 C 
ATOM      4  C   LIG A   1      -6.249   4.201 130.548  0.00  0.00    +0.234 C 
ATOM      5  C   LIG A   1      -7.560   3.669 129.888  0.00  0.00    +0.104 C 
ATOM      6  C   LIG A   1      -8.120   4.608 128.819  0.00  0.00    +0.013 C 
ATOM      7  C   LIG A   1      -9.094   5.574 129.436  0.00  0.00    +0.343 C 
ATOM      8  O   LIG A   1      -9.557   4.924 130.623  0.00  0.00    -0.297 OA
ATOM      9  C   LIG A   1      -8.704   3.827 130.984  0.00  0.00    +0.328 C 
ATOM     10  C   LIG A   1      -8.056   4.392 127.493  0.00  0.00    +0.010 C 
ATOM     11  C   LIG A   1      -7.802   3.043 126.922  0.00  0.00    +0.141 C 
ATOM     12  C   LIG A   1      -8.154   2.015 128.018  0.00  0.00    +0.041 C 
ATOM     13  C   LIG A   1      -7.352   2.183 129.341  0.00  0.00    +0.018 C 
ATOM     14  C   LIG A   1      -5.898   1.449 129.297  0.00  0.00    -0.018 C 
ATOM     15  C   LIG A   1      -5.465   1.060 127.845  0.00  0.00    +0.012 C 
ENDROOT
BRANCH  11  16
ATOM     16  O   LIG A   1      -8.720   2.943 125.824  0.00  0.00    -0.376 OA
ATOM     17  C   LIG A   1      -8.364   1.972 124.854  0.00  0.00    +0.194 C 
ENDBRANCH  11  16
BRANCH   3  18
ATOM     18  O   LIG A   1      -4.979   4.341 128.445  0.00  0.00    -0.457 OA
BRANCH  18  19
ATOM     19  C   LIG A   1      -4.048   5.300 128.162  0.00  0.00    +0.307 C 
ATOM     20  O   LIG A   1      -4.289   6.491 127.999  0.00  0.00    -0.251 OA
BRANCH  19  21
ATOM     21  C   LIG A   1      -2.686   4.693 127.935  0.00  0.00    +0.120 C 
BRANCH  21  22
ATOM     22  C   LIG A   1      -2.729   3.759 126.724  0.00  0.00    +0.008 C 
ATOM     23  C   LIG A   1      -1.462   2.928 126.594  0.00  0.00    +0.004 C 
ENDBRANCH  21  22
ENDBRANCH  19  21
ENDBRANCH  18  19
ENDBRANCH   3  18
BRANCH   4  24
ATOM     24  O   LIG A   1      -6.253   5.637 130.759  0.00  0.00    -0.457 OA
BRANCH  24  25
ATOM     25  C   LIG A   1      -5.410   6.071 131.738  0.00  0.00    +0.304 C 
ATOM     26  C   LIG A   1      -5.801   5.484 133.070  0.00  0.00    +0.136 C 
ATOM     27  O   LIG A   1      -4.480   6.855 131.592  0.00  0.00    -0.251 OA
ENDBRANCH  24  25
ENDBRANCH   4  24
BRANCH   7  28
ATOM     28  O   LIG A   1     -10.254   5.784 128.612  0.00  0.00    -0.431 OA
BRANCH  28  29
ATOM     29  C   LIG A   1     -10.724   7.056 128.563  0.00  0.00    +0.306 C 
ATOM     30  C   LIG A   1     -12.067   7.155 129.226  0.00  0.00    +0.136 C 
ATOM     31  O   LIG A   1     -10.183   7.990 127.999  0.00  0.00    -0.251 OA
ENDBRANCH  28  29
ENDBRANCH   7  28
BRANCH   9  32
ATOM     32  O   LIG A   1      -9.548   2.677 131.144  0.00  0.00    -0.434 OA
BRANCH  32  33
ATOM     33  C   LIG A   1      -9.232   1.925 132.254  0.00  0.00    +0.306 C 
ATOM     34  C   LIG A   1      -9.310   0.452 131.913  0.00  0.00    +0.136 C 
ATOM     35  O   LIG A   1      -9.044   2.347 133.370  0.00  0.00    -0.251 OA
ENDBRANCH  32  33
ENDBRANCH   9  32
BRANCH  14  36
ATOM     36  C   LIG A   1      -6.070   0.037 130.036  0.00  0.00    +0.034 C 
BRANCH  36  37
ATOM     37  C   LIG A   1      -7.012  -0.958 129.385  0.00  0.00    -0.023 C 
ATOM     38  C   LIG A   1      -7.328  -2.222 129.730  0.00  0.00    -0.055 C 
ATOM     39  C   LIG A   1      -8.239  -3.046 128.848  0.00  0.00    +0.043 C 
BRANCH  38  40
ATOM     40  C   LIG A   1      -6.822  -2.916 130.894  0.00  0.00    -0.005 C 
ATOM     41  C   LIG A   1      -7.397  -2.855 132.100  0.00  0.00    +0.008 C 
ENDBRANCH  38  40
ENDBRANCH  36  37
ENDBRANCH  14  36
TORSDOF 14
ENDMDL
MODEL 3
REMARK VINA RESULT:      -7.2      1.804      5.211
REMARK  Name = NuBBE_236
REMARK  22 active torsions:
REMARK  status: ('A' for Active; 'I' for Inactive)
REMARK    1  A    between atoms: C_1  and  C_2
REMARK    2  A    between atoms: C_4  and  O_6
REMARK    3  A    between atoms: O_6  and  C_7
REMARK    4  A    between atoms: C_7  and  C_8
REMARK    5  A    between atoms: C_8  and  C_9
REMARK    6  A    between atoms: C_9  and  C_10
REMARK    7  A    between atoms: C_12  and  O_14
REMARK    8  A    between atoms: O_14  and  C_15
REMARK    9  A    between atoms: C_15  and  C_16
REMARK   10  A    between atoms: C_20  and  O_22
REMARK   11  A    between atoms: O_22  and  C_23
REMARK   12  A    between atoms: C_23  and  C_24
REMARK   13  A    between atoms: C_27  and  O_29
REMARK   14  A    between atoms: O_29  and  C_30
REMARK   15  A    between atoms: C_30  and  C_31
REMARK   16  A    between atoms: C_34  and  O_36
REMARK   17  A    between atoms: O_36  and  C_37
REMARK   18  A    between atoms: C_41  and  C_42
REMARK   19  A    between atoms: C_41  and  C_43
REMARK   20  A    between atoms: C_43  and  C_44
REMARK   21  A    between atoms: C_45  and  C_46
REMARK   22  A    between atoms: C_45  and  C_48
REMARK                            x       y       z     vdW  Elec       q    Type
REMARK                         _______ _______ _______ _____ _____    ______ ____
ROOT
ATOM      1  C   LIG A   1      -6.152   5.581 133.860  0.00  0.00    +0.012 C 
ATOM      2  C   LIG A   1      -5.256   5.342 132.623  0.00  0.00    +0.037 C 
ATOM      3  C   LIG A   1      -5.873   6.119 131.445  0.00  0.00    +0.221 C 
ATOM      4  C   LIG A   1      -7.193   5.436 131.024  0.00  0.00    +0.234 C 
ATOM      5  C   LIG A   1      -7.016   4.030 130.370  0.00  0.00    +0.104 C 
ATOM      6  C   LIG A   1      -6.772   4.092 128.862  0.00  0.00    +0.013 C 
ATOM      7  C   LIG A   1      -8.080   4.019 128.122  0.00  0.00    +0.343 C 
ATOM      8  O   LIG A   1      -8.978   3.367 129.023  0.00  0.00    -0.297 OA
ATOM      9  C   LIG A   1      -8.460   3.359 130.363  0.00  0.00    +0.328 C 
ATOM     10  C   LIG A   1      -5.588   3.876 128.263  0.00  0.00    +0.010 C 
ATOM     11  C   LIG A   1      -4.476   3.159 128.942  0.00  0.00    +0.141 C 
ATOM     12  C   LIG A   1      -5.102   2.343 130.093  0.00  0.00    +0.041 C 
ATOM     13  C   LIG A   1      -5.890   3.192 131.132  0.00  0.00    +0.018 C 
ATOM     14  C   LIG A   1      -4.929   3.837 132.280  0.00  0.00    -0.018 C 
ATOM     15  C   LIG A   1      -3.414   3.782 131.896  0.00  0.00    +0.012 C 
ENDROOT
BRANCH  11  16
ATOM     16  O   LIG A   1      -3.948   2.285 127.934  0.00  0.00    -0.376 OA
ATOM     17  C   LIG A   1      -4.132   2.749 126.607  0.00  0.00    +0.194 C 
ENDBRANCH  11  16
BRANCH   3  18
ATOM     18  O   LIG A   1      -5.001   6.295 130.307  0.00  0.00    -0.457 OA
BRANCH  18  19
ATOM     19  C   LIG A   1      -4.307   7.471 130.273  0.00  0.00    +0.307 C 
ATOM     20  O   LIG A   1      -4.750   8.540 129.868  0.00  0.00    -0.251 OA
BRANCH  19  21
ATOM     21  C   LIG A   1      -2.866   7.270 130.671  0.00  0.00    +0.120 C 
BRANCH  21  22
ATOM     22  C   LIG A   1      -2.185   6.314 129.691  0.00  0.00    +0.008 C 
ATOM     23  C   LIG A   1      -2.310   6.783 128.250  0.00  0.00    +0.004 C 
ENDBRANCH  21  22
ENDBRANCH  19  21
ENDBRANCH  18  19
ENDBRANCH   3  18
BRANCH   4  24
ATOM     24  O   LIG A   1      -7.940   6.366 130.196  0.00  0.00    -0.457 OA
BRANCH  24  25
ATOM     25  C   LIG A   1      -9.117   6.791 130.736  0.00  0.00    +0.304 C 
ATOM     26  C   LIG A   1      -9.956   7.486 129.695  0.00  0.00    +0.136 C 
ATOM     27  O   LIG A   1      -9.455   6.670 131.907  0.00  0.00    -0.251 OA
ENDBRANCH  24  25
ENDBRANCH   4  24
BRANCH   7  28
ATOM     28  O   LIG A   1      -8.001   3.184 126.953  0.00  0.00    -0.431 OA
BRANCH  28  29
ATOM     29  C   LIG A   1      -8.174   3.811 125.763  0.00  0.00    +0.306 C 
ATOM     30  C   LIG A   1      -7.409   3.113 124.675  0.00  0.00    +0.136 C 
ATOM     31  O   LIG A   1      -8.797   4.842 125.590  0.00  0.00    -0.251 OA
ENDBRANCH  28  29
ENDBRANCH   7  28
BRANCH   9  32
ATOM     32  O   LIG A   1      -8.495   1.997 130.815  0.00  0.00    -0.434 OA
BRANCH  32  33
ATOM     33  C   LIG A   1      -9.415   1.786 131.819  0.00  0.00    +0.306 C 
ATOM     34  C   LIG A   1      -9.307   2.888 132.852  0.00  0.00    +0.136 C 
ATOM     35  O   LIG A   1     -10.120   0.814 131.945  0.00  0.00    -0.251 OA
ENDBRANCH  32  33
ENDBRANCH   9  32
BRANCH  14  36
ATOM     36  C   LIG A   1      -5.035   2.881 133.562  0.00  0.00    +0.034 C 
BRANCH  36  37
ATOM     37  C   LIG A   1      -5.957   1.682 133.439  0.00  0.00    -0.023 C 
ATOM     38  C   LIG A   1      -5.680   0.379 133.238  0.00  0.00    -0.055 C 
ATOM     39  C   LIG A   1      -6.803  -0.618 133.059  0.00  0.00    +0.043 C 
BRANCH  38  40
ATOM     40  C   LIG A   1      -4.350  -0.180 133.129  0.00  0.00    -0.005 C 
ATOM     41  C   LIG A   1      -3.832  -0.639 131.984  0.00  0.00    +0.008 C 
ENDBRANCH  38  40
ENDBRANCH  36  37
ENDBRANCH  14  36
TORSDOF 14
ENDMDL
MODEL 4
REMARK VINA RESULT:      -6.9      2.207      6.113
REMARK  Name = NuBBE_236
REMARK  22 active torsions:
REMARK  status: ('A' for Active; 'I' for Inactive)
REMARK    1  A    between atoms: C_1  and  C_2
REMARK    2  A    between atoms: C_4  and  O_6
REMARK    3  A    between atoms: O_6  and  C_7
REMARK    4  A    between atoms: C_7  and  C_8
REMARK    5  A    between atoms: C_8  and  C_9
REMARK    6  A    between atoms: C_9  and  C_10
REMARK    7  A    between atoms: C_12  and  O_14
REMARK    8  A    between atoms: O_14  and  C_15
REMARK    9  A    between atoms: C_15  and  C_16
REMARK   10  A    between atoms: C_20  and  O_22
REMARK   11  A    between atoms: O_22  and  C_23
REMARK   12  A    between atoms: C_23  and  C_24
REMARK   13  A    between atoms: C_27  and  O_29
REMARK   14  A    between atoms: O_29  and  C_30
REMARK   15  A    between atoms: C_30  and  C_31
REMARK   16  A    between atoms: C_34  and  O_36
REMARK   17  A    between atoms: O_36  and  C_37
REMARK   18  A    between atoms: C_41  and  C_42
REMARK   19  A    between atoms: C_41  and  C_43
REMARK   20  A    between atoms: C_43  and  C_44
REMARK   21  A    between atoms: C_45  and  C_46
REMARK   22  A    between atoms: C_45  and  C_48
REMARK                            x       y       z     vdW  Elec       q    Type
REMARK                         _______ _______ _______ _____ _____    ______ ____
ROOT
ATOM      1  C   LIG A   1      -5.146   7.514 130.667  0.00  0.00    +0.012 C 
ATOM      2  C   LIG A   1      -5.637   6.218 131.354  0.00  0.00    +0.037 C 
ATOM      3  C   LIG A   1      -4.649   5.094 130.986  0.00  0.00    +0.221 C 
ATOM      4  C   LIG A   1      -4.811   4.748 129.489  0.00  0.00    +0.234 C 
ATOM      5  C   LIG A   1      -6.165   4.061 129.125  0.00  0.00    +0.104 C 
ATOM      6  C   LIG A   1      -6.134   2.542 129.293  0.00  0.00    +0.013 C 
ATOM      7  C   LIG A   1      -5.718   1.886 128.005  0.00  0.00    +0.343 C 
ATOM      8  O   LIG A   1      -6.049   2.832 126.985  0.00  0.00    -0.297 OA
ATOM      9  C   LIG A   1      -6.287   4.136 127.540  0.00  0.00    +0.328 C 
ATOM     10  C   LIG A   1      -6.728   1.865 130.291  0.00  0.00    +0.010 C 
ATOM     11  C   LIG A   1      -7.814   2.459 131.115  0.00  0.00    +0.141 C 
ATOM     12  C   LIG A   1      -8.402   3.634 130.307  0.00  0.00    +0.041 C 
ATOM     13  C   LIG A   1      -7.371   4.736 129.925  0.00  0.00    +0.018 C 
ATOM     14  C   LIG A   1      -7.147   5.830 131.112  0.00  0.00    -0.018 C 
ATOM     15  C   LIG A   1      -7.714   5.349 132.488  0.00  0.00    +0.012 C 
ENDROOT
BRANCH  11  16
ATOM     16  O   LIG A   1      -8.778   1.405 131.248  0.00  0.00    -0.376 OA
ATOM     17  C   LIG A   1      -9.934   1.763 131.986  0.00  0.00    +0.194 C 
ENDBRANCH  11  16
BRANCH   3  18
ATOM     18  O   LIG A   1      -4.746   3.906 131.801  0.00  0.00    -0.457 OA
BRANCH  18  19
ATOM     19  C   LIG A   1      -3.577   3.481 132.364  0.00  0.00    +0.307 C 
ATOM     20  O   LIG A   1      -3.181   2.322 132.379  0.00  0.00    -0.251 OA
BRANCH  19  21
ATOM     21  C   LIG A   1      -2.882   4.601 133.098  0.00  0.00    +0.120 C 
BRANCH  21  22
ATOM     22  C   LIG A   1      -1.451   4.752 132.582  0.00  0.00    +0.008 C 
ATOM     23  C   LIG A   1      -1.233   6.079 131.872  0.00  0.00    +0.004 C 
ENDBRANCH  21  22
ENDBRANCH  19  21
ENDBRANCH  18  19
ENDBRANCH   3  18
BRANCH   4  24
ATOM     24  O   LIG A   1      -3.648   3.985 129.072  0.00  0.00    -0.457 OA
BRANCH  24  25
ATOM     25  C   LIG A   1      -2.796   4.653 128.246  0.00  0.00    +0.304 C 
ATOM     26  C   LIG A   1      -2.345   3.760 127.117  0.00  0.00    +0.136 C 
ATOM     27  O   LIG A   1      -2.405   5.804 128.393  0.00  0.00    -0.251 OA
ENDBRANCH  24  25
ENDBRANCH   4  24
BRANCH   7  28
ATOM     28  O   LIG A   1      -6.483   0.701 127.721  0.00  0.00    -0.431 OA
BRANCH  28  29
ATOM     29  C   LIG A   1      -7.348   0.789 126.679  0.00  0.00    +0.306 C 
ATOM     30  C   LIG A   1      -8.722   1.166 127.156  0.00  0.00    +0.136 C 
ATOM     31  O   LIG A   1      -7.088   0.530 125.519  0.00  0.00    -0.251 OA
ENDBRANCH  28  29
ENDBRANCH   7  28
BRANCH   9  32
ATOM     32  O   LIG A   1      -7.567   4.567 127.053  0.00  0.00    -0.434 OA
BRANCH  32  33
ATOM     33  C   LIG A   1      -7.673   4.502 125.681  0.00  0.00    +0.306 C 
ATOM     34  C   LIG A   1      -6.496   5.210 125.044  0.00  0.00    +0.136 C 
ATOM     35  O   LIG A   1      -8.612   4.066 125.059  0.00  0.00    -0.251 OA
ENDBRANCH  32  33
ENDBRANCH   9  32
BRANCH  14  36
ATOM     36  C   LIG A   1      -8.054   7.100 130.747  0.00  0.00    +0.034 C 
BRANCH  36  37
ATOM     37  C   LIG A   1      -9.552   6.935 130.920  0.00  0.00    -0.023 C 
ATOM     38  C   LIG A   1     -10.573   7.308 130.123  0.00  0.00    -0.055 C 
ATOM     39  C   LIG A   1     -12.002   7.106 130.574  0.00  0.00    +0.043 C 
BRANCH  38  40
ATOM     40  C   LIG A   1     -10.429   7.953 128.836  0.00  0.00    -0.005 C 
ATOM     41  C   LIG A   1     -10.544   7.309 127.669  0.00  0.00    +0.008 C 
ENDBRANCH  38  40
ENDBRANCH  36  37
ENDBRANCH  14  36
TORSDOF 14
ENDMDL
MODEL 5
REMARK VINA RESULT:      -6.9      2.428      5.023
REMARK  Name = NuBBE_236
REMARK  22 active torsions:
REMARK  status: ('A' for Active; 'I' for Inactive)
REMARK    1  A    between atoms: C_1  and  C_2
REMARK    2  A    between atoms: C_4  and  O_6
REMARK    3  A    between atoms: O_6  and  C_7
REMARK    4  A    between atoms: C_7  and  C_8
REMARK    5  A    between atoms: C_8  and  C_9
REMARK    6  A    between atoms: C_9  and  C_10
REMARK    7  A    between atoms: C_12  and  O_14
REMARK    8  A    between atoms: O_14  and  C_15
REMARK    9  A    between atoms: C_15  and  C_16
REMARK   10  A    between atoms: C_20  and  O_22
REMARK   11  A    between atoms: O_22  and  C_23
REMARK   12  A    between atoms: C_23  and  C_24
REMARK   13  A    between atoms: C_27  and  O_29
REMARK   14  A    between atoms: O_29  and  C_30
REMARK   15  A    between atoms: C_30  and  C_31
REMARK   16  A    between atoms: C_34  and  O_36
REMARK   17  A    between atoms: O_36  and  C_37
REMARK   18  A    between atoms: C_41  and  C_42
REMARK   19  A    between atoms: C_41  and  C_43
REMARK   20  A    between atoms: C_43  and  C_44
REMARK   21  A    between atoms: C_45  and  C_46
REMARK   22  A    between atoms: C_45  and  C_48
REMARK                            x       y       z     vdW  Elec       q    Type
REMARK                         _______ _______ _______ _____ _____    ______ ____
ROOT
ATOM      1  C   LIG A   1     -10.115   1.677 132.014  0.00  0.00    +0.012 C 
ATOM      2  C   LIG A   1      -8.625   2.075 131.893  0.00  0.00    +0.037 C 
ATOM      3  C   LIG A   1      -8.565   3.438 131.176  0.00  0.00    +0.221 C 
ATOM      4  C   LIG A   1      -8.971   3.251 129.697  0.00  0.00    +0.234 C 
ATOM      5  C   LIG A   1      -7.948   2.439 128.842  0.00  0.00    +0.104 C 
ATOM      6  C   LIG A   1      -6.840   3.305 128.245  0.00  0.00    +0.013 C 
ATOM      7  C   LIG A   1      -7.242   3.796 126.881  0.00  0.00    +0.343 C 
ATOM      8  O   LIG A   1      -8.213   2.852 126.420  0.00  0.00    -0.297 OA
ATOM      9  C   LIG A   1      -8.708   2.044 127.499  0.00  0.00    +0.328 C 
ATOM     10  C   LIG A   1      -5.567   3.335 128.679  0.00  0.00    +0.010 C 
ATOM     11  C   LIG A   1      -4.988   2.248 129.512  0.00  0.00    +0.141 C 
ATOM     12  C   LIG A   1      -5.874   1.001 129.305  0.00  0.00    +0.041 C 
ATOM     13  C   LIG A   1      -7.372   1.204 129.676  0.00  0.00    +0.018 C 
ATOM     14  C   LIG A   1      -7.664   0.993 131.265  0.00  0.00    -0.018 C 
ATOM     15  C   LIG A   1      -6.357   1.000 132.122  0.00  0.00    +0.012 C 
ENDROOT
BRANCH  11  16
ATOM     16  O   LIG A   1      -3.681   2.035 128.961  0.00  0.00    -0.376 OA
ATOM     17  C   LIG A   1      -3.247   3.057 128.080  0.00  0.00    +0.194 C 
ENDBRANCH  11  16
BRANCH   3  18
ATOM     18  O   LIG A   1      -7.299   4.124 131.277  0.00  0.00    -0.457 OA
BRANCH  18  19
ATOM     19  C   LIG A   1      -7.290   5.227 132.083  0.00  0.00    +0.307 C 
ATOM     20  O   LIG A   1      -7.730   5.270 133.226  0.00  0.00    -0.251 OA
BRANCH  19  21
ATOM     21  C   LIG A   1      -6.790   6.443 131.343  0.00  0.00    +0.120 C 
BRANCH  21  22
ATOM     22  C   LIG A   1      -5.261   6.453 131.331  0.00  0.00    +0.008 C 
ATOM     23  C   LIG A   1      -4.700   7.523 130.408  0.00  0.00    +0.004 C 
ENDBRANCH  21  22
ENDBRANCH  19  21
ENDBRANCH  18  19
ENDBRANCH   3  18
BRANCH   4  24
ATOM     24  O   LIG A   1      -9.276   4.557 129.142  0.00  0.00    -0.457 OA
BRANCH  24  25
ATOM     25  C   LIG A   1     -10.370   5.163 129.683  0.00  0.00    +0.304 C 
ATOM     26  C   LIG A   1     -10.086   6.618 129.959  0.00  0.00    +0.136 C 
ATOM     27  O   LIG A   1     -11.435   4.620 129.951  0.00  0.00    -0.251 OA
ENDBRANCH  24  25
ENDBRANCH   4  24
BRANCH   7  28
ATOM     28  O   LIG A   1      -6.156   3.752 125.940  0.00  0.00    -0.431 OA
BRANCH  28  29
ATOM     29  C   LIG A   1      -6.176   4.696 124.966  0.00  0.00    +0.306 C 
ATOM     30  C   LIG A   1      -5.846   4.092 123.631  0.00  0.00    +0.136 C 
ATOM     31  O   LIG A   1      -6.359   5.886 125.137  0.00  0.00    -0.251 OA
ENDBRANCH  28  29
ENDBRANCH   7  28
BRANCH   9  32
ATOM     32  O   LIG A   1      -8.553   0.674 127.099  0.00  0.00    -0.434 OA
BRANCH  32  33
ATOM     33  C   LIG A   1      -9.153   0.394 125.890  0.00  0.00    +0.306 C 
ATOM     34  C   LIG A   1      -8.109  -0.082 124.902  0.00  0.00    +0.136 C 
ATOM     35  O   LIG A   1     -10.305   0.607 125.601  0.00  0.00    -0.251 OA
ENDBRANCH  32  33
ENDBRANCH   9  32
BRANCH  14  36
ATOM     36  C   LIG A   1      -8.226  -0.498 131.437  0.00  0.00    +0.034 C 
BRANCH  36  37
ATOM     37  C   LIG A   1      -7.234  -1.626 131.224  0.00  0.00    -0.023 C 
ATOM     38  C   LIG A   1      -7.217  -2.618 130.312  0.00  0.00    -0.055 C 
ATOM     39  C   LIG A   1      -6.148  -3.686 130.372  0.00  0.00    +0.043 C 
BRANCH  38  40
ATOM     40  C   LIG A   1      -8.191  -2.794 129.258  0.00  0.00    -0.005 C 
ATOM     41  C   LIG A   1      -7.891  -2.738 127.955  0.00  0.00    +0.008 C 
ENDBRANCH  38  40
ENDBRANCH  36  37
ENDBRANCH  14  36
TORSDOF 14
ENDMDL
MODEL 6
REMARK VINA RESULT:      -6.9      2.771      5.770
REMARK  Name = NuBBE_236
REMARK  22 active torsions:
REMARK  status: ('A' for Active; 'I' for Inactive)
REMARK    1  A    between atoms: C_1  and  C_2
REMARK    2  A    between atoms: C_4  and  O_6
REMARK    3  A    between atoms: O_6  and  C_7
REMARK    4  A    between atoms: C_7  and  C_8
REMARK    5  A    between atoms: C_8  and  C_9
REMARK    6  A    between atoms: C_9  and  C_10
REMARK    7  A    between atoms: C_12  and  O_14
REMARK    8  A    between atoms: O_14  and  C_15
REMARK    9  A    between atoms: C_15  and  C_16
REMARK   10  A    between atoms: C_20  and  O_22
REMARK   11  A    between atoms: O_22  and  C_23
REMARK   12  A    between atoms: C_23  and  C_24
REMARK   13  A    between atoms: C_27  and  O_29
REMARK   14  A    between atoms: O_29  and  C_30
REMARK   15  A    between atoms: C_30  and  C_31
REMARK   16  A    between atoms: C_34  and  O_36
REMARK   17  A    between atoms: O_36  and  C_37
REMARK   18  A    between atoms: C_41  and  C_42
REMARK   19  A    between atoms: C_41  and  C_43
REMARK   20  A    between atoms: C_43  and  C_44
REMARK   21  A    between atoms: C_45  and  C_46
REMARK   22  A    between atoms: C_45  and  C_48
REMARK                            x       y       z     vdW  Elec       q    Type
REMARK                         _______ _______ _______ _____ _____    ______ ____
ROOT
ATOM      1  C   LIG A   1      -8.850   0.769 126.657  0.00  0.00    +0.012 C 
ATOM      2  C   LIG A   1      -8.437   1.097 128.110  0.00  0.00    +0.037 C 
ATOM      3  C   LIG A   1      -8.513   2.626 128.281  0.00  0.00    +0.221 C 
ATOM      4  C   LIG A   1      -7.376   3.284 127.467  0.00  0.00    +0.234 C 
ATOM      5  C   LIG A   1      -5.942   3.010 128.019  0.00  0.00    +0.104 C 
ATOM      6  C   LIG A   1      -5.509   4.007 129.094  0.00  0.00    +0.013 C 
ATOM      7  C   LIG A   1      -4.798   5.173 128.465  0.00  0.00    +0.343 C 
ATOM      8  O   LIG A   1      -4.297   4.673 127.222  0.00  0.00    -0.297 OA
ATOM      9  C   LIG A   1      -4.934   3.437 126.862  0.00  0.00    +0.328 C 
ATOM     10  C   LIG A   1      -5.435   3.737 130.409  0.00  0.00    +0.010 C 
ATOM     11  C   LIG A   1      -5.369   2.346 130.930  0.00  0.00    +0.141 C 
ATOM     12  C   LIG A   1      -4.895   1.451 129.766  0.00  0.00    +0.041 C 
ATOM     13  C   LIG A   1      -5.805   1.495 128.505  0.00  0.00    +0.018 C 
ATOM     14  C   LIG A   1      -7.073   0.477 128.604  0.00  0.00    -0.018 C 
ATOM     15  C   LIG A   1      -7.315  -0.041 130.059  0.00  0.00    +0.012 C 
ENDROOT
BRANCH  11  16
ATOM     16  O   LIG A   1      -4.375   2.399 131.964  0.00  0.00    -0.376 OA
ATOM     17  C   LIG A   1      -3.925   3.707 132.271  0.00  0.00    +0.194 C 
ENDBRANCH  11  16
BRANCH   3  18
ATOM     18  O   LIG A   1      -8.497   3.088 129.649  0.00  0.00    -0.457 OA
BRANCH  18  19
ATOM     19  C   LIG A   1      -9.718   3.381 130.186  0.00  0.00    +0.307 C 
ATOM     20  O   LIG A   1     -10.445   4.301 129.827  0.00  0.00    -0.251 OA
BRANCH  19  21
ATOM     21  C   LIG A   1     -10.015   2.511 131.382  0.00  0.00    +0.120 C 
BRANCH  21  22
ATOM     22  C   LIG A   1      -8.832   2.538 132.351  0.00  0.00    +0.008 C 
ATOM     23  C   LIG A   1      -9.121   3.373 133.587  0.00  0.00    +0.004 C 
ENDBRANCH  21  22
ENDBRANCH  19  21
ENDBRANCH  18  19
ENDBRANCH   3  18
BRANCH   4  24
ATOM     24  O   LIG A   1      -7.679   4.696 127.325  0.00  0.00    -0.457 OA
BRANCH  24  25
ATOM     25  C   LIG A   1      -8.365   5.020 126.194  0.00  0.00    +0.304 C 
ATOM     26  C   LIG A   1      -7.970   4.113 125.057  0.00  0.00    +0.136 C 
ATOM     27  O   LIG A   1      -9.170   5.937 126.078  0.00  0.00    -0.251 OA
ENDBRANCH  24  25
ENDBRANCH   4  24
BRANCH   7  28
ATOM     28  O   LIG A   1      -3.650   5.589 129.225  0.00  0.00    -0.431 OA
BRANCH  28  29
ATOM     29  C   LIG A   1      -3.063   6.746 128.828  0.00  0.00    +0.306 C 
ATOM     30  C   LIG A   1      -3.832   7.934 129.332  0.00  0.00    +0.136 C 
ATOM     31  O   LIG A   1      -2.091   6.835 128.102  0.00  0.00    -0.251 OA
ENDBRANCH  28  29
ENDBRANCH   7  28
BRANCH   9  32
ATOM     32  O   LIG A   1      -3.887   2.491 126.596  0.00  0.00    -0.434 OA
BRANCH  32  33
ATOM     33  C   LIG A   1      -2.659   2.898 127.070  0.00  0.00    +0.306 C 
ATOM     34  C   LIG A   1      -1.739   3.207 125.908  0.00  0.00    +0.136 C 
ATOM     35  O   LIG A   1      -2.304   2.895 128.224  0.00  0.00    -0.251 OA
ENDBRANCH  32  33
ENDBRANCH   9  32
BRANCH  14  36
ATOM     36  C   LIG A   1      -6.671  -0.843 127.789  0.00  0.00    +0.034 C 
BRANCH  36  37
ATOM     37  C   LIG A   1      -7.394  -2.122 128.171  0.00  0.00    -0.023 C 
ATOM     38  C   LIG A   1      -8.193  -2.928 127.444  0.00  0.00    -0.055 C 
ATOM     39  C   LIG A   1      -8.874  -4.110 128.095  0.00  0.00    +0.043 C 
BRANCH  38  40
ATOM     40  C   LIG A   1      -8.512  -2.739 126.046  0.00  0.00    -0.005 C 
ATOM     41  C   LIG A   1      -8.176  -3.608 125.086  0.00  0.00    +0.008 C 
ENDBRANCH  38  40
ENDBRANCH  36  37
ENDBRANCH  14  36
TORSDOF 14
ENDMDL
MODEL 7
REMARK VINA RESULT:      -6.8      2.424      6.201
REMARK  Name = NuBBE_236
REMARK  22 active torsions:
REMARK  status: ('A' for Active; 'I' for Inactive)
REMARK    1  A    between atoms: C_1  and  C_2
REMARK    2  A    between atoms: C_4  and  O_6
REMARK    3  A    between atoms: O_6  and  C_7
REMARK    4  A    between atoms: C_7  and  C_8
REMARK    5  A    between atoms: C_8  and  C_9
REMARK    6  A    between atoms: C_9  and  C_10
REMARK    7  A    between atoms: C_12  and  O_14
REMARK    8  A    between atoms: O_14  and  C_15
REMARK    9  A    between atoms: C_15  and  C_16
REMARK   10  A    between atoms: C_20  and  O_22
REMARK   11  A    between atoms: O_22  and  C_23
REMARK   12  A    between atoms: C_23  and  C_24
REMARK   13  A    between atoms: C_27  and  O_29
REMARK   14  A    between atoms: O_29  and  C_30
REMARK   15  A    between atoms: C_30  and  C_31
REMARK   16  A    between atoms: C_34  and  O_36
REMARK   17  A    between atoms: O_36  and  C_37
REMARK   18  A    between atoms: C_41  and  C_42
REMARK   19  A    between atoms: C_41  and  C_43
REMARK   20  A    between atoms: C_43  and  C_44
REMARK   21  A    between atoms: C_45  and  C_46
REMARK   22  A    between atoms: C_45  and  C_48
REMARK                            x       y       z     vdW  Elec       q    Type
REMARK                         _______ _______ _______ _____ _____    ______ ____
ROOT
ATOM      1  C   LIG A   1      -5.242   4.002 124.978  0.00  0.00    +0.012 C 
ATOM      2  C   LIG A   1      -4.664   2.983 125.987  0.00  0.00    +0.037 C 
ATOM      3  C   LIG A   1      -5.751   1.923 126.251  0.00  0.00    +0.221 C 
ATOM      4  C   LIG A   1      -6.899   2.566 127.062  0.00  0.00    +0.234 C 
ATOM      5  C   LIG A   1      -6.521   2.951 128.527  0.00  0.00    +0.104 C 
ATOM      6  C   LIG A   1      -6.701   1.801 129.518  0.00  0.00    +0.013 C 
ATOM      7  C   LIG A   1      -8.084   1.836 130.108  0.00  0.00    +0.343 C 
ATOM      8  O   LIG A   1      -8.508   3.195 129.975  0.00  0.00    -0.297 OA
ATOM      9  C   LIG A   1      -7.680   3.912 129.045  0.00  0.00    +0.328 C 
ATOM     10  C   LIG A   1      -5.698   1.092 130.065  0.00  0.00    +0.010 C 
ATOM     11  C   LIG A   1      -4.297   1.590 130.093  0.00  0.00    +0.141 C 
ATOM     12  C   LIG A   1      -4.360   3.120 129.900  0.00  0.00    +0.041 C 
ATOM     13  C   LIG A   1      -5.053   3.577 128.584  0.00  0.00    +0.018 C 
ATOM     14  C   LIG A   1      -4.041   3.585 127.306  0.00  0.00    -0.018 C 
ATOM     15  C   LIG A   1      -2.721   2.795 127.581  0.00  0.00    +0.012 C 
ENDROOT
BRANCH  11  16
ATOM     16  O   LIG A   1      -3.830   1.267 131.410  0.00  0.00    -0.376 OA
ATOM     17  C   LIG A   1      -4.192  -0.029 131.854  0.00  0.00    +0.194 C 
ENDBRANCH  11  16
BRANCH   3  18
ATOM     18  O   LIG A   1      -5.284   0.717 126.893  0.00  0.00    -0.457 OA
BRANCH  18  19
ATOM     19  C   LIG A   1      -5.604  -0.450 126.258  0.00  0.00    +0.307 C 
ATOM     20  O   LIG A   1      -5.818  -0.564 125.057  0.00  0.00    -0.251 OA
BRANCH  19  21
ATOM     21  C   LIG A   1      -5.802  -1.574 127.244  0.00  0.00    +0.120 C 
BRANCH  21  22
ATOM     22  C   LIG A   1      -7.225  -1.531 127.802  0.00  0.00    +0.008 C 
ATOM     23  C   LIG A   1      -7.415  -2.491 128.967  0.00  0.00    +0.004 C 
ENDBRANCH  21  22
ENDBRANCH  19  21
ENDBRANCH  18  19
ENDBRANCH   3  18
BRANCH   4  24
ATOM     24  O   LIG A   1      -8.057   1.695 126.977  0.00  0.00    -0.457 OA
BRANCH  24  25
ATOM     25  C   LIG A   1      -8.756   1.790 125.811  0.00  0.00    +0.304 C 
ATOM     26  C   LIG A   1      -9.211   0.428 125.354  0.00  0.00    +0.136 C 
ATOM     27  O   LIG A   1      -8.970   2.820 125.183  0.00  0.00    -0.251 OA
ENDBRANCH  24  25
ENDBRANCH   4  24
BRANCH   7  28
ATOM     28  O   LIG A   1      -8.085   1.548 131.518  0.00  0.00    -0.431 OA
BRANCH  28  29
ATOM     29  C   LIG A   1      -8.917   0.554 131.919  0.00  0.00    +0.306 C 
ATOM     30  C   LIG A   1      -8.140  -0.683 132.270  0.00  0.00    +0.136 C 
ATOM     31  O   LIG A   1     -10.132   0.608 131.929  0.00  0.00    -0.251 OA
ENDBRANCH  28  29
ENDBRANCH   7  28
BRANCH   9  32
ATOM     32  O   LIG A   1      -7.226   5.096 129.718  0.00  0.00    -0.434 OA
BRANCH  32  33
ATOM     33  C   LIG A   1      -8.251   5.959 130.041  0.00  0.00    +0.306 C 
ATOM     34  C   LIG A   1      -8.096   6.421 131.474  0.00  0.00    +0.136 C 
ATOM     35  O   LIG A   1      -9.204   6.223 129.349  0.00  0.00    -0.251 OA
ENDBRANCH  32  33
ENDBRANCH   9  32
BRANCH  14  36
ATOM     36  C   LIG A   1      -3.550   5.098 127.114  0.00  0.00    +0.034 C 
BRANCH  36  37
ATOM     37  C   LIG A   1      -4.090   6.116 128.101  0.00  0.00    -0.023 C 
ATOM     38  C   LIG A   1      -3.513   6.689 129.175  0.00  0.00    -0.055 C 
ATOM     39  C   LIG A   1      -4.310   7.619 130.061  0.00  0.00    +0.043 C 
BRANCH  38  40
ATOM     40  C   LIG A   1      -2.153   6.456 129.610  0.00  0.00    -0.005 C 
ATOM     41  C   LIG A   1      -1.792   6.361 130.894  0.00  0.00    +0.008 C 
ENDBRANCH  38  40
ENDBRANCH  36  37
ENDBRANCH  14  36
TORSDOF 14
ENDMDL
MODEL 8
REMARK VINA RESULT:      -6.7      2.300      4.640
REMARK  Name = NuBBE_236
REMARK  22 active torsions:
REMARK  status: ('A' for Active; 'I' for Inactive)
REMARK    1  A    between atoms: C_1  and  C_2
REMARK    2  A    between atoms: C_4  and  O_6
REMARK    3  A    between atoms: O_6  and  C_7
REMARK    4  A    between atoms: C_7  and  C_8
REMARK    5  A    between atoms: C_8  and  C_9
REMARK    6  A    between atoms: C_9  and  C_10
REMARK    7  A    between atoms: C_12  and  O_14
REMARK    8  A    between atoms: O_14  and  C_15
REMARK    9  A    between atoms: C_15  and  C_16
REMARK   10  A    between atoms: C_20  and  O_22
REMARK   11  A    between atoms: O_22  and  C_23
REMARK   12  A    between atoms: C_23  and  C_24
REMARK   13  A    between atoms: C_27  and  O_29
REMARK   14  A    between atoms: O_29  and  C_30
REMARK   15  A    between atoms: C_30  and  C_31
REMARK   16  A    between atoms: C_34  and  O_36
REMARK   17  A    between atoms: O_36  and  C_37
REMARK   18  A    between atoms: C_41  and  C_42
REMARK   19  A    between atoms: C_41  and  C_43
REMARK   20  A    between atoms: C_43  and  C_44
REMARK   21  A    between atoms: C_45  and  C_46
REMARK   22  A    between atoms: C_45  and  C_48
REMARK                            x       y       z     vdW  Elec       q    Type
REMARK                         _______ _______ _______ _____ _____    ______ ____
ROOT
ATOM      1  C   LIG A   1     -10.124   1.834 131.859  0.00  0.00    +0.012 C 
ATOM      2  C   LIG A   1      -8.803   2.264 132.538  0.00  0.00    +0.037 C 
ATOM      3  C   LIG A   1      -8.515   3.718 132.114  0.00  0.00    +0.221 C 
ATOM      4  C   LIG A   1      -8.131   3.742 130.618  0.00  0.00    +0.234 C 
ATOM      5  C   LIG A   1      -6.758   3.076 130.290  0.00  0.00    +0.104 C 
ATOM      6  C   LIG A   1      -5.575   4.034 130.427  0.00  0.00    +0.013 C 
ATOM      7  C   LIG A   1      -5.301   4.713 129.114  0.00  0.00    +0.343 C 
ATOM      8  O   LIG A   1      -5.841   3.833 128.124  0.00  0.00    -0.297 OA
ATOM      9  C   LIG A   1      -6.731   2.870 128.711  0.00  0.00    +0.328 C 
ATOM     10  C   LIG A   1      -4.683   4.017 131.434  0.00  0.00    +0.010 C 
ATOM     11  C   LIG A   1      -4.496   2.828 132.307  0.00  0.00    +0.141 C 
ATOM     12  C   LIG A   1      -5.061   1.613 131.542  0.00  0.00    +0.041 C 
ATOM     13  C   LIG A   1      -6.561   1.741 131.145  0.00  0.00    +0.018 C 
ATOM     14  C   LIG A   1      -7.572   1.297 132.343  0.00  0.00    -0.018 C 
ATOM     15  C   LIG A   1      -6.854   1.197 133.728  0.00  0.00    +0.012 C 
ENDROOT
BRANCH  11  16
ATOM     16  O   LIG A   1      -3.073   2.714 132.454  0.00  0.00    -0.376 OA
ATOM     17  C   LIG A   1      -2.444   3.882 132.953  0.00  0.00    +0.194 C 
ENDBRANCH  11  16
BRANCH   3  18
ATOM     18  O   LIG A   1      -7.520   4.398 132.909  0.00  0.00    -0.457 OA
BRANCH  18  19
ATOM     19  C   LIG A   1      -8.007   5.271 133.841  0.00  0.00    +0.307 C 
ATOM     20  O   LIG A   1      -8.769   6.201 133.605  0.00  0.00    -0.251 OA
BRANCH  19  21
ATOM     21  C   LIG A   1      -7.381   5.036 135.193  0.00  0.00    +0.120 C 
BRANCH  21  22
ATOM     22  C   LIG A   1      -5.882   4.779 135.034  0.00  0.00    +0.008 C 
ATOM     23  C   LIG A   1      -5.369   3.740 136.018  0.00  0.00    +0.004 C 
ENDBRANCH  21  22
ENDBRANCH  19  21
ENDBRANCH  18  19
ENDBRANCH   3  18
BRANCH   4  24
ATOM     24  O   LIG A   1      -8.234   5.110 130.146  0.00  0.00    -0.457 OA
BRANCH  24  25
ATOM     25  C   LIG A   1      -9.509   5.556 129.966  0.00  0.00    +0.304 C 
ATOM     26  C   LIG A   1      -9.616   7.015 130.331  0.00  0.00    +0.136 C 
ATOM     27  O   LIG A   1     -10.462   4.881 129.596  0.00  0.00    -0.251 OA
ENDBRANCH  24  25
ENDBRANCH   4  24
BRANCH   7  28
ATOM     28  O   LIG A   1      -3.894   4.819 128.835  0.00  0.00    -0.431 OA
BRANCH  28  29
ATOM     29  C   LIG A   1      -3.473   6.018 128.357  0.00  0.00    +0.306 C 
ATOM     30  C   LIG A   1      -2.126   6.373 128.918  0.00  0.00    +0.136 C 
ATOM     31  O   LIG A   1      -4.114   6.755 127.632  0.00  0.00    -0.251 OA
ENDBRANCH  28  29
ENDBRANCH   7  28
BRANCH   9  32
ATOM     32  O   LIG A   1      -6.288   1.575 128.279  0.00  0.00    -0.434 OA
BRANCH  32  33
ATOM     33  C   LIG A   1      -6.655   1.284 126.983  0.00  0.00    +0.306 C 
ATOM     34  C   LIG A   1      -5.487   0.656 126.251  0.00  0.00    +0.136 C 
ATOM     35  O   LIG A   1      -7.695   1.587 126.452  0.00  0.00    -0.251 OA
ENDBRANCH  32  33
ENDBRANCH   9  32
BRANCH  14  36
ATOM     36  C   LIG A   1      -8.021  -0.210 132.035  0.00  0.00    +0.034 C 
BRANCH  36  37
ATOM     37  C   LIG A   1      -7.981  -0.645 130.582  0.00  0.00    -0.023 C 
ATOM     38  C   LIG A   1      -7.626  -1.821 130.028  0.00  0.00    -0.055 C 
ATOM     39  C   LIG A   1      -7.585  -1.972 128.524  0.00  0.00    +0.043 C 
BRANCH  38  40
ATOM     40  C   LIG A   1      -7.221  -2.998 130.766  0.00  0.00    -0.005 C 
ATOM     41  C   LIG A   1      -6.418  -3.944 130.267  0.00  0.00    +0.008 C 
ENDBRANCH  38  40
ENDBRANCH  36  37
ENDBRANCH  14  36
TORSDOF 14
ENDMDL
MODEL 9
REMARK VINA RESULT:      -6.7      2.274      5.915
REMARK  Name = NuBBE_236
REMARK  22 active torsions:
REMARK  status: ('A' for Active; 'I' for Inactive)
REMARK    1  A    between atoms: C_1  and  C_2
REMARK    2  A    between atoms: C_4  and  O_6
REMARK    3  A    between atoms: O_6  and  C_7
REMARK    4  A    between atoms: C_7  and  C_8
REMARK    5  A    between atoms: C_8  and  C_9
REMARK    6  A    between atoms: C_9  and  C_10
REMARK    7  A    between atoms: C_12  and  O_14
REMARK    8  A    between atoms: O_14  and  C_15
REMARK    9  A    between atoms: C_15  and  C_16
REMARK   10  A    between atoms: C_20  and  O_22
REMARK   11  A    between atoms: O_22  and  C_23
REMARK   12  A    between atoms: C_23  and  C_24
REMARK   13  A    between atoms: C_27  and  O_29
REMARK   14  A    between atoms: O_29  and  C_30
REMARK   15  A    between atoms: C_30  and  C_31
REMARK   16  A    between atoms: C_34  and  O_36
REMARK   17  A    between atoms: O_36  and  C_37
REMARK   18  A    between atoms: C_41  and  C_42
REMARK   19  A    between atoms: C_41  and  C_43
REMARK   20  A    between atoms: C_43  and  C_44
REMARK   21  A    between atoms: C_45  and  C_46
REMARK   22  A    between atoms: C_45  and  C_48
REMARK                            x       y       z     vdW  Elec       q    Type
REMARK                         _______ _______ _______ _____ _____    ______ ____
ROOT
ATOM      1  C   LIG A   1      -4.634   1.906 126.738  0.00  0.00    +0.012 C 
ATOM      2  C   LIG A   1      -5.780   1.249 127.541  0.00  0.00    +0.037 C 
ATOM      3  C   LIG A   1      -7.107   1.835 127.020  0.00  0.00    +0.221 C 
ATOM      4  C   LIG A   1      -7.214   3.313 127.455  0.00  0.00    +0.234 C 
ATOM      5  C   LIG A   1      -7.397   3.525 128.991  0.00  0.00    +0.104 C 
ATOM      6  C   LIG A   1      -8.859   3.472 129.437  0.00  0.00    +0.013 C 
ATOM      7  C   LIG A   1      -9.461   4.849 129.406  0.00  0.00    +0.343 C 
ATOM      8  O   LIG A   1      -8.350   5.742 129.525  0.00  0.00    -0.297 OA
ATOM      9  C   LIG A   1      -7.109   5.068 129.263  0.00  0.00    +0.328 C 
ATOM     10  C   LIG A   1      -9.424   2.448 130.101  0.00  0.00    +0.010 C 
ATOM     11  C   LIG A   1      -8.618   1.436 130.833  0.00  0.00    +0.141 C 
ATOM     12  C   LIG A   1      -7.234   2.067 131.095  0.00  0.00    +0.041 C 
ATOM     13  C   LIG A   1      -6.475   2.514 129.813  0.00  0.00    +0.018 C 
ATOM     14  C   LIG A   1      -5.647   1.297 129.112  0.00  0.00    -0.018 C 
ATOM     15  C   LIG A   1      -6.079  -0.108 129.644  0.00  0.00    +0.012 C 
ENDROOT
BRANCH  11  16
ATOM     16  O   LIG A   1      -9.326   1.241 132.066  0.00  0.00    -0.376 OA
ATOM     17  C   LIG A   1      -9.392   2.394 132.887  0.00  0.00    +0.194 C 
ENDBRANCH  11  16
BRANCH   3  18
ATOM     18  O   LIG A   1      -8.289   1.101 127.404  0.00  0.00    -0.457 OA
BRANCH  18  19
ATOM     19  C   LIG A   1      -8.976   0.512 126.381  0.00  0.00    +0.307 C 
ATOM     20  O   LIG A   1      -9.827   1.064 125.693  0.00  0.00    -0.251 OA
BRANCH  19  21
ATOM     21  C   LIG A   1      -8.658  -0.959 126.281  0.00  0.00    +0.120 C 
BRANCH  21  22
ATOM     22  C   LIG A   1      -7.651  -1.198 125.154  0.00  0.00    +0.008 C 
ATOM     23  C   LIG A   1      -7.879  -2.528 124.452  0.00  0.00    +0.004 C 
ENDBRANCH  21  22
ENDBRANCH  19  21
ENDBRANCH  18  19
ENDBRANCH   3  18
BRANCH   4  24
ATOM     24  O   LIG A   1      -8.250   3.946 126.659  0.00  0.00    -0.457 OA
BRANCH  24  25
ATOM     25  C   LIG A   1      -7.905   4.184 125.363  0.00  0.00    +0.304 C 
ATOM     26  C   LIG A   1      -6.676   5.054 125.293  0.00  0.00    +0.136 C 
ATOM     27  O   LIG A   1      -8.511   3.790 124.374  0.00  0.00    -0.251 OA
ENDBRANCH  24  25
ENDBRANCH   4  24
BRANCH   7  28
ATOM     28  O   LIG A   1     -10.307   5.103 130.541  0.00  0.00    -0.431 OA
BRANCH  28  29
ATOM     29  C   LIG A   1     -11.474   5.745 130.280  0.00  0.00    +0.306 C 
ATOM     30  C   LIG A   1     -11.913   6.557 131.466  0.00  0.00    +0.136 C 
ATOM     31  O   LIG A   1     -12.130   5.635 129.262  0.00  0.00    -0.251 OA
ENDBRANCH  28  29
ENDBRANCH   7  28
BRANCH   9  32
ATOM     32  O   LIG A   1      -6.247   5.332 130.380  0.00  0.00    -0.434 OA
BRANCH  32  33
ATOM     33  C   LIG A   1      -6.576   6.489 131.053  0.00  0.00    +0.306 C 
ATOM     34  C   LIG A   1      -7.231   6.142 132.373  0.00  0.00    +0.136 C 
ATOM     35  O   LIG A   1      -6.483   7.613 130.625  0.00  0.00    -0.251 OA
ENDBRANCH  32  33
ENDBRANCH   9  32
BRANCH  14  36
ATOM     36  C   LIG A   1      -4.124   1.437 129.593  0.00  0.00    +0.034 C 
BRANCH  36  37
ATOM     37  C   LIG A   1      -3.785   2.662 130.421  0.00  0.00    -0.023 C 
ATOM     38  C   LIG A   1      -3.275   3.854 130.056  0.00  0.00    -0.055 C 
ATOM     39  C   LIG A   1      -2.938   4.890 131.104  0.00  0.00    +0.043 C 
BRANCH  38  40
ATOM     40  C   LIG A   1      -2.963   4.244 128.698  0.00  0.00    -0.005 C 
ATOM     41  C   LIG A   1      -3.528   5.286 128.078  0.00  0.00    +0.008 C 
ENDBRANCH  38  40
ENDBRANCH  36  37
ENDBRANCH  14  36
TORSDOF 14
ENDMDL
