MODEL 1
REMARK VINA RESULT:      -7.3      0.000      0.000
REMARK  Name = NuBBE_2315
REMARK  9 active torsions:
REMARK  status: ('A' for Active; 'I' for Inactive)
REMARK    1  A    between atoms: C_1  and  C_28
REMARK    2  A    between atoms: C_3  and  C_4
REMARK    3  A    between atoms: C_17  and  O_18
REMARK    4  A    between atoms: O_18  and  C_19
REMARK    5  A    between atoms: C_20  and  O_24
REMARK    6  A    between atoms: C_21  and  O_22
REMARK    7  A    between atoms: O_22  and  C_23
REMARK    8  A    between atoms: O_24  and  C_25
REMARK    9  A    between atoms: C_25  and  C_26
REMARK                            x       y       z     vdW  Elec       q    Type
REMARK                         _______ _______ _______ _____ _____    ______ ____
ROOT
ATOM      1  C   LIG A   1      -9.783   1.169 123.931  0.00  0.00    +0.065 C 
ATOM      2  C   LIG A   1      -9.075   2.531 124.131  0.00  0.00    +0.211 C 
ATOM      3  O   LIG A   1      -8.293   2.447 125.362  0.00  0.00    -0.479 OA
ATOM      4  C   LIG A   1      -8.077   1.100 125.545  0.00  0.00    +0.170 A 
ATOM      5  C   LIG A   1      -8.847   0.311 124.705  0.00  0.00    +0.008 A 
ATOM      6  C   LIG A   1      -8.721  -1.065 124.714  0.00  0.00    +0.057 A 
ATOM      7  C   LIG A   1      -7.785  -1.658 125.570  0.00  0.00    +0.166 A 
ATOM      8  C   LIG A   1      -7.047  -0.856 126.474  0.00  0.00    +0.208 A 
ATOM      9  C   LIG A   1      -7.165   0.544 126.427  0.00  0.00    +0.208 A 
ATOM     10  C   LIG A   1     -10.073   0.730 122.503  0.00  0.00    +0.016 C 
ENDROOT
BRANCH   2  11
ATOM     11  C   LIG A   1      -8.198   3.022 122.984  0.00  0.00    -0.003 A 
ATOM     12  C   LIG A   1      -6.797   3.105 123.170  0.00  0.00    +0.011 A 
ATOM     13  C   LIG A   1      -5.951   3.541 122.143  0.00  0.00    +0.050 A 
ATOM     14  C   LIG A   1      -6.529   3.885 120.941  0.00  0.00    +0.166 A 
ATOM     15  C   LIG A   1      -7.886   3.820 120.748  0.00  0.00    +0.167 A 
ATOM     16  C   LIG A   1      -8.742   3.404 121.744  0.00  0.00    +0.056 A 
ATOM     17  O   LIG A   1      -8.253   4.198 119.495  0.00  0.00    -0.453 OA
ATOM     18  C   LIG A   1      -6.966   4.483 118.912  0.00  0.00    +0.466 C 
ATOM     19  O   LIG A   1      -5.868   4.313 119.833  0.00  0.00    -0.453 OA
ENDBRANCH   2  11
BRANCH   7  20
ATOM     20  O   LIG A   1      -7.619  -3.020 125.631  0.00  0.00    -0.491 OA
ATOM     21  C   LIG A   1      -8.099  -3.748 124.503  0.00  0.00    +0.277 C 
ENDBRANCH   7  20
BRANCH   9  22
ATOM     22  O   LIG A   1      -6.403   1.347 127.230  0.00  0.00    -0.488 OA
ATOM     23  C   LIG A   1      -5.194   1.705 126.559  0.00  0.00    +0.277 C 
ENDBRANCH   9  22
BRANCH   8  24
ATOM     24  O   LIG A   1      -6.159  -1.488 127.317  0.00  0.00    -0.481 OA
BRANCH  24  25
ATOM     25  C   LIG A   1      -6.586  -1.462 128.680  0.00  0.00    +0.256 C 
BRANCH  25  26
ATOM     26  C   LIG A   1      -7.015  -2.857 129.051  0.00  0.00    +0.006 C 
ATOM     27  C   LIG A   1      -8.270  -3.296 129.042  0.00  0.00    +0.007 C 
ENDBRANCH  25  26
ENDBRANCH  24  25
ENDBRANCH   8  24
TORSDOF 6
ENDMDL
MODEL 2
REMARK VINA RESULT:      -7.2      6.266      8.598
REMARK  Name = NuBBE_2315
REMARK  9 active torsions:
REMARK  status: ('A' for Active; 'I' for Inactive)
REMARK    1  A    between atoms: C_1  and  C_28
REMARK    2  A    between atoms: C_3  and  C_4
REMARK    3  A    between atoms: C_17  and  O_18
REMARK    4  A    between atoms: O_18  and  C_19
REMARK    5  A    between atoms: C_20  and  O_24
REMARK    6  A    between atoms: C_21  and  O_22
REMARK    7  A    between atoms: O_22  and  C_23
REMARK    8  A    between atoms: O_24  and  C_25
REMARK    9  A    between atoms: C_25  and  C_26
REMARK                            x       y       z     vdW  Elec       q    Type
REMARK                         _______ _______ _______ _____ _____    ______ ____
ROOT
ATOM      1  C   LIG A   1      -8.670   3.963 131.603  0.00  0.00    +0.065 C 
ATOM      2  C   LIG A   1      -8.776   5.463 131.973  0.00  0.00    +0.211 C 
ATOM      3  O   LIG A   1      -7.496   6.089 131.655  0.00  0.00    -0.479 OA
ATOM      4  C   LIG A   1      -6.933   5.266 130.706  0.00  0.00    +0.170 A 
ATOM      5  C   LIG A   1      -7.601   4.060 130.574  0.00  0.00    +0.008 A 
ATOM      6  C   LIG A   1      -7.206   3.131 129.630  0.00  0.00    +0.057 A 
ATOM      7  C   LIG A   1      -6.131   3.434 128.786  0.00  0.00    +0.166 A 
ATOM      8  C   LIG A   1      -5.408   4.638 128.965  0.00  0.00    +0.208 A 
ATOM      9  C   LIG A   1      -5.845   5.584 129.909  0.00  0.00    +0.208 A 
ATOM     10  C   LIG A   1      -9.948   3.251 131.183  0.00  0.00    +0.016 C 
ENDROOT
BRANCH   2  11
ATOM     11  C   LIG A   1      -9.918   6.247 131.335  0.00  0.00    -0.003 A 
ATOM     12  C   LIG A   1     -11.172   6.301 131.992  0.00  0.00    +0.011 A 
ATOM     13  C   LIG A   1     -12.246   7.016 131.449  0.00  0.00    +0.050 A 
ATOM     14  C   LIG A   1     -12.043   7.668 130.253  0.00  0.00    +0.166 A 
ATOM     15  C   LIG A   1     -10.837   7.617 129.599  0.00  0.00    +0.167 A 
ATOM     16  C   LIG A   1      -9.766   6.913 130.105  0.00  0.00    +0.056 A 
ATOM     17  O   LIG A   1     -10.842   8.328 128.441  0.00  0.00    -0.453 OA
ATOM     18  C   LIG A   1     -12.183   8.856 128.454  0.00  0.00    +0.466 C 
ATOM     19  O   LIG A   1     -12.961   8.419 129.589  0.00  0.00    -0.453 OA
ENDBRANCH   2  11
BRANCH   7  20
ATOM     20  O   LIG A   1      -5.686   2.550 127.834  0.00  0.00    -0.491 OA
ATOM     21  C   LIG A   1      -5.257   1.281 128.325  0.00  0.00    +0.277 C 
ENDBRANCH   7  20
BRANCH   9  22
ATOM     22  O   LIG A   1      -5.218   6.791 130.047  0.00  0.00    -0.488 OA
ATOM     23  C   LIG A   1      -4.281   6.738 131.123  0.00  0.00    +0.277 C 
ENDBRANCH   9  22
BRANCH   8  24
ATOM     24  O   LIG A   1      -4.340   4.878 128.130  0.00  0.00    -0.481 OA
BRANCH  24  25
ATOM     25  C   LIG A   1      -3.113   4.356 128.646  0.00  0.00    +0.256 C 
BRANCH  25  26
ATOM     26  C   LIG A   1      -2.216   4.057 127.475  0.00  0.00    +0.006 C 
ATOM     27  C   LIG A   1      -2.337   3.004 126.671  0.00  0.00    +0.007 C 
ENDBRANCH  25  26
ENDBRANCH  24  25
ENDBRANCH   8  24
TORSDOF 6
ENDMDL
MODEL 3
REMARK VINA RESULT:      -7.1      2.319      2.940
REMARK  Name = NuBBE_2315
REMARK  9 active torsions:
REMARK  status: ('A' for Active; 'I' for Inactive)
REMARK    1  A    between atoms: C_1  and  C_28
REMARK    2  A    between atoms: C_3  and  C_4
REMARK    3  A    between atoms: C_17  and  O_18
REMARK    4  A    between atoms: O_18  and  C_19
REMARK    5  A    between atoms: C_20  and  O_24
REMARK    6  A    between atoms: C_21  and  O_22
REMARK    7  A    between atoms: O_22  and  C_23
REMARK    8  A    between atoms: O_24  and  C_25
REMARK    9  A    between atoms: C_25  and  C_26
REMARK                            x       y       z     vdW  Elec       q    Type
REMARK                         _______ _______ _______ _____ _____    ______ ____
ROOT
ATOM      1  C   LIG A   1      -8.499   0.181 124.643  0.00  0.00    +0.065 C 
ATOM      2  C   LIG A   1      -8.824   1.685 124.469  0.00  0.00    +0.211 C 
ATOM      3  O   LIG A   1      -9.181   2.216 125.781  0.00  0.00    -0.479 OA
ATOM      4  C   LIG A   1      -8.590   1.355 126.677  0.00  0.00    +0.170 A 
ATOM      5  C   LIG A   1      -8.112   0.199 126.079  0.00  0.00    +0.008 A 
ATOM      6  C   LIG A   1      -7.442  -0.755 126.819  0.00  0.00    +0.057 A 
ATOM      7  C   LIG A   1      -7.227  -0.532 128.185  0.00  0.00    +0.166 A 
ATOM      8  C   LIG A   1      -7.773   0.617 128.807  0.00  0.00    +0.208 A 
ATOM      9  C   LIG A   1      -8.424   1.592 128.032  0.00  0.00    +0.208 A 
ATOM     10  C   LIG A   1      -7.493  -0.438 123.683  0.00  0.00    +0.016 C 
ENDROOT
BRANCH   2  11
ATOM     11  C   LIG A   1      -7.744   2.549 123.826  0.00  0.00    -0.003 A 
ATOM     12  C   LIG A   1      -6.740   3.122 124.644  0.00  0.00    +0.011 A 
ATOM     13  C   LIG A   1      -5.723   3.915 124.097  0.00  0.00    +0.050 A 
ATOM     14  C   LIG A   1      -5.730   4.116 122.735  0.00  0.00    +0.166 A 
ATOM     15  C   LIG A   1      -6.702   3.575 121.931  0.00  0.00    +0.167 A 
ATOM     16  C   LIG A   1      -7.720   2.801 122.442  0.00  0.00    +0.056 A 
ATOM     17  O   LIG A   1      -6.527   3.889 120.620  0.00  0.00    -0.453 OA
ATOM     18  C   LIG A   1      -5.315   4.668 120.688  0.00  0.00    +0.466 C 
ATOM     19  O   LIG A   1      -4.818   4.840 122.032  0.00  0.00    -0.453 OA
ENDBRANCH   2  11
BRANCH   7  20
ATOM     20  O   LIG A   1      -6.575  -1.446 128.976  0.00  0.00    -0.491 OA
ATOM     21  C   LIG A   1      -6.935  -2.810 128.763  0.00  0.00    +0.277 C 
ENDBRANCH   7  20
BRANCH   9  22
ATOM     22  O   LIG A   1      -8.887   2.751 128.591  0.00  0.00    -0.488 OA
ATOM     23  C   LIG A   1      -7.881   3.763 128.525  0.00  0.00    +0.277 C 
ENDBRANCH   9  22
BRANCH   8  24
ATOM     24  O   LIG A   1      -7.561   0.779 130.159  0.00  0.00    -0.481 OA
BRANCH  24  25
ATOM     25  C   LIG A   1      -8.557   0.129 130.951  0.00  0.00    +0.256 C 
BRANCH  25  26
ATOM     26  C   LIG A   1      -9.010   1.104 132.005  0.00  0.00    +0.006 C 
ATOM     27  C   LIG A   1     -10.003   1.976 131.861  0.00  0.00    +0.007 C 
ENDBRANCH  25  26
ENDBRANCH  24  25
ENDBRANCH   8  24
TORSDOF 6
ENDMDL
MODEL 4
REMARK VINA RESULT:      -6.9      7.771      9.891
REMARK  Name = NuBBE_2315
REMARK  9 active torsions:
REMARK  status: ('A' for Active; 'I' for Inactive)
REMARK    1  A    between atoms: C_1  and  C_28
REMARK    2  A    between atoms: C_3  and  C_4
REMARK    3  A    between atoms: C_17  and  O_18
REMARK    4  A    between atoms: O_18  and  C_19
REMARK    5  A    between atoms: C_20  and  O_24
REMARK    6  A    between atoms: C_21  and  O_22
REMARK    7  A    between atoms: O_22  and  C_23
REMARK    8  A    between atoms: O_24  and  C_25
REMARK    9  A    between atoms: C_25  and  C_26
REMARK                            x       y       z     vdW  Elec       q    Type
REMARK                         _______ _______ _______ _____ _____    ______ ____
ROOT
ATOM      1  C   LIG A   1      -8.224   3.657 133.390  0.00  0.00    +0.065 C 
ATOM      2  C   LIG A   1      -8.476   5.174 133.569  0.00  0.00    +0.211 C 
ATOM      3  O   LIG A   1      -7.177   5.825 133.719  0.00  0.00    -0.479 OA
ATOM      4  C   LIG A   1      -6.285   4.959 133.129  0.00  0.00    +0.170 A 
ATOM      5  C   LIG A   1      -6.840   3.721 132.847  0.00  0.00    +0.008 A 
ATOM      6  C   LIG A   1      -6.104   2.744 132.206  0.00  0.00    +0.057 A 
ATOM      7  C   LIG A   1      -4.788   3.026 131.820  0.00  0.00    +0.166 A 
ATOM      8  C   LIG A   1      -4.201   4.267 132.167  0.00  0.00    +0.208 A 
ATOM      9  C   LIG A   1      -4.975   5.260 132.790  0.00  0.00    +0.208 A 
ATOM     10  C   LIG A   1      -9.233   2.868 132.569  0.00  0.00    +0.016 C 
ENDROOT
BRANCH   2  11
ATOM     11  C   LIG A   1      -9.288   5.867 132.480  0.00  0.00    -0.003 A 
ATOM     12  C   LIG A   1      -8.615   6.435 131.371  0.00  0.00    +0.011 A 
ATOM     13  C   LIG A   1      -9.320   7.072 130.342  0.00  0.00    +0.050 A 
ATOM     14  C   LIG A   1     -10.692   7.125 130.443  0.00  0.00    +0.166 A 
ATOM     15  C   LIG A   1     -11.358   6.588 131.516  0.00  0.00    +0.167 A 
ATOM     16  C   LIG A   1     -10.690   5.964 132.548  0.00  0.00    +0.056 A 
ATOM     17  O   LIG A   1     -12.706   6.742 131.423  0.00  0.00    -0.453 OA
ATOM     18  C   LIG A   1     -12.813   7.415 130.153  0.00  0.00    +0.466 C 
ATOM     19  O   LIG A   1     -11.537   7.687 129.537  0.00  0.00    -0.453 OA
ENDBRANCH   2  11
BRANCH   7  20
ATOM     20  O   LIG A   1      -4.002   2.095 131.187  0.00  0.00    -0.491 OA
ATOM     21  C   LIG A   1      -4.357   1.808 129.835  0.00  0.00    +0.277 C 
ENDBRANCH   7  20
BRANCH   9  22
ATOM     22  O   LIG A   1      -4.460   6.497 133.061  0.00  0.00    -0.488 OA
ATOM     23  C   LIG A   1      -3.905   6.520 134.377  0.00  0.00    +0.277 C 
ENDBRANCH   9  22
BRANCH   8  24
ATOM     24  O   LIG A   1      -2.894   4.487 131.791  0.00  0.00    -0.481 OA
BRANCH  24  25
ATOM     25  C   LIG A   1      -2.791   5.141 130.524  0.00  0.00    +0.256 C 
BRANCH  25  26
ATOM     26  C   LIG A   1      -1.801   6.266 130.670  0.00  0.00    +0.006 C 
ATOM     27  C   LIG A   1      -1.107   6.532 131.773  0.00  0.00    +0.007 C 
ENDBRANCH  25  26
ENDBRANCH  24  25
ENDBRANCH   8  24
TORSDOF 6
ENDMDL
MODEL 5
REMARK VINA RESULT:      -6.8      5.134      7.813
REMARK  Name = NuBBE_2315
REMARK  9 active torsions:
REMARK  status: ('A' for Active; 'I' for Inactive)
REMARK    1  A    between atoms: C_1  and  C_28
REMARK    2  A    between atoms: C_3  and  C_4
REMARK    3  A    between atoms: C_17  and  O_18
REMARK    4  A    between atoms: O_18  and  C_19
REMARK    5  A    between atoms: C_20  and  O_24
REMARK    6  A    between atoms: C_21  and  O_22
REMARK    7  A    between atoms: O_22  and  C_23
REMARK    8  A    between atoms: O_24  and  C_25
REMARK    9  A    between atoms: C_25  and  C_26
REMARK                            x       y       z     vdW  Elec       q    Type
REMARK                         _______ _______ _______ _____ _____    ______ ____
ROOT
ATOM      1  C   LIG A   1      -8.089   2.466 130.679  0.00  0.00    +0.065 C 
ATOM      2  C   LIG A   1      -7.914   3.992 130.870  0.00  0.00    +0.211 C 
ATOM      3  O   LIG A   1      -7.129   4.492 129.745  0.00  0.00    -0.479 OA
ATOM      4  C   LIG A   1      -7.317   3.561 128.750  0.00  0.00    +0.170 A 
ATOM      5  C   LIG A   1      -7.929   2.403 129.202  0.00  0.00    +0.008 A 
ATOM      6  C   LIG A   1      -8.243   1.380 128.328  0.00  0.00    +0.057 A 
ATOM      7  C   LIG A   1      -7.956   1.536 126.966  0.00  0.00    +0.166 A 
ATOM      8  C   LIG A   1      -7.272   2.691 126.516  0.00  0.00    +0.208 A 
ATOM      9  C   LIG A   1      -6.990   3.734 127.414  0.00  0.00    +0.208 A 
ATOM     10  C   LIG A   1      -9.347   1.825 131.248  0.00  0.00    +0.016 C 
ENDROOT
BRANCH   2  11
ATOM     11  C   LIG A   1      -9.190   4.813 131.028  0.00  0.00    -0.003 A 
ATOM     12  C   LIG A   1      -9.490   5.390 132.286  0.00  0.00    +0.011 A 
ATOM     13  C   LIG A   1     -10.645   6.158 132.476  0.00  0.00    +0.050 A 
ATOM     14  C   LIG A   1     -11.479   6.338 131.396  0.00  0.00    +0.166 A 
ATOM     15  C   LIG A   1     -11.207   5.777 130.172  0.00  0.00    +0.167 A 
ATOM     16  C   LIG A   1     -10.084   5.008 129.960  0.00  0.00    +0.056 A 
ATOM     17  O   LIG A   1     -12.151   6.077 129.241  0.00  0.00    -0.453 OA
ATOM     18  C   LIG A   1     -13.035   6.914 130.012  0.00  0.00    +0.466 C 
ATOM     19  O   LIG A   1     -12.630   7.062 131.389  0.00  0.00    -0.453 OA
ENDBRANCH   2  11
BRANCH   7  20
ATOM     20  O   LIG A   1      -8.237   0.553 126.050  0.00  0.00    -0.491 OA
ATOM     21  C   LIG A   1      -9.620   0.358 125.761  0.00  0.00    +0.277 C 
ENDBRANCH   7  20
BRANCH   9  22
ATOM     22  O   LIG A   1      -6.406   4.896 126.991  0.00  0.00    -0.488 OA
ATOM     23  C   LIG A   1      -4.984   4.772 127.028  0.00  0.00    +0.277 C 
ENDBRANCH   9  22
BRANCH   8  24
ATOM     24  O   LIG A   1      -6.986   2.785 125.171  0.00  0.00    -0.481 OA
BRANCH  24  25
ATOM     25  C   LIG A   1      -7.970   3.532 124.453  0.00  0.00    +0.256 C 
BRANCH  25  26
ATOM     26  C   LIG A   1      -8.095   2.923 123.082  0.00  0.00    +0.006 C 
ATOM     27  C   LIG A   1      -9.135   2.214 122.655  0.00  0.00    +0.007 C 
ENDBRANCH  25  26
ENDBRANCH  24  25
ENDBRANCH   8  24
TORSDOF 6
ENDMDL
MODEL 6
REMARK VINA RESULT:      -6.7      2.810      5.007
REMARK  Name = NuBBE_2315
REMARK  9 active torsions:
REMARK  status: ('A' for Active; 'I' for Inactive)
REMARK    1  A    between atoms: C_1  and  C_28
REMARK    2  A    between atoms: C_3  and  C_4
REMARK    3  A    between atoms: C_17  and  O_18
REMARK    4  A    between atoms: O_18  and  C_19
REMARK    5  A    between atoms: C_20  and  O_24
REMARK    6  A    between atoms: C_21  and  O_22
REMARK    7  A    between atoms: O_22  and  C_23
REMARK    8  A    between atoms: O_24  and  C_25
REMARK    9  A    between atoms: C_25  and  C_26
REMARK                            x       y       z     vdW  Elec       q    Type
REMARK                         _______ _______ _______ _____ _____    ______ ____
ROOT
ATOM      1  C   LIG A   1      -7.031   3.753 123.668  0.00  0.00    +0.065 C 
ATOM      2  C   LIG A   1      -7.088   4.341 125.099  0.00  0.00    +0.211 C 
ATOM      3  O   LIG A   1      -8.094   3.592 125.846  0.00  0.00    -0.479 OA
ATOM      4  C   LIG A   1      -8.189   2.387 125.189  0.00  0.00    +0.170 A 
ATOM      5  C   LIG A   1      -7.539   2.387 123.965  0.00  0.00    +0.008 A 
ATOM      6  C   LIG A   1      -7.487   1.244 123.191  0.00  0.00    +0.057 A 
ATOM      7  C   LIG A   1      -8.081   0.069 123.670  0.00  0.00    +0.166 A 
ATOM      8  C   LIG A   1      -8.800   0.088 124.889  0.00  0.00    +0.208 A 
ATOM      9  C   LIG A   1      -8.815   1.251 125.677  0.00  0.00    +0.208 A 
ATOM     10  C   LIG A   1      -5.704   3.830 122.927  0.00  0.00    +0.016 C 
ENDROOT
BRANCH   2  11
ATOM     11  C   LIG A   1      -5.775   4.379 125.876  0.00  0.00    -0.003 A 
ATOM     12  C   LIG A   1      -4.968   3.217 125.928  0.00  0.00    +0.011 A 
ATOM     13  C   LIG A   1      -3.751   3.208 126.621  0.00  0.00    +0.050 A 
ATOM     14  C   LIG A   1      -3.363   4.370 127.249  0.00  0.00    +0.166 A 
ATOM     15  C   LIG A   1      -4.140   5.502 127.217  0.00  0.00    +0.167 A 
ATOM     16  C   LIG A   1      -5.346   5.536 126.552  0.00  0.00    +0.056 A 
ATOM     17  O   LIG A   1      -3.578   6.538 127.894  0.00  0.00    -0.453 OA
ATOM     18  C   LIG A   1      -2.345   5.936 128.334  0.00  0.00    +0.466 C 
ATOM     19  O   LIG A   1      -2.213   4.550 127.952  0.00  0.00    -0.453 OA
ENDBRANCH   2  11
BRANCH   7  20
ATOM     20  O   LIG A   1      -8.069  -1.096 122.944  0.00  0.00    -0.491 OA
ATOM     21  C   LIG A   1      -6.778  -1.628 122.656  0.00  0.00    +0.277 C 
ENDBRANCH   7  20
BRANCH   9  22
ATOM     22  O   LIG A   1      -9.430   1.273 126.898  0.00  0.00    -0.488 OA
ATOM     23  C   LIG A   1      -8.454   1.244 127.940  0.00  0.00    +0.277 C 
ENDBRANCH   9  22
BRANCH   8  24
ATOM     24  O   LIG A   1      -9.392  -1.085 125.304  0.00  0.00    -0.481 OA
BRANCH  24  25
ATOM     25  C   LIG A   1      -8.517  -1.889 126.098  0.00  0.00    +0.256 C 
BRANCH  25  26
ATOM     26  C   LIG A   1      -8.827  -3.332 125.799  0.00  0.00    +0.006 C 
ATOM     27  C   LIG A   1      -8.208  -4.071 124.884  0.00  0.00    +0.007 C 
ENDBRANCH  25  26
ENDBRANCH  24  25
ENDBRANCH   8  24
TORSDOF 6
ENDMDL
MODEL 7
REMARK VINA RESULT:      -6.7      4.108      8.033
REMARK  Name = NuBBE_2315
REMARK  9 active torsions:
REMARK  status: ('A' for Active; 'I' for Inactive)
REMARK    1  A    between atoms: C_1  and  C_28
REMARK    2  A    between atoms: C_3  and  C_4
REMARK    3  A    between atoms: C_17  and  O_18
REMARK    4  A    between atoms: O_18  and  C_19
REMARK    5  A    between atoms: C_20  and  O_24
REMARK    6  A    between atoms: C_21  and  O_22
REMARK    7  A    between atoms: O_22  and  C_23
REMARK    8  A    between atoms: O_24  and  C_25
REMARK    9  A    between atoms: C_25  and  C_26
REMARK                            x       y       z     vdW  Elec       q    Type
REMARK                         _______ _______ _______ _____ _____    ______ ____
ROOT
ATOM      1  C   LIG A   1      -3.112   4.053 126.629  0.00  0.00    +0.065 C 
ATOM      2  C   LIG A   1      -3.521   5.207 127.577  0.00  0.00    +0.211 C 
ATOM      3  O   LIG A   1      -4.950   5.446 127.392  0.00  0.00    -0.479 OA
ATOM      4  C   LIG A   1      -5.438   4.262 126.887  0.00  0.00    +0.170 A 
ATOM      5  C   LIG A   1      -4.436   3.388 126.498  0.00  0.00    +0.008 A 
ATOM      6  C   LIG A   1      -4.741   2.130 126.016  0.00  0.00    +0.057 A 
ATOM      7  C   LIG A   1      -6.083   1.735 125.946  0.00  0.00    +0.166 A 
ATOM      8  C   LIG A   1      -7.108   2.652 126.282  0.00  0.00    +0.208 A 
ATOM      9  C   LIG A   1      -6.777   3.916 126.801  0.00  0.00    +0.208 A 
ATOM     10  C   LIG A   1      -1.953   3.165 127.060  0.00  0.00    +0.016 C 
ENDROOT
BRANCH   2  11
ATOM     11  C   LIG A   1      -3.206   5.021 129.058  0.00  0.00    -0.003 A 
ATOM     12  C   LIG A   1      -2.371   5.960 129.711  0.00  0.00    +0.011 A 
ATOM     13  C   LIG A   1      -2.062   5.836 131.070  0.00  0.00    +0.050 A 
ATOM     14  C   LIG A   1      -2.599   4.768 131.754  0.00  0.00    +0.166 A 
ATOM     15  C   LIG A   1      -3.402   3.844 131.134  0.00  0.00    +0.167 A 
ATOM     16  C   LIG A   1      -3.714   3.936 129.795  0.00  0.00    +0.056 A 
ATOM     17  O   LIG A   1      -3.831   2.873 131.983  0.00  0.00    -0.453 OA
ATOM     18  C   LIG A   1      -3.228   3.309 133.218  0.00  0.00    +0.466 C 
ATOM     19  O   LIG A   1      -2.421   4.497 133.075  0.00  0.00    -0.453 OA
ENDBRANCH   2  11
BRANCH   7  20
ATOM     20  O   LIG A   1      -6.452   0.501 125.469  0.00  0.00    -0.491 OA
ATOM     21  C   LIG A   1      -5.575  -0.573 125.801  0.00  0.00    +0.277 C 
ENDBRANCH   7  20
BRANCH   9  22
ATOM     22  O   LIG A   1      -7.744   4.790 127.213  0.00  0.00    -0.488 OA
ATOM     23  C   LIG A   1      -8.105   4.520 128.567  0.00  0.00    +0.277 C 
ENDBRANCH   9  22
BRANCH   8  24
ATOM     24  O   LIG A   1      -8.414   2.227 126.170  0.00  0.00    -0.481 OA
BRANCH  24  25
ATOM     25  C   LIG A   1      -8.998   2.579 124.914  0.00  0.00    +0.256 C 
BRANCH  25  26
ATOM     26  C   LIG A   1      -9.842   1.417 124.461  0.00  0.00    +0.006 C 
ATOM     27  C   LIG A   1     -10.007   1.042 123.197  0.00  0.00    +0.007 C 
ENDBRANCH  25  26
ENDBRANCH  24  25
ENDBRANCH   8  24
TORSDOF 6
ENDMDL
MODEL 8
REMARK VINA RESULT:      -6.5      4.145      6.619
REMARK  Name = NuBBE_2315
REMARK  9 active torsions:
REMARK  status: ('A' for Active; 'I' for Inactive)
REMARK    1  A    between atoms: C_1  and  C_28
REMARK    2  A    between atoms: C_3  and  C_4
REMARK    3  A    between atoms: C_17  and  O_18
REMARK    4  A    between atoms: O_18  and  C_19
REMARK    5  A    between atoms: C_20  and  O_24
REMARK    6  A    between atoms: C_21  and  O_22
REMARK    7  A    between atoms: O_22  and  C_23
REMARK    8  A    between atoms: O_24  and  C_25
REMARK    9  A    between atoms: C_25  and  C_26
REMARK                            x       y       z     vdW  Elec       q    Type
REMARK                         _______ _______ _______ _____ _____    ______ ____
ROOT
ATOM      1  C   LIG A   1      -8.021  -2.459 129.327  0.00  0.00    +0.065 C 
ATOM      2  C   LIG A   1      -7.628  -1.232 128.469  0.00  0.00    +0.211 C 
ATOM      3  O   LIG A   1      -6.507  -0.570 129.129  0.00  0.00    -0.479 OA
ATOM      4  C   LIG A   1      -5.933  -1.550 129.906  0.00  0.00    +0.170 A 
ATOM      5  C   LIG A   1      -6.716  -2.689 130.002  0.00  0.00    +0.008 A 
ATOM      6  C   LIG A   1      -6.274  -3.796 130.701  0.00  0.00    +0.057 A 
ATOM      7  C   LIG A   1      -5.006  -3.764 131.295  0.00  0.00    +0.166 A 
ATOM      8  C   LIG A   1      -4.235  -2.578 131.251  0.00  0.00    +0.208 A 
ATOM      9  C   LIG A   1      -4.688  -1.474 130.510  0.00  0.00    +0.208 A 
ATOM     10  C   LIG A   1      -8.628  -3.655 128.609  0.00  0.00    +0.016 C 
ENDROOT
BRANCH   2  11
ATOM     11  C   LIG A   1      -7.292  -1.500 127.005  0.00  0.00    -0.003 A 
ATOM     12  C   LIG A   1      -5.995  -1.954 126.665  0.00  0.00    +0.011 A 
ATOM     13  C   LIG A   1      -5.644  -2.222 125.336  0.00  0.00    +0.050 A 
ATOM     14  C   LIG A   1      -6.605  -2.032 124.369  0.00  0.00    +0.166 A 
ATOM     15  C   LIG A   1      -7.865  -1.584 124.682  0.00  0.00    +0.167 A 
ATOM     16  C   LIG A   1      -8.234  -1.302 125.979  0.00  0.00    +0.056 A 
ATOM     17  O   LIG A   1      -8.662  -1.467 123.587  0.00  0.00    -0.453 OA
ATOM     18  C   LIG A   1      -7.768  -1.920 122.552  0.00  0.00    +0.466 C 
ATOM     19  O   LIG A   1      -6.451  -2.255 123.036  0.00  0.00    -0.453 OA
ENDBRANCH   2  11
BRANCH   7  20
ATOM     20  O   LIG A   1      -4.513  -4.829 132.008  0.00  0.00    -0.491 OA
ATOM     21  C   LIG A   1      -5.264  -5.195 133.164  0.00  0.00    +0.277 C 
ENDBRANCH   7  20
BRANCH   9  22
ATOM     22  O   LIG A   1      -3.927  -0.345 130.380  0.00  0.00    -0.488 OA
ATOM     23  C   LIG A   1      -4.353   0.644 131.317  0.00  0.00    +0.277 C 
ENDBRANCH   9  22
BRANCH   8  24
ATOM     24  O   LIG A   1      -3.007  -2.586 131.876  0.00  0.00    -0.481 OA
BRANCH  24  25
ATOM     25  C   LIG A   1      -3.079  -2.141 133.232  0.00  0.00    +0.256 C 
BRANCH  25  26
ATOM     26  C   LIG A   1      -1.886  -1.259 133.487  0.00  0.00    +0.006 C 
ATOM     27  C   LIG A   1      -0.907  -1.531 134.346  0.00  0.00    +0.007 C 
ENDBRANCH  25  26
ENDBRANCH  24  25
ENDBRANCH   8  24
TORSDOF 6
ENDMDL
MODEL 9
REMARK VINA RESULT:      -6.4      2.229      6.911
REMARK  Name = NuBBE_2315
REMARK  9 active torsions:
REMARK  status: ('A' for Active; 'I' for Inactive)
REMARK    1  A    between atoms: C_1  and  C_28
REMARK    2  A    between atoms: C_3  and  C_4
REMARK    3  A    between atoms: C_17  and  O_18
REMARK    4  A    between atoms: O_18  and  C_19
REMARK    5  A    between atoms: C_20  and  O_24
REMARK    6  A    between atoms: C_21  and  O_22
REMARK    7  A    between atoms: O_22  and  C_23
REMARK    8  A    between atoms: O_24  and  C_25
REMARK    9  A    between atoms: C_25  and  C_26
REMARK                            x       y       z     vdW  Elec       q    Type
REMARK                         _______ _______ _______ _____ _____    ______ ____
ROOT
ATOM      1  C   LIG A   1      -6.881   1.046 128.201  0.00  0.00    +0.065 C 
ATOM      2  C   LIG A   1      -8.280   0.706 127.633  0.00  0.00    +0.211 C 
ATOM      3  O   LIG A   1      -8.706   1.829 126.802  0.00  0.00    -0.479 OA
ATOM      4  C   LIG A   1      -7.536   2.456 126.439  0.00  0.00    +0.170 A 
ATOM      5  C   LIG A   1      -6.438   2.003 127.152  0.00  0.00    +0.008 A 
ATOM      6  C   LIG A   1      -5.171   2.484 126.882  0.00  0.00    +0.057 A 
ATOM      7  C   LIG A   1      -5.003   3.424 125.857  0.00  0.00    +0.166 A 
ATOM      8  C   LIG A   1      -6.134   3.934 125.175  0.00  0.00    +0.208 A 
ATOM      9  C   LIG A   1      -7.410   3.409 125.441  0.00  0.00    +0.208 A 
ATOM     10  C   LIG A   1      -5.940  -0.113 128.496  0.00  0.00    +0.016 C 
ENDROOT
BRANCH   2  11
ATOM     11  C   LIG A   1      -8.405  -0.600 126.855  0.00  0.00    -0.003 A 
ATOM     12  C   LIG A   1      -8.056  -1.818 127.489  0.00  0.00    +0.011 A 
ATOM     13  C   LIG A   1      -8.163  -3.042 126.818  0.00  0.00    +0.050 A 
ATOM     14  C   LIG A   1      -8.621  -3.024 125.520  0.00  0.00    +0.166 A 
ATOM     15  C   LIG A   1      -8.954  -1.851 124.889  0.00  0.00    +0.167 A 
ATOM     16  C   LIG A   1      -8.849  -0.631 125.521  0.00  0.00    +0.056 A 
ATOM     17  O   LIG A   1      -9.387  -2.049 123.616  0.00  0.00    -0.453 OA
ATOM     18  C   LIG A   1      -9.314  -3.486 123.527  0.00  0.00    +0.466 C 
ATOM     19  O   LIG A   1      -8.803  -4.111 124.724  0.00  0.00    -0.453 OA
ENDBRANCH   2  11
BRANCH   7  20
ATOM     20  O   LIG A   1      -3.772   3.946 125.547  0.00  0.00    -0.491 OA
ATOM     21  C   LIG A   1      -2.738   3.687 126.495  0.00  0.00    +0.277 C 
ENDBRANCH   7  20
BRANCH   9  22
ATOM     22  O   LIG A   1      -8.508   3.823 124.739  0.00  0.00    -0.488 OA
ATOM     23  C   LIG A   1      -8.912   2.809 123.818  0.00  0.00    +0.277 C 
ENDBRANCH   9  22
BRANCH   8  24
ATOM     24  O   LIG A   1      -5.921   4.879 124.196  0.00  0.00    -0.481 OA
BRANCH  24  25
ATOM     25  C   LIG A   1      -5.111   4.387 123.126  0.00  0.00    +0.256 C 
BRANCH  25  26
ATOM     26  C   LIG A   1      -6.033   3.953 122.017  0.00  0.00    +0.006 C 
ATOM     27  C   LIG A   1      -5.641   3.563 120.808  0.00  0.00    +0.007 C 
ENDBRANCH  25  26
ENDBRANCH  24  25
ENDBRANCH   8  24
TORSDOF 6
ENDMDL
