MODEL 1
REMARK VINA RESULT:      -8.3      0.000      0.000
REMARK  Name = NuBBE_957
REMARK  15 active torsions:
REMARK  status: ('A' for Active; 'I' for Inactive)
REMARK    1  A    between atoms: C_3  and  C_4
REMARK    2  A    between atoms: C_5  and  C_7
REMARK    3  A    between atoms: C_7  and  C_8
REMARK    4  A    between atoms: C_8  and  O_9
REMARK    5  A    between atoms: O_9  and  C_10
REMARK    6  A    between atoms: C_12  and  C_13
REMARK    7  A    between atoms: C_12  and  C_14
REMARK    8  A    between atoms: C_15  and  O_17
REMARK    9  A    between atoms: O_17  and  C_18
REMARK   10  A    between atoms: C_18  and  C_19
REMARK   11  A    between atoms: C_19  and  C_20
REMARK   12  A    between atoms: C_19  and  C_22
REMARK   13  A    between atoms: C_20  and  C_21
REMARK   14  A    between atoms: C_29  and  C_31
REMARK   15  A    between atoms: C_38  and  C_41
REMARK                            x       y       z     vdW  Elec       q    Type
REMARK                         _______ _______ _______ _____ _____    ______ ____
ROOT
ATOM      1  C   LIG A   1      -7.333   2.418 130.568  0.00  0.00    +0.037 C 
ATOM      2  C   LIG A   1      -7.582   3.514 131.749  0.00  0.00    +0.036 C 
ATOM      3  C   LIG A   1      -8.980   3.317 132.374  0.00  0.00    +0.019 C 
ATOM      4  C   LIG A   1      -7.261   5.032 131.286  0.00  0.00    +0.022 C 
ATOM      5  C   LIG A   1      -5.746   5.517 131.619  0.00  0.00    +0.007 C 
ATOM      6  C   LIG A   1      -5.362   6.685 130.665  0.00  0.00    +0.015 C 
ATOM      7  C   LIG A   1      -5.561   6.125 133.040  0.00  0.00    +0.015 C 
ATOM      8  C   LIG A   1      -4.752   4.305 131.460  0.00  0.00    +0.195 C 
ATOM      9  C   LIG A   1      -6.264   1.333 130.832  0.00  0.00    +0.104 C 
ATOM     10  C   LIG A   1      -6.042   0.268 129.759  0.00  0.00    +0.044 C 
ATOM     11  C   LIG A   1      -5.098  -0.872 130.144  0.00  0.00    +0.127 C 
ATOM     12  C   LIG A   1      -4.869  -1.860 129.023  0.00  0.00    +0.308 C 
ATOM     13  O   LIG A   1      -5.897  -2.091 128.175  0.00  0.00    -0.456 OA
ATOM     14  C   LIG A   1      -6.888  -1.078 127.891  0.00  0.00    +0.216 C 
ATOM     15  O   LIG A   1      -3.836  -2.513 128.955  0.00  0.00    -0.251 OA
ATOM     16  C   LIG A   1      -7.352  -0.345 129.189  0.00  0.00    +0.015 C 
ATOM     17  C   LIG A   1      -8.349   0.792 128.870  0.00  0.00    +0.011 C 
ATOM     18  C   LIG A   1      -8.613   1.725 130.056  0.00  0.00    +0.008 C 
ATOM     19  C   LIG A   1      -8.022  -1.358 130.157  0.00  0.00    +0.015 C 
ATOM     20  O   LIG A   1      -6.141   0.846 132.166  0.00  0.00    -0.363 OA
ATOM     21  C   LIG A   1      -5.108   1.757 131.715  0.00  0.00    +0.165 C 
ATOM     22  C   LIG A   1      -5.155   3.100 132.369  0.00  0.00    +0.129 C 
ATOM     23  C   LIG A   1      -6.571   3.292 132.858  0.00  0.00    +0.149 C 
ATOM     24  O   LIG A   1      -6.850   3.315 134.056  0.00  0.00    -0.296 OA
ENDROOT
BRANCH  14  25
ATOM     25  C   LIG A   1      -7.988  -1.652 127.040  0.00  0.00    +0.031 A 
ATOM     26  C   LIG A   1      -8.622  -1.020 125.984  0.00  0.00    +0.202 A 
ATOM     27  O   LIG A   1      -9.540  -1.832 125.408  0.00  0.00    -0.471 OA
ATOM     28  C   LIG A   1      -9.497  -3.014 126.072  0.00  0.00    +0.195 A 
ATOM     29  C   LIG A   1      -8.559  -2.958 127.084  0.00  0.00    +0.048 A 
ENDBRANCH  14  25
BRANCH   4  30
ATOM     30  C   LIG A   1      -8.256   6.109 131.806  0.00  0.00    +0.125 C 
BRANCH  30  31
ATOM     31  C   LIG A   1      -9.144   6.753 130.761  0.00  0.00    +0.307 C 
ATOM     32  O   LIG A   1      -8.831   7.696 130.051  0.00  0.00    -0.251 OA
BRANCH  31  33
ATOM     33  O   LIG A   1     -10.365   6.150 130.805  0.00  0.00    -0.468 OA
ATOM     34  C   LIG A   1     -11.178   6.393 131.958  0.00  0.00    +0.280 C 
ENDBRANCH  31  33
ENDBRANCH  30  31
ENDBRANCH   4  30
BRANCH   8  35
ATOM     35  O   LIG A   1      -4.694   3.965 130.047  0.00  0.00    -0.460 OA
BRANCH  35  36
ATOM     36  C   LIG A   1      -3.458   4.000 129.458  0.00  0.00    +0.310 C 
ATOM     37  O   LIG A   1      -2.542   4.721 129.837  0.00  0.00    -0.251 OA
BRANCH  36  38
ATOM     38  C   LIG A   1      -3.347   3.075 128.238  0.00  0.00    +0.094 C 
ATOM     39  C   LIG A   1      -2.284   3.641 127.283  0.00  0.00    +0.019 C 
BRANCH  38  40
ATOM     40  C   LIG A   1      -4.689   2.866 127.513  0.00  0.00    +0.011 C 
ATOM     41  C   LIG A   1      -4.717   1.679 126.561  0.00  0.00    +0.004 C 
ENDBRANCH  38  40
ENDBRANCH  36  38
ENDBRANCH  35  36
ENDBRANCH   8  35
TORSDOF 8
ENDMDL
MODEL 2
REMARK VINA RESULT:      -8.1      4.096      6.168
REMARK  Name = NuBBE_957
REMARK  15 active torsions:
REMARK  status: ('A' for Active; 'I' for Inactive)
REMARK    1  A    between atoms: C_3  and  C_4
REMARK    2  A    between atoms: C_5  and  C_7
REMARK    3  A    between atoms: C_7  and  C_8
REMARK    4  A    between atoms: C_8  and  O_9
REMARK    5  A    between atoms: O_9  and  C_10
REMARK    6  A    between atoms: C_12  and  C_13
REMARK    7  A    between atoms: C_12  and  C_14
REMARK    8  A    between atoms: C_15  and  O_17
REMARK    9  A    between atoms: O_17  and  C_18
REMARK   10  A    between atoms: C_18  and  C_19
REMARK   11  A    between atoms: C_19  and  C_20
REMARK   12  A    between atoms: C_19  and  C_22
REMARK   13  A    between atoms: C_20  and  C_21
REMARK   14  A    between atoms: C_29  and  C_31
REMARK   15  A    between atoms: C_38  and  C_41
REMARK                            x       y       z     vdW  Elec       q    Type
REMARK                         _______ _______ _______ _____ _____    ______ ____
ROOT
ATOM      1  C   LIG A   1      -7.902   5.487 132.603  0.00  0.00    +0.037 C 
ATOM      2  C   LIG A   1      -7.293   4.809 133.954  0.00  0.00    +0.036 C 
ATOM      3  C   LIG A   1      -8.435   4.270 134.843  0.00  0.00    +0.019 C 
ATOM      4  C   LIG A   1      -6.235   5.764 134.725  0.00  0.00    +0.022 C 
ATOM      5  C   LIG A   1      -4.687   5.508 134.303  0.00  0.00    +0.007 C 
ATOM      6  C   LIG A   1      -3.855   6.787 134.613  0.00  0.00    +0.015 C 
ATOM      7  C   LIG A   1      -3.971   4.395 135.123  0.00  0.00    +0.015 C 
ATOM      8  C   LIG A   1      -4.606   5.135 132.775  0.00  0.00    +0.195 C 
ATOM      9  C   LIG A   1      -7.623   4.762 131.267  0.00  0.00    +0.104 C 
ATOM     10  C   LIG A   1      -8.219   5.354 129.990  0.00  0.00    +0.044 C 
ATOM     11  C   LIG A   1      -8.054   4.506 128.728  0.00  0.00    +0.127 C 
ATOM     12  C   LIG A   1      -8.607   5.169 127.489  0.00  0.00    +0.308 C 
ATOM     13  O   LIG A   1      -9.698   5.955 127.636  0.00  0.00    -0.456 OA
ATOM     14  C   LIG A   1      -9.959   6.668 128.867  0.00  0.00    +0.216 C 
ATOM     15  O   LIG A   1      -8.161   4.912 126.379  0.00  0.00    -0.251 OA
ATOM     16  C   LIG A   1      -9.713   5.766 130.117  0.00  0.00    +0.015 C 
ATOM     17  C   LIG A   1      -9.913   6.556 131.431  0.00  0.00    +0.011 C 
ATOM     18  C   LIG A   1      -9.408   5.814 132.673  0.00  0.00    +0.008 C 
ATOM     19  C   LIG A   1     -10.684   4.554 130.094  0.00  0.00    +0.015 C 
ATOM     20  O   LIG A   1      -7.597   3.336 131.289  0.00  0.00    -0.363 OA
ATOM     21  C   LIG A   1      -6.313   4.003 131.198  0.00  0.00    +0.165 C 
ATOM     22  C   LIG A   1      -5.481   3.887 132.434  0.00  0.00    +0.129 C 
ATOM     23  C   LIG A   1      -6.435   3.617 133.573  0.00  0.00    +0.149 C 
ATOM     24  O   LIG A   1      -6.462   2.536 134.159  0.00  0.00    -0.296 OA
ENDROOT
BRANCH  14  25
ATOM     25  C   LIG A   1     -11.304   7.338 128.803  0.00  0.00    +0.031 A 
ATOM     26  C   LIG A   1     -11.582   8.652 129.139  0.00  0.00    +0.202 A 
ATOM     27  O   LIG A   1     -12.887   8.946 128.930  0.00  0.00    -0.471 OA
ATOM     28  C   LIG A   1     -13.470   7.826 128.433  0.00  0.00    +0.195 A 
ATOM     29  C   LIG A   1     -12.542   6.808 128.334  0.00  0.00    +0.048 A 
ENDBRANCH  14  25
BRANCH   4  30
ATOM     30  C   LIG A   1      -6.339   5.753 136.277  0.00  0.00    +0.125 C 
BRANCH  30  31
ATOM     31  C   LIG A   1      -6.783   7.049 136.923  0.00  0.00    +0.307 C 
ATOM     32  O   LIG A   1      -6.062   8.007 137.154  0.00  0.00    -0.251 OA
BRANCH  31  33
ATOM     33  O   LIG A   1      -8.097   6.931 137.265  0.00  0.00    -0.468 OA
ATOM     34  C   LIG A   1      -8.860   8.136 137.370  0.00  0.00    +0.280 C 
ENDBRANCH  31  33
ENDBRANCH  30  31
ENDBRANCH   4  30
BRANCH   8  35
ATOM     35  O   LIG A   1      -4.971   6.319 132.012  0.00  0.00    -0.460 OA
BRANCH  35  36
ATOM     36  C   LIG A   1      -3.996   6.864 131.221  0.00  0.00    +0.310 C 
ATOM     37  O   LIG A   1      -4.036   8.006 130.778  0.00  0.00    -0.251 OA
BRANCH  36  38
ATOM     38  C   LIG A   1      -2.860   5.881 130.901  0.00  0.00    +0.094 C 
ATOM     39  C   LIG A   1      -1.520   6.543 131.256  0.00  0.00    +0.019 C 
BRANCH  38  40
ATOM     40  C   LIG A   1      -2.872   5.400 129.438  0.00  0.00    +0.011 C 
ATOM     41  C   LIG A   1      -2.199   6.348 128.456  0.00  0.00    +0.004 C 
ENDBRANCH  38  40
ENDBRANCH  36  38
ENDBRANCH  35  36
ENDBRANCH   8  35
TORSDOF 8
ENDMDL
MODEL 3
REMARK VINA RESULT:      -8.0      1.606      2.010
REMARK  Name = NuBBE_957
REMARK  15 active torsions:
REMARK  status: ('A' for Active; 'I' for Inactive)
REMARK    1  A    between atoms: C_3  and  C_4
REMARK    2  A    between atoms: C_5  and  C_7
REMARK    3  A    between atoms: C_7  and  C_8
REMARK    4  A    between atoms: C_8  and  O_9
REMARK    5  A    between atoms: O_9  and  C_10
REMARK    6  A    between atoms: C_12  and  C_13
REMARK    7  A    between atoms: C_12  and  C_14
REMARK    8  A    between atoms: C_15  and  O_17
REMARK    9  A    between atoms: O_17  and  C_18
REMARK   10  A    between atoms: C_18  and  C_19
REMARK   11  A    between atoms: C_19  and  C_20
REMARK   12  A    between atoms: C_19  and  C_22
REMARK   13  A    between atoms: C_20  and  C_21
REMARK   14  A    between atoms: C_29  and  C_31
REMARK   15  A    between atoms: C_38  and  C_41
REMARK                            x       y       z     vdW  Elec       q    Type
REMARK                         _______ _______ _______ _____ _____    ______ ____
ROOT
ATOM      1  C   LIG A   1      -7.883   2.461 130.011  0.00  0.00    +0.037 C 
ATOM      2  C   LIG A   1      -8.861   3.355 130.960  0.00  0.00    +0.036 C 
ATOM      3  C   LIG A   1     -10.338   2.984 130.704  0.00  0.00    +0.019 C 
ATOM      4  C   LIG A   1      -8.544   4.942 130.884  0.00  0.00    +0.022 C 
ATOM      5  C   LIG A   1      -7.515   5.464 132.028  0.00  0.00    +0.007 C 
ATOM      6  C   LIG A   1      -6.839   6.780 131.546  0.00  0.00    +0.015 C 
ATOM      7  C   LIG A   1      -8.194   5.868 133.370  0.00  0.00    +0.015 C 
ATOM      8  C   LIG A   1      -6.440   4.351 132.327  0.00  0.00    +0.195 C 
ATOM      9  C   LIG A   1      -6.987   1.416 130.714  0.00  0.00    +0.104 C 
ATOM     10  C   LIG A   1      -6.092   0.535 129.843  0.00  0.00    +0.044 C 
ATOM     11  C   LIG A   1      -5.358  -0.590 130.574  0.00  0.00    +0.127 C 
ATOM     12  C   LIG A   1      -4.442  -1.387 129.674  0.00  0.00    +0.308 C 
ATOM     13  O   LIG A   1      -4.823  -1.555 128.387  0.00  0.00    -0.456 OA
ATOM     14  C   LIG A   1      -5.634  -0.573 127.703  0.00  0.00    +0.216 C 
ATOM     15  O   LIG A   1      -3.456  -1.959 130.120  0.00  0.00    -0.251 OA
ATOM     16  C   LIG A   1      -6.807  -0.067 128.600  0.00  0.00    +0.015 C 
ATOM     17  C   LIG A   1      -7.620   1.042 127.894  0.00  0.00    +0.011 C 
ATOM     18  C   LIG A   1      -8.592   1.773 128.826  0.00  0.00    +0.008 C 
ATOM     19  C   LIG A   1      -7.750  -1.250 128.953  0.00  0.00    +0.015 C 
ATOM     20  O   LIG A   1      -7.528   0.748 131.851  0.00  0.00    -0.363 OA
ATOM     21  C   LIG A   1      -6.542   1.776 132.117  0.00  0.00    +0.165 C 
ATOM     22  C   LIG A   1      -7.104   3.004 132.758  0.00  0.00    +0.129 C 
ATOM     23  C   LIG A   1      -8.574   3.036 132.415  0.00  0.00    +0.149 C 
ATOM     24  O   LIG A   1      -9.446   2.867 133.265  0.00  0.00    -0.296 OA
ENDROOT
BRANCH  14  25
ATOM     25  C   LIG A   1      -6.028  -1.082 126.343  0.00  0.00    +0.031 A 
ATOM     26  C   LIG A   1      -6.404  -2.378 126.031  0.00  0.00    +0.202 A 
ATOM     27  O   LIG A   1      -6.734  -2.490 124.722  0.00  0.00    -0.471 OA
ATOM     28  C   LIG A   1      -6.595  -1.258 124.172  0.00  0.00    +0.195 A 
ATOM     29  C   LIG A   1      -6.165  -0.355 125.124  0.00  0.00    +0.048 A 
ENDBRANCH  14  25
BRANCH   4  30
ATOM     30  C   LIG A   1      -9.793   5.868 130.875  0.00  0.00    +0.125 C 
BRANCH  30  31
ATOM     31  C   LIG A   1     -10.032   6.649 129.599  0.00  0.00    +0.307 C 
ATOM     32  O   LIG A   1      -9.480   7.696 129.296  0.00  0.00    -0.251 OA
BRANCH  31  33
ATOM     33  O   LIG A   1     -11.014   6.024 128.890  0.00  0.00    -0.468 OA
ATOM     34  C   LIG A   1     -12.369   6.353 129.213  0.00  0.00    +0.280 C 
ENDBRANCH  31  33
ENDBRANCH  30  31
ENDBRANCH   4  30
BRANCH   8  35
ATOM     35  O   LIG A   1      -5.597   4.225 131.148  0.00  0.00    -0.460 OA
BRANCH  35  36
ATOM     36  C   LIG A   1      -4.249   4.362 131.341  0.00  0.00    +0.310 C 
ATOM     37  O   LIG A   1      -3.737   4.619 132.425  0.00  0.00    -0.251 OA
BRANCH  36  38
ATOM     38  C   LIG A   1      -3.436   4.206 130.048  0.00  0.00    +0.094 C 
ATOM     39  C   LIG A   1      -2.756   5.545 129.727  0.00  0.00    +0.019 C 
BRANCH  38  40
ATOM     40  C   LIG A   1      -4.283   3.714 128.859  0.00  0.00    +0.011 C 
ATOM     41  C   LIG A   1      -3.637   2.608 128.038  0.00  0.00    +0.004 C 
ENDBRANCH  38  40
ENDBRANCH  36  38
ENDBRANCH  35  36
ENDBRANCH   8  35
TORSDOF 8
ENDMDL
MODEL 4
REMARK VINA RESULT:      -7.9      2.448      5.505
REMARK  Name = NuBBE_957
REMARK  15 active torsions:
REMARK  status: ('A' for Active; 'I' for Inactive)
REMARK    1  A    between atoms: C_3  and  C_4
REMARK    2  A    between atoms: C_5  and  C_7
REMARK    3  A    between atoms: C_7  and  C_8
REMARK    4  A    between atoms: C_8  and  O_9
REMARK    5  A    between atoms: O_9  and  C_10
REMARK    6  A    between atoms: C_12  and  C_13
REMARK    7  A    between atoms: C_12  and  C_14
REMARK    8  A    between atoms: C_15  and  O_17
REMARK    9  A    between atoms: O_17  and  C_18
REMARK   10  A    between atoms: C_18  and  C_19
REMARK   11  A    between atoms: C_19  and  C_20
REMARK   12  A    between atoms: C_19  and  C_22
REMARK   13  A    between atoms: C_20  and  C_21
REMARK   14  A    between atoms: C_29  and  C_31
REMARK   15  A    between atoms: C_38  and  C_41
REMARK                            x       y       z     vdW  Elec       q    Type
REMARK                         _______ _______ _______ _____ _____    ______ ____
ROOT
ATOM      1  C   LIG A   1      -6.347   1.796 127.191  0.00  0.00    +0.037 C 
ATOM      2  C   LIG A   1      -6.324   3.367 127.624  0.00  0.00    +0.036 C 
ATOM      3  C   LIG A   1      -5.774   4.232 126.470  0.00  0.00    +0.019 C 
ATOM      4  C   LIG A   1      -5.608   3.622 129.055  0.00  0.00    +0.022 C 
ATOM      5  C   LIG A   1      -6.636   3.638 130.313  0.00  0.00    +0.007 C 
ATOM      6  C   LIG A   1      -5.853   3.304 131.617  0.00  0.00    +0.015 C 
ATOM      7  C   LIG A   1      -7.271   5.029 130.610  0.00  0.00    +0.015 C 
ATOM      8  C   LIG A   1      -7.796   2.601 130.067  0.00  0.00    +0.195 C 
ATOM      9  C   LIG A   1      -7.734   1.140 127.005  0.00  0.00    +0.104 C 
ATOM     10  C   LIG A   1      -7.783  -0.321 126.557  0.00  0.00    +0.044 C 
ATOM     11  C   LIG A   1      -9.174  -0.864 126.226  0.00  0.00    +0.127 C 
ATOM     12  C   LIG A   1      -9.167  -2.328 125.850  0.00  0.00    +0.308 C 
ATOM     13  O   LIG A   1      -8.084  -2.797 125.189  0.00  0.00    -0.456 OA
ATOM     14  C   LIG A   1      -6.772  -2.218 125.375  0.00  0.00    +0.216 C 
ATOM     15  O   LIG A   1     -10.151  -3.033 126.029  0.00  0.00    -0.251 OA
ATOM     16  C   LIG A   1      -6.827  -0.657 125.378  0.00  0.00    +0.015 C 
ATOM     17  C   LIG A   1      -5.436  -0.044 125.660  0.00  0.00    +0.011 C 
ATOM     18  C   LIG A   1      -5.480   1.457 125.960  0.00  0.00    +0.008 C 
ATOM     19  C   LIG A   1      -7.346  -0.144 124.007  0.00  0.00    +0.015 C 
ATOM     20  O   LIG A   1      -8.773   1.949 126.460  0.00  0.00    -0.363 OA
ATOM     21  C   LIG A   1      -8.839   1.689 127.884  0.00  0.00    +0.165 C 
ATOM     22  C   LIG A   1      -8.557   2.887 128.733  0.00  0.00    +0.129 C 
ATOM     23  C   LIG A   1      -7.743   3.835 127.884  0.00  0.00    +0.149 C 
ATOM     24  O   LIG A   1      -8.194   4.910 127.492  0.00  0.00    -0.296 OA
ENDROOT
BRANCH  14  25
ATOM     25  C   LIG A   1      -5.792  -2.832 124.413  0.00  0.00    +0.031 A 
ATOM     26  C   LIG A   1      -5.669  -2.534 123.067  0.00  0.00    +0.202 A 
ATOM     27  O   LIG A   1      -4.662  -3.240 122.499  0.00  0.00    -0.471 OA
ATOM     28  C   LIG A   1      -4.104  -3.992 123.481  0.00  0.00    +0.195 A 
ATOM     29  C   LIG A   1      -4.759  -3.779 124.677  0.00  0.00    +0.048 A 
ENDBRANCH  14  25
BRANCH   4  30
ATOM     30  C   LIG A   1      -4.707   4.888 129.129  0.00  0.00    +0.125 C 
BRANCH  30  31
ATOM     31  C   LIG A   1      -3.230   4.640 129.355  0.00  0.00    +0.307 C 
ATOM     32  O   LIG A   1      -2.697   4.480 130.442  0.00  0.00    -0.251 OA
BRANCH  31  33
ATOM     33  O   LIG A   1      -2.596   4.700 128.150  0.00  0.00    -0.468 OA
ATOM     34  C   LIG A   1      -2.322   3.461 127.488  0.00  0.00    +0.280 C 
ENDBRANCH  31  33
ENDBRANCH  30  31
ENDBRANCH   4  30
BRANCH   8  35
ATOM     35  O   LIG A   1      -7.215   1.269 130.123  0.00  0.00    -0.460 OA
BRANCH  35  36
ATOM     36  C   LIG A   1      -7.950   0.305 130.761  0.00  0.00    +0.310 C 
ATOM     37  O   LIG A   1      -8.949   0.542 131.431  0.00  0.00    -0.251 OA
BRANCH  36  38
ATOM     38  C   LIG A   1      -7.370  -1.106 130.591  0.00  0.00    +0.094 C 
ATOM     39  C   LIG A   1      -5.932  -0.989 130.061  0.00  0.00    +0.019 C 
BRANCH  38  40
ATOM     40  C   LIG A   1      -8.226  -2.004 129.678  0.00  0.00    +0.011 C 
ATOM     41  C   LIG A   1      -7.481  -3.187 129.076  0.00  0.00    +0.004 C 
ENDBRANCH  38  40
ENDBRANCH  36  38
ENDBRANCH  35  36
ENDBRANCH   8  35
TORSDOF 8
ENDMDL
MODEL 5
REMARK VINA RESULT:      -7.7      2.310      5.392
REMARK  Name = NuBBE_957
REMARK  15 active torsions:
REMARK  status: ('A' for Active; 'I' for Inactive)
REMARK    1  A    between atoms: C_3  and  C_4
REMARK    2  A    between atoms: C_5  and  C_7
REMARK    3  A    between atoms: C_7  and  C_8
REMARK    4  A    between atoms: C_8  and  O_9
REMARK    5  A    between atoms: O_9  and  C_10
REMARK    6  A    between atoms: C_12  and  C_13
REMARK    7  A    between atoms: C_12  and  C_14
REMARK    8  A    between atoms: C_15  and  O_17
REMARK    9  A    between atoms: O_17  and  C_18
REMARK   10  A    between atoms: C_18  and  C_19
REMARK   11  A    between atoms: C_19  and  C_20
REMARK   12  A    between atoms: C_19  and  C_22
REMARK   13  A    between atoms: C_20  and  C_21
REMARK   14  A    between atoms: C_29  and  C_31
REMARK   15  A    between atoms: C_38  and  C_41
REMARK                            x       y       z     vdW  Elec       q    Type
REMARK                         _______ _______ _______ _____ _____    ______ ____
ROOT
ATOM      1  C   LIG A   1      -6.843   1.659 129.839  0.00  0.00    +0.037 C 
ATOM      2  C   LIG A   1      -5.987   2.156 131.134  0.00  0.00    +0.036 C 
ATOM      3  C   LIG A   1      -4.714   1.298 131.294  0.00  0.00    +0.019 C 
ATOM      4  C   LIG A   1      -6.883   2.288 132.477  0.00  0.00    +0.022 C 
ATOM      5  C   LIG A   1      -7.484   3.776 132.725  0.00  0.00    +0.007 C 
ATOM      6  C   LIG A   1      -8.740   3.674 133.640  0.00  0.00    +0.015 C 
ATOM      7  C   LIG A   1      -6.536   4.734 133.506  0.00  0.00    +0.015 C 
ATOM      8  C   LIG A   1      -7.842   4.444 131.344  0.00  0.00    +0.195 C 
ATOM      9  C   LIG A   1      -6.916   2.624 128.634  0.00  0.00    +0.104 C 
ATOM     10  C   LIG A   1      -7.677   2.163 127.391  0.00  0.00    +0.044 C 
ATOM     11  C   LIG A   1      -7.573   3.083 126.173  0.00  0.00    +0.127 C 
ATOM     12  C   LIG A   1      -8.395   2.609 124.997  0.00  0.00    +0.308 C 
ATOM     13  O   LIG A   1      -8.525   1.273 124.825  0.00  0.00    -0.456 OA
ATOM     14  C   LIG A   1      -8.492   0.358 125.944  0.00  0.00    +0.216 C 
ATOM     15  O   LIG A   1      -8.825   3.397 124.165  0.00  0.00    -0.251 OA
ATOM     16  C   LIG A   1      -7.346   0.711 126.943  0.00  0.00    +0.015 C 
ATOM     17  C   LIG A   1      -7.367  -0.219 128.178  0.00  0.00    +0.011 C 
ATOM     18  C   LIG A   1      -6.461   0.258 129.317  0.00  0.00    +0.008 C 
ATOM     19  C   LIG A   1      -5.970   0.591 126.233  0.00  0.00    +0.015 C 
ATOM     20  O   LIG A   1      -5.758   3.405 128.349  0.00  0.00    -0.363 OA
ATOM     21  C   LIG A   1      -6.866   4.099 128.975  0.00  0.00    +0.165 C 
ATOM     22  C   LIG A   1      -6.606   4.503 130.390  0.00  0.00    +0.129 C 
ATOM     23  C   LIG A   1      -5.526   3.584 130.910  0.00  0.00    +0.149 C 
ATOM     24  O   LIG A   1      -4.395   3.990 131.172  0.00  0.00    -0.296 OA
ENDROOT
BRANCH  14  25
ATOM     25  C   LIG A   1      -8.510  -1.063 125.452  0.00  0.00    +0.031 A 
ATOM     26  C   LIG A   1      -7.878  -1.546 124.318  0.00  0.00    +0.202 A 
ATOM     27  O   LIG A   1      -8.065  -2.881 124.185  0.00  0.00    -0.471 OA
ATOM     28  C   LIG A   1      -8.805  -3.285 125.247  0.00  0.00    +0.195 A 
ATOM     29  C   LIG A   1      -9.106  -2.209 126.057  0.00  0.00    +0.048 A 
ENDBRANCH  14  25
BRANCH   4  30
ATOM     30  C   LIG A   1      -6.193   1.803 133.785  0.00  0.00    +0.125 C 
BRANCH  30  31
ATOM     31  C   LIG A   1      -6.508   0.385 134.215  0.00  0.00    +0.307 C 
ATOM     32  O   LIG A   1      -6.053  -0.172 135.202  0.00  0.00    -0.251 OA
BRANCH  31  33
ATOM     33  O   LIG A   1      -7.321  -0.178 133.278  0.00  0.00    -0.468 OA
ATOM     34  C   LIG A   1      -6.927  -1.445 132.741  0.00  0.00    +0.280 C 
ENDBRANCH  31  33
ENDBRANCH  30  31
ENDBRANCH   4  30
BRANCH   8  35
ATOM     35  O   LIG A   1      -8.968   3.715 130.781  0.00  0.00    -0.460 OA
BRANCH  35  36
ATOM     36  C   LIG A   1     -10.106   4.436 130.538  0.00  0.00    +0.310 C 
ATOM     37  O   LIG A   1     -11.124   3.960 130.047  0.00  0.00    -0.251 OA
BRANCH  36  38
ATOM     38  C   LIG A   1      -9.966   5.922 130.899  0.00  0.00    +0.094 C 
ATOM     39  C   LIG A   1     -11.041   6.282 131.937  0.00  0.00    +0.019 C 
BRANCH  38  40
ATOM     40  C   LIG A   1     -10.045   6.851 129.673  0.00  0.00    +0.011 C 
ATOM     41  C   LIG A   1     -11.256   7.772 129.656  0.00  0.00    +0.004 C 
ENDBRANCH  38  40
ENDBRANCH  36  38
ENDBRANCH  35  36
ENDBRANCH   8  35
TORSDOF 8
ENDMDL
MODEL 6
REMARK VINA RESULT:      -7.6      2.414      7.772
REMARK  Name = NuBBE_957
REMARK  15 active torsions:
REMARK  status: ('A' for Active; 'I' for Inactive)
REMARK    1  A    between atoms: C_3  and  C_4
REMARK    2  A    between atoms: C_5  and  C_7
REMARK    3  A    between atoms: C_7  and  C_8
REMARK    4  A    between atoms: C_8  and  O_9
REMARK    5  A    between atoms: O_9  and  C_10
REMARK    6  A    between atoms: C_12  and  C_13
REMARK    7  A    between atoms: C_12  and  C_14
REMARK    8  A    between atoms: C_15  and  O_17
REMARK    9  A    between atoms: O_17  and  C_18
REMARK   10  A    between atoms: C_18  and  C_19
REMARK   11  A    between atoms: C_19  and  C_20
REMARK   12  A    between atoms: C_19  and  C_22
REMARK   13  A    between atoms: C_20  and  C_21
REMARK   14  A    between atoms: C_29  and  C_31
REMARK   15  A    between atoms: C_38  and  C_41
REMARK                            x       y       z     vdW  Elec       q    Type
REMARK                         _______ _______ _______ _____ _____    ______ ____
ROOT
ATOM      1  C   LIG A   1      -7.535   0.986 127.421  0.00  0.00    +0.037 C 
ATOM      2  C   LIG A   1      -6.855   0.485 126.026  0.00  0.00    +0.036 C 
ATOM      3  C   LIG A   1      -6.610   1.687 125.089  0.00  0.00    +0.019 C 
ATOM      4  C   LIG A   1      -7.647  -0.752 125.341  0.00  0.00    +0.022 C 
ATOM      5  C   LIG A   1      -7.072  -2.213 125.755  0.00  0.00    +0.007 C 
ATOM      6  C   LIG A   1      -8.189  -3.278 125.552  0.00  0.00    +0.015 C 
ATOM      7  C   LIG A   1      -5.906  -2.726 124.858  0.00  0.00    +0.015 C 
ATOM      8  C   LIG A   1      -6.577  -2.188 127.251  0.00  0.00    +0.195 C 
ATOM      9  C   LIG A   1      -6.672   0.879 128.699  0.00  0.00    +0.104 C 
ATOM     10  C   LIG A   1      -7.270   1.382 130.013  0.00  0.00    +0.044 C 
ATOM     11  C   LIG A   1      -6.315   1.409 131.207  0.00  0.00    +0.127 C 
ATOM     12  C   LIG A   1      -6.978   1.856 132.489  0.00  0.00    +0.308 C 
ATOM     13  O   LIG A   1      -7.965   2.775 132.394  0.00  0.00    -0.456 OA
ATOM     14  C   LIG A   1      -8.803   2.869 131.220  0.00  0.00    +0.216 C 
ATOM     15  O   LIG A   1      -6.558   1.491 133.580  0.00  0.00    -0.251 OA
ATOM     16  C   LIG A   1      -7.966   2.768 129.906  0.00  0.00    +0.015 C 
ATOM     17  C   LIG A   1      -8.876   2.785 128.655  0.00  0.00    +0.011 C 
ATOM     18  C   LIG A   1      -8.146   2.401 127.364  0.00  0.00    +0.008 C 
ATOM     19  C   LIG A   1      -6.962   3.951 129.826  0.00  0.00    +0.015 C 
ATOM     20  O   LIG A   1      -5.274   1.122 128.568  0.00  0.00    -0.363 OA
ATOM     21  C   LIG A   1      -5.676  -0.262 128.721  0.00  0.00    +0.165 C 
ATOM     22  C   LIG A   1      -5.496  -1.085 127.487  0.00  0.00    +0.129 C 
ATOM     23  C   LIG A   1      -5.497  -0.124 126.322  0.00  0.00    +0.149 C 
ATOM     24  O   LIG A   1      -4.488   0.093 125.654  0.00  0.00    -0.296 OA
ENDROOT
BRANCH  14  25
ATOM     25  C   LIG A   1      -9.710   4.065 131.323  0.00  0.00    +0.031 A 
ATOM     26  C   LIG A   1      -9.547   5.146 132.173  0.00  0.00    +0.202 A 
ATOM     27  O   LIG A   1     -10.521   6.068 131.985  0.00  0.00    -0.471 OA
ATOM     28  C   LIG A   1     -11.319   5.603 130.992  0.00  0.00    +0.195 A 
ATOM     29  C   LIG A   1     -10.866   4.377 130.549  0.00  0.00    +0.048 A 
ENDBRANCH  14  25
BRANCH   4  30
ATOM     30  C   LIG A   1      -7.771  -0.683 123.792  0.00  0.00    +0.125 C 
BRANCH  30  31
ATOM     31  C   LIG A   1      -9.172  -0.511 123.244  0.00  0.00    +0.307 C 
ATOM     32  O   LIG A   1      -9.933  -1.421 122.949  0.00  0.00    -0.251 OA
BRANCH  31  33
ATOM     33  O   LIG A   1      -9.406   0.820 123.071  0.00  0.00    -0.468 OA
ATOM     34  C   LIG A   1     -10.225   1.476 124.043  0.00  0.00    +0.280 C 
ENDBRANCH  31  33
ENDBRANCH  30  31
ENDBRANCH   4  30
BRANCH   8  35
ATOM     35  O   LIG A   1      -7.749  -2.035 128.099  0.00  0.00    -0.460 OA
BRANCH  35  36
ATOM     36  C   LIG A   1      -7.963  -3.014 129.032  0.00  0.00    +0.310 C 
ATOM     37  O   LIG A   1      -8.902  -3.802 128.991  0.00  0.00    -0.251 OA
BRANCH  36  38
ATOM     38  C   LIG A   1      -6.931  -2.999 130.169  0.00  0.00    +0.094 C 
ATOM     39  C   LIG A   1      -6.216  -4.358 130.204  0.00  0.00    +0.019 C 
BRANCH  38  40
ATOM     40  C   LIG A   1      -7.547  -2.659 131.539  0.00  0.00    +0.011 C 
ATOM     41  C   LIG A   1      -6.575  -2.038 132.532  0.00  0.00    +0.004 C 
ENDBRANCH  38  40
ENDBRANCH  36  38
ENDBRANCH  35  36
ENDBRANCH   8  35
TORSDOF 8
ENDMDL
MODEL 7
REMARK VINA RESULT:      -7.5      3.137      6.078
REMARK  Name = NuBBE_957
REMARK  15 active torsions:
REMARK  status: ('A' for Active; 'I' for Inactive)
REMARK    1  A    between atoms: C_3  and  C_4
REMARK    2  A    between atoms: C_5  and  C_7
REMARK    3  A    between atoms: C_7  and  C_8
REMARK    4  A    between atoms: C_8  and  O_9
REMARK    5  A    between atoms: O_9  and  C_10
REMARK    6  A    between atoms: C_12  and  C_13
REMARK    7  A    between atoms: C_12  and  C_14
REMARK    8  A    between atoms: C_15  and  O_17
REMARK    9  A    between atoms: O_17  and  C_18
REMARK   10  A    between atoms: C_18  and  C_19
REMARK   11  A    between atoms: C_19  and  C_20
REMARK   12  A    between atoms: C_19  and  C_22
REMARK   13  A    between atoms: C_20  and  C_21
REMARK   14  A    between atoms: C_29  and  C_31
REMARK   15  A    between atoms: C_38  and  C_41
REMARK                            x       y       z     vdW  Elec       q    Type
REMARK                         _______ _______ _______ _____ _____    ______ ____
ROOT
ATOM      1  C   LIG A   1      -6.362   2.524 127.513  0.00  0.00    +0.037 C 
ATOM      2  C   LIG A   1      -6.244   2.887 129.097  0.00  0.00    +0.036 C 
ATOM      3  C   LIG A   1      -6.392   4.409 129.310  0.00  0.00    +0.019 C 
ATOM      4  C   LIG A   1      -4.942   2.233 129.805  0.00  0.00    +0.022 C 
ATOM      5  C   LIG A   1      -5.223   0.791 130.500  0.00  0.00    +0.007 C 
ATOM      6  C   LIG A   1      -3.882   0.010 130.616  0.00  0.00    +0.015 C 
ATOM      7  C   LIG A   1      -5.731   0.872 131.970  0.00  0.00    +0.015 C 
ATOM      8  C   LIG A   1      -6.277  -0.014 129.650  0.00  0.00    +0.195 C 
ATOM      9  C   LIG A   1      -7.611   1.733 127.065  0.00  0.00    +0.104 C 
ATOM     10  C   LIG A   1      -7.767   1.418 125.577  0.00  0.00    +0.044 C 
ATOM     11  C   LIG A   1      -9.098   0.784 125.171  0.00  0.00    +0.127 C 
ATOM     12  C   LIG A   1      -9.169   0.439 123.701  0.00  0.00    +0.308 C 
ATOM     13  O   LIG A   1      -8.516   1.249 122.837  0.00  0.00    -0.456 OA
ATOM     14  C   LIG A   1      -7.326   1.973 123.229  0.00  0.00    +0.216 C 
ATOM     15  O   LIG A   1      -9.886  -0.466 123.297  0.00  0.00    -0.251 OA
ATOM     16  C   LIG A   1      -7.486   2.625 124.638  0.00  0.00    +0.015 C 
ATOM     17  C   LIG A   1      -6.184   3.326 125.086  0.00  0.00    +0.011 C 
ATOM     18  C   LIG A   1      -6.184   3.729 126.565  0.00  0.00    +0.008 C 
ATOM     19  C   LIG A   1      -8.644   3.660 124.614  0.00  0.00    +0.015 C 
ATOM     20  O   LIG A   1      -8.840   2.018 127.728  0.00  0.00    -0.363 OA
ATOM     21  C   LIG A   1      -8.183   0.779 128.094  0.00  0.00    +0.165 C 
ATOM     22  C   LIG A   1      -7.611   0.780 129.474  0.00  0.00    +0.129 C 
ATOM     23  C   LIG A   1      -7.386   2.227 129.847  0.00  0.00    +0.149 C 
ATOM     24  O   LIG A   1      -8.048   2.785 130.720  0.00  0.00    -0.296 OA
ENDROOT
BRANCH  14  25
ATOM     25  C   LIG A   1      -6.899   2.903 122.127  0.00  0.00    +0.031 A 
ATOM     26  C   LIG A   1      -7.724   3.483 121.178  0.00  0.00    +0.202 A 
ATOM     27  O   LIG A   1      -7.024   4.299 120.354  0.00  0.00    -0.471 OA
ATOM     28  C   LIG A   1      -5.735   4.274 120.774  0.00  0.00    +0.195 A 
ATOM     29  C   LIG A   1      -5.602   3.433 121.860  0.00  0.00    +0.048 A 
ENDBRANCH  14  25
BRANCH   4  30
ATOM     30  C   LIG A   1      -4.214   3.149 130.830  0.00  0.00    +0.125 C 
BRANCH  30  31
ATOM     31  C   LIG A   1      -3.216   4.131 130.252  0.00  0.00    +0.307 C 
ATOM     32  O   LIG A   1      -2.892   4.201 129.076  0.00  0.00    -0.251 OA
BRANCH  31  33
ATOM     33  O   LIG A   1      -2.693   4.864 131.274  0.00  0.00    -0.468 OA
ATOM     34  C   LIG A   1      -3.254   6.160 131.508  0.00  0.00    +0.280 C 
ENDBRANCH  31  33
ENDBRANCH  30  31
ENDBRANCH   4  30
BRANCH   8  35
ATOM     35  O   LIG A   1      -5.647  -0.366 128.386  0.00  0.00    -0.460 OA
BRANCH  35  36
ATOM     36  C   LIG A   1      -5.647  -1.694 128.050  0.00  0.00    +0.310 C 
ATOM     37  O   LIG A   1      -5.531  -2.603 128.864  0.00  0.00    -0.251 OA
BRANCH  36  38
ATOM     38  C   LIG A   1      -5.760  -1.932 126.538  0.00  0.00    +0.094 C 
ATOM     39  C   LIG A   1      -5.211  -0.700 125.801  0.00  0.00    +0.019 C 
BRANCH  38  40
ATOM     40  C   LIG A   1      -7.196  -2.255 126.084  0.00  0.00    +0.011 C 
ATOM     41  C   LIG A   1      -7.302  -2.802 124.667  0.00  0.00    +0.004 C 
ENDBRANCH  38  40
ENDBRANCH  36  38
ENDBRANCH  35  36
ENDBRANCH   8  35
TORSDOF 8
ENDMDL
MODEL 8
REMARK VINA RESULT:      -7.5      3.286      8.588
REMARK  Name = NuBBE_957
REMARK  15 active torsions:
REMARK  status: ('A' for Active; 'I' for Inactive)
REMARK    1  A    between atoms: C_3  and  C_4
REMARK    2  A    between atoms: C_5  and  C_7
REMARK    3  A    between atoms: C_7  and  C_8
REMARK    4  A    between atoms: C_8  and  O_9
REMARK    5  A    between atoms: O_9  and  C_10
REMARK    6  A    between atoms: C_12  and  C_13
REMARK    7  A    between atoms: C_12  and  C_14
REMARK    8  A    between atoms: C_15  and  O_17
REMARK    9  A    between atoms: O_17  and  C_18
REMARK   10  A    between atoms: C_18  and  C_19
REMARK   11  A    between atoms: C_19  and  C_20
REMARK   12  A    between atoms: C_19  and  C_22
REMARK   13  A    between atoms: C_20  and  C_21
REMARK   14  A    between atoms: C_29  and  C_31
REMARK   15  A    between atoms: C_38  and  C_41
REMARK                            x       y       z     vdW  Elec       q    Type
REMARK                         _______ _______ _______ _____ _____    ______ ____
ROOT
ATOM      1  C   LIG A   1      -3.867   5.066 129.696  0.00  0.00    +0.037 C 
ATOM      2  C   LIG A   1      -3.991   3.993 128.475  0.00  0.00    +0.036 C 
ATOM      3  C   LIG A   1      -2.646   3.878 127.726  0.00  0.00    +0.019 C 
ATOM      4  C   LIG A   1      -5.271   4.263 127.519  0.00  0.00    +0.022 C 
ATOM      5  C   LIG A   1      -6.597   3.425 127.942  0.00  0.00    +0.007 C 
ATOM      6  C   LIG A   1      -7.858   4.150 127.386  0.00  0.00    +0.015 C 
ATOM      7  C   LIG A   1      -6.687   2.001 127.319  0.00  0.00    +0.015 C 
ATOM      8  C   LIG A   1      -6.666   3.291 129.510  0.00  0.00    +0.195 C 
ATOM      9  C   LIG A   1      -3.945   4.504 131.134  0.00  0.00    +0.104 C 
ATOM     10  C   LIG A   1      -3.788   5.483 132.297  0.00  0.00    +0.044 C 
ATOM     11  C   LIG A   1      -3.703   4.850 133.687  0.00  0.00    +0.127 C 
ATOM     12  C   LIG A   1      -3.612   5.869 134.800  0.00  0.00    +0.308 C 
ATOM     13  O   LIG A   1      -2.949   7.019 134.540  0.00  0.00    -0.456 OA
ATOM     14  C   LIG A   1      -2.894   7.578 133.207  0.00  0.00    +0.216 C 
ATOM     15  O   LIG A   1      -4.016   5.614 135.926  0.00  0.00    -0.251 OA
ATOM     16  C   LIG A   1      -2.606   6.480 132.135  0.00  0.00    +0.015 C 
ATOM     17  C   LIG A   1      -2.630   7.069 130.705  0.00  0.00    +0.011 C 
ATOM     18  C   LIG A   1      -2.644   6.002 129.606  0.00  0.00    +0.008 C 
ATOM     19  C   LIG A   1      -1.220   5.832 132.400  0.00  0.00    +0.015 C 
ATOM     20  O   LIG A   1      -3.360   3.225 131.369  0.00  0.00    -0.363 OA
ATOM     21  C   LIG A   1      -4.807   3.270 131.307  0.00  0.00    +0.165 C 
ATOM     22  C   LIG A   1      -5.383   2.617 130.092  0.00  0.00    +0.129 C 
ATOM     23  C   LIG A   1      -4.295   2.620 129.044  0.00  0.00    +0.149 C 
ATOM     24  O   LIG A   1      -3.753   1.584 128.663  0.00  0.00    -0.296 OA
ENDROOT
BRANCH  14  25
ATOM     25  C   LIG A   1      -1.975   8.768 133.182  0.00  0.00    +0.031 A 
ATOM     26  C   LIG A   1      -0.624   8.767 133.485  0.00  0.00    +0.202 A 
ATOM     27  O   LIG A   1      -0.085   9.999 133.325  0.00  0.00    -0.471 OA
ATOM     28  C   LIG A   1      -1.081  10.814 132.894  0.00  0.00    +0.195 A 
ATOM     29  C   LIG A   1      -2.262  10.108 132.788  0.00  0.00    +0.048 A 
ENDBRANCH  14  25
BRANCH   4  30
ATOM     30  C   LIG A   1      -5.016   4.062 125.997  0.00  0.00    +0.125 C 
BRANCH  30  31
ATOM     31  C   LIG A   1      -5.863   4.903 125.065  0.00  0.00    +0.307 C 
ATOM     32  O   LIG A   1      -6.055   6.105 125.174  0.00  0.00    -0.251 OA
BRANCH  31  33
ATOM     33  O   LIG A   1      -6.428   4.081 124.137  0.00  0.00    -0.468 OA
ATOM     34  C   LIG A   1      -5.804   4.012 122.852  0.00  0.00    +0.280 C 
ENDBRANCH  31  33
ENDBRANCH  30  31
ENDBRANCH   4  30
BRANCH   8  35
ATOM     35  O   LIG A   1      -6.917   4.617 130.055  0.00  0.00    -0.460 OA
BRANCH  35  36
ATOM     36  C   LIG A   1      -8.080   4.781 130.758  0.00  0.00    +0.310 C 
ATOM     37  O   LIG A   1      -8.975   3.944 130.801  0.00  0.00    -0.251 OA
BRANCH  36  38
ATOM     38  C   LIG A   1      -8.175   6.145 131.455  0.00  0.00    +0.094 C 
ATOM     39  C   LIG A   1      -6.883   6.931 131.181  0.00  0.00    +0.019 C 
BRANCH  38  40
ATOM     40  C   LIG A   1      -8.446   6.033 132.967  0.00  0.00    +0.011 C 
ATOM     41  C   LIG A   1      -7.297   5.443 133.773  0.00  0.00    +0.004 C 
ENDBRANCH  38  40
ENDBRANCH  36  38
ENDBRANCH  35  36
ENDBRANCH   8  35
TORSDOF 8
ENDMDL
MODEL 9
REMARK VINA RESULT:      -7.4      2.781      7.303
REMARK  Name = NuBBE_957
REMARK  15 active torsions:
REMARK  status: ('A' for Active; 'I' for Inactive)
REMARK    1  A    between atoms: C_3  and  C_4
REMARK    2  A    between atoms: C_5  and  C_7
REMARK    3  A    between atoms: C_7  and  C_8
REMARK    4  A    between atoms: C_8  and  O_9
REMARK    5  A    between atoms: O_9  and  C_10
REMARK    6  A    between atoms: C_12  and  C_13
REMARK    7  A    between atoms: C_12  and  C_14
REMARK    8  A    between atoms: C_15  and  O_17
REMARK    9  A    between atoms: O_17  and  C_18
REMARK   10  A    between atoms: C_18  and  C_19
REMARK   11  A    between atoms: C_19  and  C_20
REMARK   12  A    between atoms: C_19  and  C_22
REMARK   13  A    between atoms: C_20  and  C_21
REMARK   14  A    between atoms: C_29  and  C_31
REMARK   15  A    between atoms: C_38  and  C_41
REMARK                            x       y       z     vdW  Elec       q    Type
REMARK                         _______ _______ _______ _____ _____    ______ ____
ROOT
ATOM      1  C   LIG A   1      -6.980   0.192 126.992  0.00  0.00    +0.037 C 
ATOM      2  C   LIG A   1      -8.046  -0.064 125.786  0.00  0.00    +0.036 C 
ATOM      3  C   LIG A   1      -8.765  -1.416 125.986  0.00  0.00    +0.019 C 
ATOM      4  C   LIG A   1      -7.403   0.143 124.314  0.00  0.00    +0.022 C 
ATOM      5  C   LIG A   1      -7.597   1.640 123.714  0.00  0.00    +0.007 C 
ATOM      6  C   LIG A   1      -6.502   1.907 122.641  0.00  0.00    +0.015 C 
ATOM      7  C   LIG A   1      -8.932   1.858 122.941  0.00  0.00    +0.015 C 
ATOM      8  C   LIG A   1      -7.517   2.696 124.881  0.00  0.00    +0.195 C 
ATOM      9  C   LIG A   1      -7.302   1.335 127.981  0.00  0.00    +0.104 C 
ATOM     10  C   LIG A   1      -6.340   1.568 129.147  0.00  0.00    +0.044 C 
ATOM     11  C   LIG A   1      -6.795   2.596 130.184  0.00  0.00    +0.127 C 
ATOM     12  C   LIG A   1      -5.778   2.829 131.277  0.00  0.00    +0.308 C 
ATOM     13  O   LIG A   1      -5.018   1.776 131.657  0.00  0.00    -0.456 OA
ATOM     14  C   LIG A   1      -4.680   0.713 130.737  0.00  0.00    +0.216 C 
ATOM     15  O   LIG A   1      -5.725   3.894 131.877  0.00  0.00    -0.251 OA
ATOM     16  C   LIG A   1      -5.914   0.270 129.890  0.00  0.00    +0.015 C 
ATOM     17  C   LIG A   1      -5.528  -0.807 128.850  0.00  0.00    +0.011 C 
ATOM     18  C   LIG A   1      -6.618  -1.068 127.806  0.00  0.00    +0.008 C 
ATOM     19  C   LIG A   1      -7.022  -0.290 130.822  0.00  0.00    +0.015 C 
ATOM     20  O   LIG A   1      -8.672   1.552 128.308  0.00  0.00    -0.363 OA
ATOM     21  C   LIG A   1      -8.068   2.506 127.400  0.00  0.00    +0.165 C 
ATOM     22  C   LIG A   1      -8.573   2.410 125.996  0.00  0.00    +0.129 C 
ATOM     23  C   LIG A   1      -9.116   1.011 125.827  0.00  0.00    +0.149 C 
ATOM     24  O   LIG A   1     -10.317   0.790 125.685  0.00  0.00    -0.296 OA
ENDROOT
BRANCH  14  25
ATOM     25  C   LIG A   1      -3.959  -0.390 131.461  0.00  0.00    +0.031 A 
ATOM     26  C   LIG A   1      -3.241  -1.420 130.878  0.00  0.00    +0.202 A 
ATOM     27  O   LIG A   1      -2.685  -2.222 131.818  0.00  0.00    -0.471 OA
ATOM     28  C   LIG A   1      -3.020  -1.707 133.027  0.00  0.00    +0.195 A 
ATOM     29  C   LIG A   1      -3.801  -0.580 132.866  0.00  0.00    +0.048 A 
ENDBRANCH  14  25
BRANCH   4  30
ATOM     30  C   LIG A   1      -7.857  -0.888 123.240  0.00  0.00    +0.125 C 
BRANCH  30  31
ATOM     31  C   LIG A   1      -6.830  -1.928 122.842  0.00  0.00    +0.307 C 
ATOM     32  O   LIG A   1      -6.086  -1.854 121.876  0.00  0.00    -0.251 OA
BRANCH  31  33
ATOM     33  O   LIG A   1      -6.932  -2.983 123.699  0.00  0.00    -0.468 OA
ATOM     34  C   LIG A   1      -5.796  -3.277 124.518  0.00  0.00    +0.280 C 
ENDBRANCH  31  33
ENDBRANCH  30  31
ENDBRANCH   4  30
BRANCH   8  35
ATOM     35  O   LIG A   1      -6.148   2.705 125.373  0.00  0.00    -0.460 OA
BRANCH  35  36
ATOM     36  C   LIG A   1      -5.545   3.929 125.487  0.00  0.00    +0.310 C 
ATOM     37  O   LIG A   1      -5.990   4.957 124.989  0.00  0.00    -0.251 OA
BRANCH  36  38
ATOM     38  C   LIG A   1      -4.223   3.880 126.265  0.00  0.00    +0.094 C 
ATOM     39  C   LIG A   1      -3.845   2.409 126.504  0.00  0.00    +0.019 C 
BRANCH  38  40
ATOM     40  C   LIG A   1      -4.273   4.662 127.590  0.00  0.00    +0.011 C 
ATOM     41  C   LIG A   1      -3.442   4.059 128.713  0.00  0.00    +0.004 C 
ENDBRANCH  38  40
ENDBRANCH  36  38
ENDBRANCH  35  36
ENDBRANCH   8  35
TORSDOF 8
ENDMDL
