MODEL 1
REMARK VINA RESULT:      -9.1      0.000      0.000
REMARK  Name = NuBBE_1072
REMARK  11 active torsions:
REMARK  status: ('A' for Active; 'I' for Inactive)
REMARK    1  A    between atoms: O_1  and  C_2
REMARK    2  A    between atoms: C_6  and  C_7
REMARK    3  A    between atoms: C_11  and  C_12
REMARK    4  A    between atoms: C_17  and  C_18
REMARK    5  A    between atoms: C_21  and  C_22
REMARK    6  A    between atoms: C_24  and  C_26
REMARK    7  A    between atoms: C_26  and  C_27
REMARK    8  A    between atoms: C_26  and  O_28
REMARK    9  A    between atoms: C_26  and  C_29
REMARK   10  A    between atoms: C_32  and  C_33
REMARK   11  A    between atoms: C_32  and  C_34
REMARK                            x       y       z     vdW  Elec       q    Type
REMARK                         _______ _______ _______ _____ _____    ______ ____
ROOT
ATOM      1  C   LIG A   1      -8.781  -2.341 123.422  0.00  0.00    +0.120 C 
ATOM      2  C   LIG A   1      -9.257  -0.895 123.314  0.00  0.00    +0.032 C 
ATOM      3  C   LIG A   1      -9.107  -0.111 124.623  0.00  0.00    +0.010 C 
ATOM      4  C   LIG A   1      -7.672  -0.140 125.236  0.00  0.00    -0.025 C 
ATOM      5  C   LIG A   1      -6.772   0.741 124.336  0.00  0.00    +0.012 C 
ATOM      6  C   LIG A   1      -7.214  -1.645 125.325  0.00  0.00    +0.003 C 
ATOM      7  C   LIG A   1      -5.858  -1.773 126.047  0.00  0.00    +0.005 C 
ATOM      8  C   LIG A   1      -5.945  -1.244 127.485  0.00  0.00    +0.008 C 
ATOM      9  C   LIG A   1      -6.431   0.230 127.613  0.00  0.00    -0.023 C 
ATOM     10  C   LIG A   1      -5.263   1.129 127.110  0.00  0.00    +0.012 C 
ATOM     11  C   LIG A   1      -7.733   0.406 126.733  0.00  0.00    +0.002 C 
ATOM     12  C   LIG A   1      -8.300   1.825 126.883  0.00  0.00    +0.005 C 
ATOM     13  C   LIG A   1      -8.605   2.177 128.341  0.00  0.00    +0.005 C 
ATOM     14  C   LIG A   1      -7.399   2.036 129.277  0.00  0.00    -0.000 C 
ATOM     15  C   LIG A   1      -6.775   0.602 129.169  0.00  0.00    -0.023 C 
ATOM     16  C   LIG A   1      -7.755  -0.446 129.769  0.00  0.00    +0.012 C 
ATOM     17  C   LIG A   1      -5.483   0.643 130.023  0.00  0.00    +0.008 C 
ATOM     18  C   LIG A   1      -5.739   0.823 131.505  0.00  0.00    +0.007 C 
ATOM     19  C   LIG A   1      -6.693   1.979 131.873  0.00  0.00    -0.029 C 
ATOM     20  C   LIG A   1      -5.847   3.097 132.535  0.00  0.00    +0.011 C 
ATOM     21  C   LIG A   1      -7.576   2.632 130.739  0.00  0.00    +0.004 C 
ATOM     22  C   LIG A   1      -9.024   2.791 131.346  0.00  0.00    +0.024 C 
ATOM     23  C   LIG A   1      -8.885   2.367 132.828  0.00  0.00    +0.007 C 
ATOM     24  C   LIG A   1      -7.704   1.439 132.902  0.00  0.00    +0.007 C 
ATOM     25  C   LIG A   1      -7.343  -2.489 124.003  0.00  0.00    -0.006 C 
ATOM     26  C   LIG A   1      -6.310  -2.104 122.925  0.00  0.00    +0.014 C 
ATOM     27  C   LIG A   1      -7.103  -3.993 124.313  0.00  0.00    +0.014 C 
ENDROOT
BRANCH  22  28
ATOM     28  C   LIG A   1      -9.674   4.226 131.312  0.00  0.00    +0.064 C 
ATOM     29  C   LIG A   1     -10.955   4.224 130.454  0.00  0.00    +0.041 C 
ATOM     30  C   LIG A   1      -8.771   5.341 130.793  0.00  0.00    +0.041 C 
BRANCH  28  31
ATOM     31  O   LIG A   1     -10.043   4.599 132.647  0.00  0.00    -0.389 OA
ATOM     32  H   LIG A   1     -10.144   5.566 132.677  0.00  0.00    +0.210 HD
ENDBRANCH  28  31
ENDBRANCH  22  28
BRANCH   1  33
ATOM     33  O   LIG A   1      -9.736  -3.069 124.201  0.00  0.00    -0.391 OA
ATOM     34  H   LIG A   1      -9.503  -2.989 125.139  0.00  0.00    +0.210 HD
ENDBRANCH   1  33
TORSDOF 3
ENDMDL
MODEL 2
REMARK VINA RESULT:      -8.9      3.008      7.419
REMARK  Name = NuBBE_1072
REMARK  11 active torsions:
REMARK  status: ('A' for Active; 'I' for Inactive)
REMARK    1  A    between atoms: O_1  and  C_2
REMARK    2  A    between atoms: C_6  and  C_7
REMARK    3  A    between atoms: C_11  and  C_12
REMARK    4  A    between atoms: C_17  and  C_18
REMARK    5  A    between atoms: C_21  and  C_22
REMARK    6  A    between atoms: C_24  and  C_26
REMARK    7  A    between atoms: C_26  and  C_27
REMARK    8  A    between atoms: C_26  and  O_28
REMARK    9  A    between atoms: C_26  and  C_29
REMARK   10  A    between atoms: C_32  and  C_33
REMARK   11  A    between atoms: C_32  and  C_34
REMARK                            x       y       z     vdW  Elec       q    Type
REMARK                         _______ _______ _______ _____ _____    ______ ____
ROOT
ATOM      1  C   LIG A   1      -4.539  -1.489 133.267  0.00  0.00    +0.120 C 
ATOM      2  C   LIG A   1      -5.629  -0.425 133.172  0.00  0.00    +0.032 C 
ATOM      3  C   LIG A   1      -6.177  -0.248 131.751  0.00  0.00    +0.010 C 
ATOM      4  C   LIG A   1      -6.678  -1.565 131.080  0.00  0.00    -0.025 C 
ATOM      5  C   LIG A   1      -7.996  -1.965 131.787  0.00  0.00    +0.012 C 
ATOM      6  C   LIG A   1      -5.531  -2.639 131.205  0.00  0.00    +0.003 C 
ATOM      7  C   LIG A   1      -5.894  -3.930 130.446  0.00  0.00    +0.005 C 
ATOM      8  C   LIG A   1      -6.091  -3.656 128.949  0.00  0.00    +0.008 C 
ATOM      9  C   LIG A   1      -7.164  -2.576 128.618  0.00  0.00    -0.023 C 
ATOM     10  C   LIG A   1      -8.550  -3.219 128.916  0.00  0.00    +0.012 C 
ATOM     11  C   LIG A   1      -6.893  -1.307 129.522  0.00  0.00    +0.002 C 
ATOM     12  C   LIG A   1      -7.878  -0.180 129.180  0.00  0.00    +0.005 C 
ATOM     13  C   LIG A   1      -7.822   0.213 127.702  0.00  0.00    +0.005 C 
ATOM     14  C   LIG A   1      -8.071  -0.956 126.742  0.00  0.00    -0.000 C 
ATOM     15  C   LIG A   1      -7.092  -2.142 127.041  0.00  0.00    -0.023 C 
ATOM     16  C   LIG A   1      -5.639  -1.736 126.660  0.00  0.00    +0.012 C 
ATOM     17  C   LIG A   1      -7.554  -3.307 126.129  0.00  0.00    +0.008 C 
ATOM     18  C   LIG A   1      -7.363  -3.034 124.652  0.00  0.00    +0.007 C 
ATOM     19  C   LIG A   1      -7.911  -1.679 124.155  0.00  0.00    -0.029 C 
ATOM     20  C   LIG A   1      -9.162  -1.966 123.286  0.00  0.00    +0.011 C 
ATOM     21  C   LIG A   1      -8.286  -0.572 125.215  0.00  0.00    +0.004 C 
ATOM     22  C   LIG A   1      -7.697   0.784 124.662  0.00  0.00    +0.024 C 
ATOM     23  C   LIG A   1      -7.144   0.437 123.259  0.00  0.00    +0.007 C 
ATOM     24  C   LIG A   1      -6.825  -1.033 123.273  0.00  0.00    +0.007 C 
ATOM     25  C   LIG A   1      -4.942  -2.860 132.647  0.00  0.00    -0.006 C 
ATOM     26  C   LIG A   1      -5.907  -3.592 133.599  0.00  0.00    +0.014 C 
ATOM     27  C   LIG A   1      -3.665  -3.742 132.563  0.00  0.00    +0.014 C 
ENDROOT
BRANCH  22  28
ATOM     28  C   LIG A   1      -8.690   1.998 124.504  0.00  0.00    +0.064 C 
ATOM     29  C   LIG A   1     -10.133   1.497 124.292  0.00  0.00    +0.041 C 
ATOM     30  C   LIG A   1      -8.363   2.967 123.372  0.00  0.00    +0.041 C 
BRANCH  28  31
ATOM     31  O   LIG A   1      -8.670   2.772 125.712  0.00  0.00    -0.389 OA
ATOM     32  H   LIG A   1      -9.426   2.500 126.261  0.00  0.00    +0.210 HD
ENDBRANCH  28  31
ENDBRANCH  22  28
BRANCH   1  33
ATOM     33  O   LIG A   1      -3.352  -0.969 132.659  0.00  0.00    -0.391 OA
ATOM     34  H   LIG A   1      -2.729  -0.713 133.357  0.00  0.00    +0.210 HD
ENDBRANCH   1  33
TORSDOF 3
ENDMDL
MODEL 3
REMARK VINA RESULT:      -8.8      3.270      4.642
REMARK  Name = NuBBE_1072
REMARK  11 active torsions:
REMARK  status: ('A' for Active; 'I' for Inactive)
REMARK    1  A    between atoms: O_1  and  C_2
REMARK    2  A    between atoms: C_6  and  C_7
REMARK    3  A    between atoms: C_11  and  C_12
REMARK    4  A    between atoms: C_17  and  C_18
REMARK    5  A    between atoms: C_21  and  C_22
REMARK    6  A    between atoms: C_24  and  C_26
REMARK    7  A    between atoms: C_26  and  C_27
REMARK    8  A    between atoms: C_26  and  O_28
REMARK    9  A    between atoms: C_26  and  C_29
REMARK   10  A    between atoms: C_32  and  C_33
REMARK   11  A    between atoms: C_32  and  C_34
REMARK                            x       y       z     vdW  Elec       q    Type
REMARK                         _______ _______ _______ _____ _____    ______ ____
ROOT
ATOM      1  C   LIG A   1      -6.011  -4.003 130.570  0.00  0.00    +0.120 C 
ATOM      2  C   LIG A   1      -7.142  -3.521 129.667  0.00  0.00    +0.032 C 
ATOM      3  C   LIG A   1      -7.464  -2.033 129.844  0.00  0.00    +0.010 C 
ATOM      4  C   LIG A   1      -6.235  -1.081 129.690  0.00  0.00    -0.025 C 
ATOM      5  C   LIG A   1      -5.860  -1.059 128.188  0.00  0.00    +0.012 C 
ATOM      6  C   LIG A   1      -5.089  -1.615 130.630  0.00  0.00    +0.003 C 
ATOM      7  C   LIG A   1      -3.885  -0.652 130.641  0.00  0.00    +0.005 C 
ATOM      8  C   LIG A   1      -4.289   0.732 131.165  0.00  0.00    +0.008 C 
ATOM      9  C   LIG A   1      -5.453   1.414 130.387  0.00  0.00    -0.023 C 
ATOM     10  C   LIG A   1      -4.872   1.852 129.010  0.00  0.00    +0.012 C 
ATOM     11  C   LIG A   1      -6.628   0.367 130.227  0.00  0.00    +0.002 C 
ATOM     12  C   LIG A   1      -7.836   1.012 129.532  0.00  0.00    +0.005 C 
ATOM     13  C   LIG A   1      -8.340   2.252 130.275  0.00  0.00    +0.005 C 
ATOM     14  C   LIG A   1      -7.268   3.328 130.481  0.00  0.00    -0.000 C 
ATOM     15  C   LIG A   1      -6.005   2.729 131.189  0.00  0.00    -0.023 C 
ATOM     16  C   LIG A   1      -6.353   2.356 132.659  0.00  0.00    +0.012 C 
ATOM     17  C   LIG A   1      -4.946   3.860 131.185  0.00  0.00    +0.008 C 
ATOM     18  C   LIG A   1      -5.323   5.048 132.045  0.00  0.00    +0.007 C 
ATOM     19  C   LIG A   1      -6.743   5.607 131.812  0.00  0.00    -0.029 C 
ATOM     20  C   LIG A   1      -6.602   6.978 131.103  0.00  0.00    +0.011 C 
ATOM     21  C   LIG A   1      -7.784   4.736 131.005  0.00  0.00    +0.004 C 
ATOM     22  C   LIG A   1      -9.142   4.820 131.805  0.00  0.00    +0.024 C 
ATOM     23  C   LIG A   1      -8.875   5.837 132.941  0.00  0.00    +0.007 C 
ATOM     24  C   LIG A   1      -7.392   5.822 133.193  0.00  0.00    +0.007 C 
ATOM     25  C   LIG A   1      -4.719  -3.137 130.479  0.00  0.00    -0.006 C 
ATOM     26  C   LIG A   1      -3.973  -3.461 129.170  0.00  0.00    +0.014 C 
ATOM     27  C   LIG A   1      -3.772  -3.565 131.635  0.00  0.00    +0.014 C 
ENDROOT
BRANCH  22  28
ATOM     28  C   LIG A   1     -10.421   5.298 131.019  0.00  0.00    +0.064 C 
ATOM     29  C   LIG A   1     -10.034   5.851 129.633  0.00  0.00    +0.041 C 
ATOM     30  C   LIG A   1     -11.263   6.358 131.722  0.00  0.00    +0.041 C 
BRANCH  28  31
ATOM     31  O   LIG A   1     -11.285   4.171 130.813  0.00  0.00    -0.389 OA
ATOM     32  H   LIG A   1     -12.205   4.468 130.923  0.00  0.00    +0.210 HD
ENDBRANCH  28  31
ENDBRANCH  22  28
BRANCH   1  33
ATOM     33  O   LIG A   1      -6.506  -4.065 131.912  0.00  0.00    -0.391 OA
ATOM     34  H   LIG A   1      -7.404  -3.699 131.932  0.00  0.00    +0.210 HD
ENDBRANCH   1  33
TORSDOF 3
ENDMDL
MODEL 4
REMARK VINA RESULT:      -8.4      2.029      7.896
REMARK  Name = NuBBE_1072
REMARK  11 active torsions:
REMARK  status: ('A' for Active; 'I' for Inactive)
REMARK    1  A    between atoms: O_1  and  C_2
REMARK    2  A    between atoms: C_6  and  C_7
REMARK    3  A    between atoms: C_11  and  C_12
REMARK    4  A    between atoms: C_17  and  C_18
REMARK    5  A    between atoms: C_21  and  C_22
REMARK    6  A    between atoms: C_24  and  C_26
REMARK    7  A    between atoms: C_26  and  C_27
REMARK    8  A    between atoms: C_26  and  O_28
REMARK    9  A    between atoms: C_26  and  C_29
REMARK   10  A    between atoms: C_32  and  C_33
REMARK   11  A    between atoms: C_32  and  C_34
REMARK                            x       y       z     vdW  Elec       q    Type
REMARK                         _______ _______ _______ _____ _____    ______ ____
ROOT
ATOM      1  C   LIG A   1      -8.344   6.697 131.315  0.00  0.00    +0.120 C 
ATOM      2  C   LIG A   1      -8.999   6.288 129.998  0.00  0.00    +0.032 C 
ATOM      3  C   LIG A   1      -8.651   4.858 129.570  0.00  0.00    +0.010 C 
ATOM      4  C   LIG A   1      -8.937   3.769 130.652  0.00  0.00    -0.025 C 
ATOM      5  C   LIG A   1     -10.474   3.614 130.748  0.00  0.00    +0.012 C 
ATOM      6  C   LIG A   1      -8.253   4.230 131.995  0.00  0.00    +0.003 C 
ATOM      7  C   LIG A   1      -8.373   3.143 133.081  0.00  0.00    +0.005 C 
ATOM      8  C   LIG A   1      -7.679   1.846 132.645  0.00  0.00    +0.008 C 
ATOM      9  C   LIG A   1      -8.188   1.251 131.299  0.00  0.00    -0.023 C 
ATOM     10  C   LIG A   1      -9.605   0.668 131.578  0.00  0.00    +0.012 C 
ATOM     11  C   LIG A   1      -8.227   2.409 130.223  0.00  0.00    +0.002 C 
ATOM     12  C   LIG A   1      -8.651   1.859 128.852  0.00  0.00    +0.005 C 
ATOM     13  C   LIG A   1      -7.736   0.731 128.371  0.00  0.00    +0.005 C 
ATOM     14  C   LIG A   1      -7.632  -0.443 129.352  0.00  0.00    -0.000 C 
ATOM     15  C   LIG A   1      -7.201   0.056 130.774  0.00  0.00    -0.023 C 
ATOM     16  C   LIG A   1      -5.727   0.554 130.733  0.00  0.00    +0.012 C 
ATOM     17  C   LIG A   1      -7.297  -1.183 131.699  0.00  0.00    +0.008 C 
ATOM     18  C   LIG A   1      -6.293  -2.268 131.369  0.00  0.00    +0.007 C 
ATOM     19  C   LIG A   1      -6.233  -2.679 129.882  0.00  0.00    -0.029 C 
ATOM     20  C   LIG A   1      -6.845  -4.099 129.760  0.00  0.00    +0.011 C 
ATOM     21  C   LIG A   1      -6.916  -1.751 128.804  0.00  0.00    +0.004 C 
ATOM     22  C   LIG A   1      -5.890  -1.635 127.610  0.00  0.00    +0.024 C 
ATOM     23  C   LIG A   1      -4.740  -2.604 127.976  0.00  0.00    +0.007 C 
ATOM     24  C   LIG A   1      -4.749  -2.737 129.474  0.00  0.00    +0.007 C 
ATOM     25  C   LIG A   1      -8.586   5.690 132.478  0.00  0.00    -0.006 C 
ATOM     26  C   LIG A   1     -10.026   5.849 133.006  0.00  0.00    +0.014 C 
ATOM     27  C   LIG A   1      -7.649   6.081 133.654  0.00  0.00    +0.014 C 
ENDROOT
BRANCH  22  28
ATOM     28  C   LIG A   1      -6.404  -2.017 126.170  0.00  0.00    +0.064 C 
ATOM     29  C   LIG A   1      -6.520  -0.761 125.283  0.00  0.00    +0.041 C 
ATOM     30  C   LIG A   1      -7.746  -2.742 126.125  0.00  0.00    +0.041 C 
BRANCH  28  31
ATOM     31  O   LIG A   1      -5.452  -2.898 125.557  0.00  0.00    -0.389 OA
ATOM     32  H   LIG A   1      -4.785  -3.136 126.223  0.00  0.00    +0.210 HD
ENDBRANCH  28  31
ENDBRANCH  22  28
BRANCH   1  33
ATOM     33  O   LIG A   1      -6.946   6.895 131.077  0.00  0.00    -0.391 OA
ATOM     34  H   LIG A   1      -6.796   6.952 130.121  0.00  0.00    +0.210 HD
ENDBRANCH   1  33
TORSDOF 3
ENDMDL
MODEL 5
REMARK VINA RESULT:      -8.4      3.890      8.361
REMARK  Name = NuBBE_1072
REMARK  11 active torsions:
REMARK  status: ('A' for Active; 'I' for Inactive)
REMARK    1  A    between atoms: O_1  and  C_2
REMARK    2  A    between atoms: C_6  and  C_7
REMARK    3  A    between atoms: C_11  and  C_12
REMARK    4  A    between atoms: C_17  and  C_18
REMARK    5  A    between atoms: C_21  and  C_22
REMARK    6  A    between atoms: C_24  and  C_26
REMARK    7  A    between atoms: C_26  and  C_27
REMARK    8  A    between atoms: C_26  and  O_28
REMARK    9  A    between atoms: C_26  and  C_29
REMARK   10  A    between atoms: C_32  and  C_33
REMARK   11  A    between atoms: C_32  and  C_34
REMARK                            x       y       z     vdW  Elec       q    Type
REMARK                         _______ _______ _______ _____ _____    ______ ____
ROOT
ATOM      1  C   LIG A   1      -8.898   4.946 133.510  0.00  0.00    +0.120 C 
ATOM      2  C   LIG A   1      -7.805   4.528 134.489  0.00  0.00    +0.032 C 
ATOM      3  C   LIG A   1      -7.143   3.196 134.122  0.00  0.00    +0.010 C 
ATOM      4  C   LIG A   1      -6.587   3.127 132.665  0.00  0.00    -0.025 C 
ATOM      5  C   LIG A   1      -5.331   4.031 132.612  0.00  0.00    +0.012 C 
ATOM      6  C   LIG A   1      -7.740   3.572 131.686  0.00  0.00    +0.003 C 
ATOM      7  C   LIG A   1      -7.315   3.402 130.214  0.00  0.00    +0.005 C 
ATOM      8  C   LIG A   1      -6.996   1.936 129.896  0.00  0.00    +0.008 C 
ATOM      9  C   LIG A   1      -5.901   1.293 130.798  0.00  0.00    -0.023 C 
ATOM     10  C   LIG A   1      -4.543   1.921 130.365  0.00  0.00    +0.012 C 
ATOM     11  C   LIG A   1      -6.246   1.612 132.308  0.00  0.00    +0.002 C 
ATOM     12  C   LIG A   1      -5.237   0.935 133.247  0.00  0.00    +0.005 C 
ATOM     13  C   LIG A   1      -5.173  -0.580 133.037  0.00  0.00    +0.005 C 
ATOM     14  C   LIG A   1      -4.845  -0.991 131.597  0.00  0.00    -0.000 C 
ATOM     15  C   LIG A   1      -5.844  -0.329 130.587  0.00  0.00    -0.023 C 
ATOM     16  C   LIG A   1      -7.261  -0.946 130.767  0.00  0.00    +0.012 C 
ATOM     17  C   LIG A   1      -5.308  -0.682 129.176  0.00  0.00    +0.008 C 
ATOM     18  C   LIG A   1      -5.378  -2.159 128.850  0.00  0.00    +0.007 C 
ATOM     19  C   LIG A   1      -4.792  -3.099 129.926  0.00  0.00    -0.029 C 
ATOM     20  C   LIG A   1      -3.474  -3.693 129.367  0.00  0.00    +0.011 C 
ATOM     21  C   LIG A   1      -4.506  -2.526 131.368  0.00  0.00    +0.004 C 
ATOM     22  C   LIG A   1      -5.049  -3.604 132.386  0.00  0.00    +0.024 C 
ATOM     23  C   LIG A   1      -5.486  -4.800 131.506  0.00  0.00    +0.007 C 
ATOM     24  C   LIG A   1      -5.803  -4.242 130.146  0.00  0.00    +0.007 C 
ATOM     25  C   LIG A   1      -8.445   4.939 132.019  0.00  0.00    -0.006 C 
ATOM     26  C   LIG A   1      -7.560   6.170 131.744  0.00  0.00    +0.014 C 
ATOM     27  C   LIG A   1      -9.710   5.107 131.133  0.00  0.00    +0.014 C 
ENDROOT
BRANCH  22  28
ATOM     28  C   LIG A   1      -4.048  -4.144 133.476  0.00  0.00    +0.064 C 
ATOM     29  C   LIG A   1      -4.043  -5.686 133.494  0.00  0.00    +0.041 C 
ATOM     30  C   LIG A   1      -4.310  -3.664 134.900  0.00  0.00    +0.041 C 
BRANCH  28  31
ATOM     31  O   LIG A   1      -2.722  -3.708 133.144  0.00  0.00    -0.389 OA
ATOM     32  H   LIG A   1      -2.140  -3.901 133.899  0.00  0.00    +0.210 HD
ENDBRANCH  28  31
ENDBRANCH  22  28
BRANCH   1  33
ATOM     33  O   LIG A   1     -10.032   4.097 133.716  0.00  0.00    -0.391 OA
ATOM     34  H   LIG A   1      -9.792   3.401 134.347  0.00  0.00    +0.210 HD
ENDBRANCH   1  33
TORSDOF 3
ENDMDL
MODEL 6
REMARK VINA RESULT:      -8.3      1.894      8.002
REMARK  Name = NuBBE_1072
REMARK  11 active torsions:
REMARK  status: ('A' for Active; 'I' for Inactive)
REMARK    1  A    between atoms: O_1  and  C_2
REMARK    2  A    between atoms: C_6  and  C_7
REMARK    3  A    between atoms: C_11  and  C_12
REMARK    4  A    between atoms: C_17  and  C_18
REMARK    5  A    between atoms: C_21  and  C_22
REMARK    6  A    between atoms: C_24  and  C_26
REMARK    7  A    between atoms: C_26  and  C_27
REMARK    8  A    between atoms: C_26  and  O_28
REMARK    9  A    between atoms: C_26  and  C_29
REMARK   10  A    between atoms: C_32  and  C_33
REMARK   11  A    between atoms: C_32  and  C_34
REMARK                            x       y       z     vdW  Elec       q    Type
REMARK                         _______ _______ _______ _____ _____    ______ ____
ROOT
ATOM      1  C   LIG A   1      -6.371   5.765 133.141  0.00  0.00    +0.120 C 
ATOM      2  C   LIG A   1      -7.391   6.096 132.055  0.00  0.00    +0.032 C 
ATOM      3  C   LIG A   1      -7.573   4.968 131.034  0.00  0.00    +0.010 C 
ATOM      4  C   LIG A   1      -7.912   3.577 131.657  0.00  0.00    -0.025 C 
ATOM      5  C   LIG A   1      -9.367   3.653 132.179  0.00  0.00    +0.012 C 
ATOM      6  C   LIG A   1      -6.844   3.274 132.776  0.00  0.00    +0.003 C 
ATOM      7  C   LIG A   1      -7.026   1.855 133.349  0.00  0.00    +0.005 C 
ATOM      8  C   LIG A   1      -6.849   0.791 132.259  0.00  0.00    +0.008 C 
ATOM      9  C   LIG A   1      -7.794   0.947 131.031  0.00  0.00    -0.023 C 
ATOM     10  C   LIG A   1      -9.219   0.545 131.512  0.00  0.00    +0.012 C 
ATOM     11  C   LIG A   1      -7.736   2.450 130.543  0.00  0.00    +0.002 C 
ATOM     12  C   LIG A   1      -8.594   2.643 129.284  0.00  0.00    +0.005 C 
ATOM     13  C   LIG A   1      -8.172   1.710 128.146  0.00  0.00    +0.005 C 
ATOM     14  C   LIG A   1      -8.195   0.225 128.524  0.00  0.00    -0.000 C 
ATOM     15  C   LIG A   1      -7.334  -0.037 129.807  0.00  0.00    -0.023 C 
ATOM     16  C   LIG A   1      -5.827   0.175 129.483  0.00  0.00    +0.012 C 
ATOM     17  C   LIG A   1      -7.574  -1.523 130.176  0.00  0.00    +0.008 C 
ATOM     18  C   LIG A   1      -7.024  -2.499 129.158  0.00  0.00    +0.007 C 
ATOM     19  C   LIG A   1      -7.417  -2.213 127.692  0.00  0.00    -0.029 C 
ATOM     20  C   LIG A   1      -8.421  -3.308 127.250  0.00  0.00    +0.011 C 
ATOM     21  C   LIG A   1      -8.025  -0.804 127.325  0.00  0.00    +0.004 C 
ATOM     22  C   LIG A   1      -7.302  -0.344 126.000  0.00  0.00    +0.024 C 
ATOM     23  C   LIG A   1      -6.427  -1.550 125.582  0.00  0.00    +0.007 C 
ATOM     24  C   LIG A   1      -6.140  -2.329 126.836  0.00  0.00    +0.007 C 
ATOM     25  C   LIG A   1      -6.627   4.402 133.852  0.00  0.00    -0.006 C 
ATOM     26  C   LIG A   1      -7.805   4.547 134.835  0.00  0.00    +0.014 C 
ATOM     27  C   LIG A   1      -5.380   4.070 134.717  0.00  0.00    +0.014 C 
ENDROOT
BRANCH  22  28
ATOM     28  C   LIG A   1      -8.210   0.043 124.772  0.00  0.00    +0.064 C 
ATOM     29  C   LIG A   1      -7.840  -0.798 123.534  0.00  0.00    +0.041 C 
ATOM     30  C   LIG A   1      -8.168   1.513 124.364  0.00  0.00    +0.041 C 
BRANCH  28  31
ATOM     31  O   LIG A   1      -9.578  -0.242 125.100  0.00  0.00    -0.389 OA
ATOM     32  H   LIG A   1     -10.098  -0.228 124.278  0.00  0.00    +0.210 HD
ENDBRANCH  28  31
ENDBRANCH  22  28
BRANCH   1  33
ATOM     33  O   LIG A   1      -5.064   5.812 132.558  0.00  0.00    -0.391 OA
ATOM     34  H   LIG A   1      -4.900   6.710 132.231  0.00  0.00    +0.210 HD
ENDBRANCH   1  33
TORSDOF 3
ENDMDL
MODEL 7
REMARK VINA RESULT:      -8.2      2.330      3.256
REMARK  Name = NuBBE_1072
REMARK  11 active torsions:
REMARK  status: ('A' for Active; 'I' for Inactive)
REMARK    1  A    between atoms: O_1  and  C_2
REMARK    2  A    between atoms: C_6  and  C_7
REMARK    3  A    between atoms: C_11  and  C_12
REMARK    4  A    between atoms: C_17  and  C_18
REMARK    5  A    between atoms: C_21  and  C_22
REMARK    6  A    between atoms: C_24  and  C_26
REMARK    7  A    between atoms: C_26  and  C_27
REMARK    8  A    between atoms: C_26  and  O_28
REMARK    9  A    between atoms: C_26  and  C_29
REMARK   10  A    between atoms: C_32  and  C_33
REMARK   11  A    between atoms: C_32  and  C_34
REMARK                            x       y       z     vdW  Elec       q    Type
REMARK                         _______ _______ _______ _____ _____    ______ ____
ROOT
ATOM      1  C   LIG A   1      -8.448  -1.991 123.371  0.00  0.00    +0.120 C 
ATOM      2  C   LIG A   1      -7.184  -1.220 123.003  0.00  0.00    +0.032 C 
ATOM      3  C   LIG A   1      -6.699  -0.289 124.120  0.00  0.00    +0.010 C 
ATOM      4  C   LIG A   1      -6.498  -0.984 125.503  0.00  0.00    -0.025 C 
ATOM      5  C   LIG A   1      -5.241  -1.879 125.387  0.00  0.00    +0.012 C 
ATOM      6  C   LIG A   1      -7.819  -1.774 125.844  0.00  0.00    +0.003 C 
ATOM      7  C   LIG A   1      -7.756  -2.380 127.260  0.00  0.00    +0.005 C 
ATOM      8  C   LIG A   1      -7.600  -1.285 128.323  0.00  0.00    +0.008 C 
ATOM      9  C   LIG A   1      -6.364  -0.357 128.132  0.00  0.00    -0.023 C 
ATOM     10  C   LIG A   1      -5.109  -1.206 128.494  0.00  0.00    +0.012 C 
ATOM     11  C   LIG A   1      -6.333   0.132 126.629  0.00  0.00    +0.002 C 
ATOM     12  C   LIG A   1      -5.174   1.114 126.404  0.00  0.00    +0.005 C 
ATOM     13  C   LIG A   1      -5.244   2.321 127.343  0.00  0.00    +0.005 C 
ATOM     14  C   LIG A   1      -5.280   1.947 128.829  0.00  0.00    -0.000 C 
ATOM     15  C   LIG A   1      -6.447   0.943 129.123  0.00  0.00    -0.023 C 
ATOM     16  C   LIG A   1      -7.816   1.662 128.954  0.00  0.00    +0.012 C 
ATOM     17  C   LIG A   1      -6.270   0.518 130.603  0.00  0.00    +0.008 C 
ATOM     18  C   LIG A   1      -6.496   1.645 131.590  0.00  0.00    +0.007 C 
ATOM     19  C   LIG A   1      -5.731   2.950 131.285  0.00  0.00    -0.029 C 
ATOM     20  C   LIG A   1      -4.612   3.102 132.346  0.00  0.00    +0.011 C 
ATOM     21  C   LIG A   1      -5.088   3.143 129.856  0.00  0.00    +0.004 C 
ATOM     22  C   LIG A   1      -5.441   4.616 129.411  0.00  0.00    +0.024 C 
ATOM     23  C   LIG A   1      -6.134   5.251 130.640  0.00  0.00    +0.007 C 
ATOM     24  C   LIG A   1      -6.725   4.118 131.434  0.00  0.00    +0.007 C 
ATOM     25  C   LIG A   1      -8.352  -2.749 124.729  0.00  0.00    -0.006 C 
ATOM     26  C   LIG A   1      -7.487  -4.012 124.554  0.00  0.00    +0.014 C 
ATOM     27  C   LIG A   1      -9.776  -3.247 125.102  0.00  0.00    +0.014 C 
ENDROOT
BRANCH  22  28
ATOM     28  C   LIG A   1      -4.247   5.555 128.990  0.00  0.00    +0.064 C 
ATOM     29  C   LIG A   1      -4.022   5.499 127.465  0.00  0.00    +0.041 C 
ATOM     30  C   LIG A   1      -2.913   5.259 129.667  0.00  0.00    +0.041 C 
BRANCH  28  31
ATOM     31  O   LIG A   1      -4.579   6.908 129.332  0.00  0.00    -0.389 OA
ATOM     32  H   LIG A   1      -4.643   6.970 130.301  0.00  0.00    +0.210 HD
ENDBRANCH  28  31
ENDBRANCH  22  28
BRANCH   1  33
ATOM     33  O   LIG A   1      -9.549  -1.077 123.359  0.00  0.00    -0.391 OA
ATOM     34  H   LIG A   1      -9.338  -0.339 122.766  0.00  0.00    +0.210 HD
ENDBRANCH   1  33
TORSDOF 3
ENDMDL
MODEL 8
REMARK VINA RESULT:      -8.1      1.841      7.676
REMARK  Name = NuBBE_1072
REMARK  11 active torsions:
REMARK  status: ('A' for Active; 'I' for Inactive)
REMARK    1  A    between atoms: O_1  and  C_2
REMARK    2  A    between atoms: C_6  and  C_7
REMARK    3  A    between atoms: C_11  and  C_12
REMARK    4  A    between atoms: C_17  and  C_18
REMARK    5  A    between atoms: C_21  and  C_22
REMARK    6  A    between atoms: C_24  and  C_26
REMARK    7  A    between atoms: C_26  and  C_27
REMARK    8  A    between atoms: C_26  and  O_28
REMARK    9  A    between atoms: C_26  and  C_29
REMARK   10  A    between atoms: C_32  and  C_33
REMARK   11  A    between atoms: C_32  and  C_34
REMARK                            x       y       z     vdW  Elec       q    Type
REMARK                         _______ _______ _______ _____ _____    ______ ____
ROOT
ATOM      1  C   LIG A   1      -5.324   3.889 132.448  0.00  0.00    +0.120 C 
ATOM      2  C   LIG A   1      -6.732   4.210 131.954  0.00  0.00    +0.032 C 
ATOM      3  C   LIG A   1      -7.117   3.439 130.686  0.00  0.00    +0.010 C 
ATOM      4  C   LIG A   1      -6.944   1.891 130.790  0.00  0.00    -0.025 C 
ATOM      5  C   LIG A   1      -8.061   1.368 131.726  0.00  0.00    +0.012 C 
ATOM      6  C   LIG A   1      -5.484   1.601 131.309  0.00  0.00    +0.003 C 
ATOM      7  C   LIG A   1      -5.185   0.088 131.310  0.00  0.00    +0.005 C 
ATOM      8  C   LIG A   1      -5.284  -0.497 129.896  0.00  0.00    +0.008 C 
ATOM      9  C   LIG A   1      -6.652  -0.269 129.187  0.00  0.00    -0.023 C 
ATOM     10  C   LIG A   1      -7.680  -1.203 129.892  0.00  0.00    +0.012 C 
ATOM     11  C   LIG A   1      -7.044   1.256 129.332  0.00  0.00    +0.002 C 
ATOM     12  C   LIG A   1      -8.352   1.552 128.583  0.00  0.00    +0.005 C 
ATOM     13  C   LIG A   1      -8.271   1.174 127.102  0.00  0.00    +0.005 C 
ATOM     14  C   LIG A   1      -7.895  -0.293 126.858  0.00  0.00    -0.000 C 
ATOM     15  C   LIG A   1      -6.563  -0.657 127.599  0.00  0.00    -0.023 C 
ATOM     16  C   LIG A   1      -5.368   0.083 126.931  0.00  0.00    +0.012 C 
ATOM     17  C   LIG A   1      -6.387  -2.186 127.416  0.00  0.00    +0.008 C 
ATOM     18  C   LIG A   1      -6.136  -2.600 125.981  0.00  0.00    +0.007 C 
ATOM     19  C   LIG A   1      -7.122  -2.020 124.945  0.00  0.00    -0.029 C 
ATOM     20  C   LIG A   1      -8.023  -3.179 124.449  0.00  0.00    +0.011 C 
ATOM     21  C   LIG A   1      -8.050  -0.815 125.366  0.00  0.00    +0.004 C 
ATOM     22  C   LIG A   1      -8.003   0.215 124.171  0.00  0.00    +0.024 C 
ATOM     23  C   LIG A   1      -7.181  -0.491 123.066  0.00  0.00    +0.007 C 
ATOM     24  C   LIG A   1      -6.293  -1.488 123.760  0.00  0.00    +0.007 C 
ATOM     25  C   LIG A   1      -5.046   2.365 132.613  0.00  0.00    -0.006 C 
ATOM     26  C   LIG A   1      -5.741   1.850 133.889  0.00  0.00    +0.014 C 
ATOM     27  C   LIG A   1      -3.521   2.177 132.845  0.00  0.00    +0.014 C 
ENDROOT
BRANCH  22  28
ATOM     28  C   LIG A   1      -9.376   0.663 123.540  0.00  0.00    +0.064 C 
ATOM     29  C   LIG A   1      -9.854  -0.362 122.492  0.00  0.00    +0.041 C 
ATOM     30  C   LIG A   1      -9.376   2.037 122.879  0.00  0.00    +0.041 C 
BRANCH  28  31
ATOM     31  O   LIG A   1     -10.365   0.718 124.579  0.00  0.00    -0.389 OA
ATOM     32  H   LIG A   1      -9.979   1.179 125.343  0.00  0.00    +0.210 HD
ENDBRANCH  28  31
ENDBRANCH  22  28
BRANCH   1  33
ATOM     33  O   LIG A   1      -4.386   4.497 131.553  0.00  0.00    -0.391 OA
ATOM     34  H   LIG A   1      -3.488   4.296 131.857  0.00  0.00    +0.210 HD
ENDBRANCH   1  33
TORSDOF 3
ENDMDL
MODEL 9
REMARK VINA RESULT:      -8.0      4.639      8.188
REMARK  Name = NuBBE_1072
REMARK  11 active torsions:
REMARK  status: ('A' for Active; 'I' for Inactive)
REMARK    1  A    between atoms: O_1  and  C_2
REMARK    2  A    between atoms: C_6  and  C_7
REMARK    3  A    between atoms: C_11  and  C_12
REMARK    4  A    between atoms: C_17  and  C_18
REMARK    5  A    between atoms: C_21  and  C_22
REMARK    6  A    between atoms: C_24  and  C_26
REMARK    7  A    between atoms: C_26  and  C_27
REMARK    8  A    between atoms: C_26  and  O_28
REMARK    9  A    between atoms: C_26  and  C_29
REMARK   10  A    between atoms: C_32  and  C_33
REMARK   11  A    between atoms: C_32  and  C_34
REMARK                            x       y       z     vdW  Elec       q    Type
REMARK                         _______ _______ _______ _____ _____    ______ ____
ROOT
ATOM      1  C   LIG A   1      -2.319  -4.262 134.972  0.00  0.00    +0.120 C 
ATOM      2  C   LIG A   1      -2.606  -2.772 135.129  0.00  0.00    +0.032 C 
ATOM      3  C   LIG A   1      -3.225  -2.141 133.877  0.00  0.00    +0.010 C 
ATOM      4  C   LIG A   1      -4.506  -2.862 133.352  0.00  0.00    -0.025 C 
ATOM      5  C   LIG A   1      -5.646  -2.554 134.353  0.00  0.00    +0.012 C 
ATOM      6  C   LIG A   1      -4.173  -4.397 133.210  0.00  0.00    +0.003 C 
ATOM      7  C   LIG A   1      -5.346  -5.163 132.567  0.00  0.00    +0.005 C 
ATOM      8  C   LIG A   1      -5.645  -4.635 131.158  0.00  0.00    +0.008 C 
ATOM      9  C   LIG A   1      -5.955  -3.111 131.081  0.00  0.00    -0.023 C 
ATOM     10  C   LIG A   1      -7.369  -2.912 131.703  0.00  0.00    +0.012 C 
ATOM     11  C   LIG A   1      -4.840  -2.332 131.887  0.00  0.00    +0.002 C 
ATOM     12  C   LIG A   1      -5.056  -0.815 131.779  0.00  0.00    +0.005 C 
ATOM     13  C   LIG A   1      -5.080  -0.333 130.327  0.00  0.00    +0.005 C 
ATOM     14  C   LIG A   1      -6.133  -1.035 129.460  0.00  0.00    -0.000 C 
ATOM     15  C   LIG A   1      -5.964  -2.591 129.529  0.00  0.00    -0.023 C 
ATOM     16  C   LIG A   1      -4.648  -3.011 128.813  0.00  0.00    +0.012 C 
ATOM     17  C   LIG A   1      -7.175  -3.177 128.759  0.00  0.00    +0.008 C 
ATOM     18  C   LIG A   1      -7.160  -2.870 127.277  0.00  0.00    +0.007 C 
ATOM     19  C   LIG A   1      -6.928  -1.387 126.914  0.00  0.00    -0.029 C 
ATOM     20  C   LIG A   1      -8.263  -0.820 126.367  0.00  0.00    +0.011 C 
ATOM     21  C   LIG A   1      -6.390  -0.404 128.025  0.00  0.00    +0.004 C 
ATOM     22  C   LIG A   1      -5.259   0.458 127.339  0.00  0.00    +0.024 C 
ATOM     23  C   LIG A   1      -5.291   0.047 125.848  0.00  0.00    +0.007 C 
ATOM     24  C   LIG A   1      -5.868  -1.342 125.796  0.00  0.00    +0.007 C 
ATOM     25  C   LIG A   1      -3.542  -5.090 134.474  0.00  0.00    -0.006 C 
ATOM     26  C   LIG A   1      -4.540  -5.281 135.632  0.00  0.00    +0.014 C 
ATOM     27  C   LIG A   1      -3.038  -6.511 134.098  0.00  0.00    +0.014 C 
ENDROOT
BRANCH  22  28
ATOM     28  C   LIG A   1      -5.395   2.027 127.412  0.00  0.00    +0.064 C 
ATOM     29  C   LIG A   1      -5.402   2.639 125.996  0.00  0.00    +0.041 C 
ATOM     30  C   LIG A   1      -4.316   2.740 128.221  0.00  0.00    +0.041 C 
BRANCH  28  31
ATOM     31  O   LIG A   1      -6.645   2.354 128.035  0.00  0.00    -0.389 OA
ATOM     32  H   LIG A   1      -6.551   3.218 128.471  0.00  0.00    +0.210 HD
ENDBRANCH  28  31
ENDBRANCH  22  28
BRANCH   1  33
ATOM     33  O   LIG A   1      -1.196  -4.412 134.097  0.00  0.00    -0.391 OA
ATOM     34  H   LIG A   1      -1.032  -5.358 133.958  0.00  0.00    +0.210 HD
ENDBRANCH   1  33
TORSDOF 3
ENDMDL
