MODEL 1
REMARK VINA RESULT:      -7.6      0.000      0.000
REMARK  Name = NuBBE_180
REMARK  5 active torsions:
REMARK  status: ('A' for Active; 'I' for Inactive)
REMARK    1  A    between atoms: O_1  and  C_2
REMARK    2  A    between atoms: C_8  and  C_9
REMARK    3  A    between atoms: C_12  and  O_13
REMARK    4  A    between atoms: O_13  and  C_14
REMARK    5  A    between atoms: C_15  and  O_16
REMARK                            x       y       z     vdW  Elec       q    Type
REMARK                         _______ _______ _______ _____ _____    ______ ____
ROOT
ATOM      1  C   LIG A   1     -11.636   7.451 126.734  0.00  0.00    +0.120 A 
ATOM      2  C   LIG A   1     -10.498   7.228 127.507  0.00  0.00    +0.092 A 
ATOM      3  C   LIG A   1     -10.637   7.031 128.881  0.00  0.00    +0.143 A 
ATOM      4  C   LIG A   1     -11.902   7.056 129.464  0.00  0.00    +0.064 A 
ATOM      5  C   LIG A   1     -12.012   6.846 130.913  0.00  0.00    +0.193 A 
ATOM      6  C   LIG A   1     -10.755   6.616 131.641  0.00  0.00    +0.098 A 
ATOM      7  C   LIG A   1      -9.591   6.622 130.974  0.00  0.00    +0.139 A 
ATOM      8  O   LIG A   1      -9.487   6.818 129.602  0.00  0.00    -0.455 OA
ATOM      9  O   LIG A   1     -13.085   6.861 131.501  0.00  0.00    -0.287 OA
ATOM     10  C   LIG A   1     -13.041   7.278 128.686  0.00  0.00    +0.019 A 
ATOM     11  C   LIG A   1     -12.903   7.477 127.312  0.00  0.00    +0.046 A 
ENDROOT
BRANCH   7  12
ATOM     12  C   LIG A   1      -8.296   6.399 131.657  0.00  0.00    +0.021 A 
ATOM     13  C   LIG A   1      -7.076   6.778 131.068  0.00  0.00    +0.015 A 
ATOM     14  C   LIG A   1      -5.851   6.561 131.715  0.00  0.00    +0.050 A 
ATOM     15  C   LIG A   1      -5.821   5.944 132.963  0.00  0.00    +0.161 A 
ATOM     16  C   LIG A   1      -7.033   5.559 133.544  0.00  0.00    +0.159 A 
ATOM     17  C   LIG A   1      -8.254   5.775 132.910  0.00  0.00    +0.060 A 
BRANCH  15  18
ATOM     18  O   LIG A   1      -4.700   5.659 133.698  0.00  0.00    -0.491 OA
ATOM     19  C   LIG A   1      -3.642   6.611 133.636  0.00  0.00    +0.277 C 
ENDBRANCH  15  18
BRANCH  16  20
ATOM     20  O   LIG A   1      -7.042   4.951 134.772  0.00  0.00    -0.503 OA
ATOM     21  H   LIG A   1      -6.116   4.679 134.926  0.00  0.00    +0.292 HD
ENDBRANCH  16  20
ENDBRANCH   7  12
BRANCH   1  22
ATOM     22  O   LIG A   1     -11.554   7.653 125.388  0.00  0.00    -0.507 OA
ATOM     23  H   LIG A   1     -10.977   8.415 125.217  0.00  0.00    +0.292 HD
ENDBRANCH   1  22
TORSDOF 4
ENDMDL
MODEL 2
REMARK VINA RESULT:      -7.0      7.515      8.753
REMARK  Name = NuBBE_180
REMARK  5 active torsions:
REMARK  status: ('A' for Active; 'I' for Inactive)
REMARK    1  A    between atoms: O_1  and  C_2
REMARK    2  A    between atoms: C_8  and  C_9
REMARK    3  A    between atoms: C_12  and  O_13
REMARK    4  A    between atoms: O_13  and  C_14
REMARK    5  A    between atoms: C_15  and  O_16
REMARK                            x       y       z     vdW  Elec       q    Type
REMARK                         _______ _______ _______ _____ _____    ______ ____
ROOT
ATOM      1  C   LIG A   1      -6.123   4.990 119.168  0.00  0.00    +0.120 A 
ATOM      2  C   LIG A   1      -5.528   4.783 120.410  0.00  0.00    +0.092 A 
ATOM      3  C   LIG A   1      -6.245   4.116 121.405  0.00  0.00    +0.143 A 
ATOM      4  C   LIG A   1      -7.538   3.665 121.148  0.00  0.00    +0.064 A 
ATOM      5  C   LIG A   1      -8.264   2.967 122.216  0.00  0.00    +0.193 A 
ATOM      6  C   LIG A   1      -7.551   2.795 123.491  0.00  0.00    +0.098 A 
ATOM      7  C   LIG A   1      -6.308   3.280 123.628  0.00  0.00    +0.139 A 
ATOM      8  O   LIG A   1      -5.619   3.937 122.615  0.00  0.00    -0.455 OA
ATOM      9  O   LIG A   1      -9.404   2.548 122.072  0.00  0.00    -0.287 OA
ATOM     10  C   LIG A   1      -8.130   3.873 119.900  0.00  0.00    +0.019 A 
ATOM     11  C   LIG A   1      -7.415   4.541 118.905  0.00  0.00    +0.046 A 
ENDROOT
BRANCH   7  12
ATOM     12  C   LIG A   1      -5.545   3.137 124.889  0.00  0.00    +0.021 A 
ATOM     13  C   LIG A   1      -4.720   4.168 125.374  0.00  0.00    +0.015 A 
ATOM     14  C   LIG A   1      -3.995   4.028 126.566  0.00  0.00    +0.050 A 
ATOM     15  C   LIG A   1      -4.070   2.843 127.292  0.00  0.00    +0.161 A 
ATOM     16  C   LIG A   1      -4.883   1.814 126.805  0.00  0.00    +0.159 A 
ATOM     17  C   LIG A   1      -5.609   1.947 125.625  0.00  0.00    +0.060 A 
BRANCH  15  18
ATOM     18  O   LIG A   1      -3.408   2.566 128.459  0.00  0.00    -0.491 OA
ATOM     19  C   LIG A   1      -3.640   3.456 129.546  0.00  0.00    +0.277 C 
ENDBRANCH  15  18
BRANCH  16  20
ATOM     20  O   LIG A   1      -4.983   0.634 127.495  0.00  0.00    -0.503 OA
ATOM     21  H   LIG A   1      -5.860   0.276 127.256  0.00  0.00    +0.292 HD
ENDBRANCH  16  20
ENDBRANCH   7  12
BRANCH   1  22
ATOM     22  O   LIG A   1      -5.466   5.639 118.164  0.00  0.00    -0.507 OA
ATOM     23  H   LIG A   1      -5.975   6.427 117.911  0.00  0.00    +0.292 HD
ENDBRANCH   1  22
TORSDOF 4
ENDMDL
MODEL 3
REMARK VINA RESULT:      -7.0      1.497      2.090
REMARK  Name = NuBBE_180
REMARK  5 active torsions:
REMARK  status: ('A' for Active; 'I' for Inactive)
REMARK    1  A    between atoms: O_1  and  C_2
REMARK    2  A    between atoms: C_8  and  C_9
REMARK    3  A    between atoms: C_12  and  O_13
REMARK    4  A    between atoms: O_13  and  C_14
REMARK    5  A    between atoms: C_15  and  O_16
REMARK                            x       y       z     vdW  Elec       q    Type
REMARK                         _______ _______ _______ _____ _____    ______ ____
ROOT
ATOM      1  C   LIG A   1     -11.097   7.694 127.287  0.00  0.00    +0.120 A 
ATOM      2  C   LIG A   1     -10.264   7.007 128.168  0.00  0.00    +0.092 A 
ATOM      3  C   LIG A   1     -10.680   6.815 129.486  0.00  0.00    +0.143 A 
ATOM      4  C   LIG A   1     -11.914   7.305 129.905  0.00  0.00    +0.064 A 
ATOM      5  C   LIG A   1     -12.321   7.086 131.299  0.00  0.00    +0.193 A 
ATOM      6  C   LIG A   1     -11.375   6.348 132.151  0.00  0.00    +0.098 A 
ATOM      7  C   LIG A   1     -10.207   5.930 131.639  0.00  0.00    +0.139 A 
ATOM      8  O   LIG A   1      -9.825   6.135 130.319  0.00  0.00    -0.455 OA
ATOM      9  O   LIG A   1     -13.384   7.491 131.747  0.00  0.00    -0.287 OA
ATOM     10  C   LIG A   1     -12.747   7.992 129.018  0.00  0.00    +0.019 A 
ATOM     11  C   LIG A   1     -12.332   8.186 127.700  0.00  0.00    +0.046 A 
ENDROOT
BRANCH   7  12
ATOM     12  C   LIG A   1      -9.218   5.186 132.451  0.00  0.00    +0.021 A 
ATOM     13  C   LIG A   1      -9.340   3.803 132.678  0.00  0.00    +0.015 A 
ATOM     14  C   LIG A   1      -8.403   3.102 133.452  0.00  0.00    +0.050 A 
ATOM     15  C   LIG A   1      -7.331   3.775 134.028  0.00  0.00    +0.161 A 
ATOM     16  C   LIG A   1      -7.214   5.152 133.811  0.00  0.00    +0.159 A 
ATOM     17  C   LIG A   1      -8.137   5.854 133.040  0.00  0.00    +0.060 A 
BRANCH  15  18
ATOM     18  O   LIG A   1      -6.355   3.221 134.814  0.00  0.00    -0.491 OA
ATOM     19  C   LIG A   1      -5.461   2.318 134.172  0.00  0.00    +0.277 C 
ENDBRANCH  15  18
BRANCH  16  20
ATOM     20  O   LIG A   1      -6.170   5.848 134.360  0.00  0.00    -0.503 OA
ATOM     21  H   LIG A   1      -5.807   5.256 135.048  0.00  0.00    +0.292 HD
ENDBRANCH  16  20
ENDBRANCH   7  12
BRANCH   1  22
ATOM     22  O   LIG A   1     -10.735   7.912 125.990  0.00  0.00    -0.507 OA
ATOM     23  H   LIG A   1     -10.339   7.100 125.631  0.00  0.00    +0.292 HD
ENDBRANCH   1  22
TORSDOF 4
ENDMDL
MODEL 4
REMARK VINA RESULT:      -7.0      8.707     10.433
REMARK  Name = NuBBE_180
REMARK  5 active torsions:
REMARK  status: ('A' for Active; 'I' for Inactive)
REMARK    1  A    between atoms: O_1  and  C_2
REMARK    2  A    between atoms: C_8  and  C_9
REMARK    3  A    between atoms: C_12  and  O_13
REMARK    4  A    between atoms: O_13  and  C_14
REMARK    5  A    between atoms: C_15  and  O_16
REMARK                            x       y       z     vdW  Elec       q    Type
REMARK                         _______ _______ _______ _____ _____    ______ ____
ROOT
ATOM      1  C   LIG A   1      -7.819  -2.916 129.094  0.00  0.00    +0.120 A 
ATOM      2  C   LIG A   1      -7.385  -1.777 128.419  0.00  0.00    +0.092 A 
ATOM      3  C   LIG A   1      -7.786  -1.575 127.098  0.00  0.00    +0.143 A 
ATOM      4  C   LIG A   1      -8.611  -2.506 126.470  0.00  0.00    +0.064 A 
ATOM      5  C   LIG A   1      -9.012  -2.263 125.079  0.00  0.00    +0.193 A 
ATOM      6  C   LIG A   1      -8.505  -1.032 124.454  0.00  0.00    +0.098 A 
ATOM      7  C   LIG A   1      -7.708  -0.211 125.154  0.00  0.00    +0.139 A 
ATOM      8  O   LIG A   1      -7.331  -0.440 126.472  0.00  0.00    -0.455 OA
ATOM      9  O   LIG A   1      -9.728  -3.035 124.456  0.00  0.00    -0.287 OA
ATOM     10  C   LIG A   1      -9.045  -3.646 127.151  0.00  0.00    +0.019 A 
ATOM     11  C   LIG A   1      -8.644  -3.849 128.472  0.00  0.00    +0.046 A 
ENDROOT
BRANCH   7  12
ATOM     12  C   LIG A   1      -7.168   1.039 124.574  0.00  0.00    +0.021 A 
ATOM     13  C   LIG A   1      -7.368   1.373 123.222  0.00  0.00    +0.015 A 
ATOM     14  C   LIG A   1      -6.851   2.556 122.675  0.00  0.00    +0.050 A 
ATOM     15  C   LIG A   1      -6.107   3.425 123.468  0.00  0.00    +0.161 A 
ATOM     16  C   LIG A   1      -5.900   3.089 124.810  0.00  0.00    +0.159 A 
ATOM     17  C   LIG A   1      -6.414   1.918 125.362  0.00  0.00    +0.060 A 
BRANCH  15  18
ATOM     18  O   LIG A   1      -5.535   4.601 123.063  0.00  0.00    -0.491 OA
ATOM     19  C   LIG A   1      -4.888   4.587 121.794  0.00  0.00    +0.277 C 
ENDBRANCH  15  18
BRANCH  16  20
ATOM     20  O   LIG A   1      -5.176   3.922 125.622  0.00  0.00    -0.503 OA
ATOM     21  H   LIG A   1      -5.204   3.501 126.503  0.00  0.00    +0.292 HD
ENDBRANCH  16  20
ENDBRANCH   7  12
BRANCH   1  22
ATOM     22  O   LIG A   1      -7.453  -3.161 130.384  0.00  0.00    -0.507 OA
ATOM     23  H   LIG A   1      -7.252  -2.317 130.823  0.00  0.00    +0.292 HD
ENDBRANCH   1  22
TORSDOF 4
ENDMDL
MODEL 5
REMARK VINA RESULT:      -6.9      2.212      3.281
REMARK  Name = NuBBE_180
REMARK  5 active torsions:
REMARK  status: ('A' for Active; 'I' for Inactive)
REMARK    1  A    between atoms: O_1  and  C_2
REMARK    2  A    between atoms: C_8  and  C_9
REMARK    3  A    between atoms: C_12  and  O_13
REMARK    4  A    between atoms: O_13  and  C_14
REMARK    5  A    between atoms: C_15  and  O_16
REMARK                            x       y       z     vdW  Elec       q    Type
REMARK                         _______ _______ _______ _____ _____    ______ ____
ROOT
ATOM      1  C   LIG A   1     -11.467   7.979 129.064  0.00  0.00    +0.120 A 
ATOM      2  C   LIG A   1     -10.078   7.969 129.172  0.00  0.00    +0.092 A 
ATOM      3  C   LIG A   1      -9.483   7.290 130.235  0.00  0.00    +0.143 A 
ATOM      4  C   LIG A   1     -10.277   6.631 131.172  0.00  0.00    +0.064 A 
ATOM      5  C   LIG A   1      -9.619   5.928 132.280  0.00  0.00    +0.193 A 
ATOM      6  C   LIG A   1      -8.148   5.973 132.306  0.00  0.00    +0.098 A 
ATOM      7  C   LIG A   1      -7.487   6.647 131.353  0.00  0.00    +0.139 A 
ATOM      8  O   LIG A   1      -8.111   7.311 130.303  0.00  0.00    -0.455 OA
ATOM      9  O   LIG A   1     -10.244   5.332 133.146  0.00  0.00    -0.287 OA
ATOM     10  C   LIG A   1     -11.669   6.642 131.059  0.00  0.00    +0.019 A 
ATOM     11  C   LIG A   1     -12.265   7.322 129.997  0.00  0.00    +0.046 A 
ENDROOT
BRANCH   7  12
ATOM     12  C   LIG A   1      -6.009   6.728 131.332  0.00  0.00    +0.021 A 
ATOM     13  C   LIG A   1      -5.226   6.192 132.370  0.00  0.00    +0.015 A 
ATOM     14  C   LIG A   1      -3.826   6.273 132.349  0.00  0.00    +0.050 A 
ATOM     15  C   LIG A   1      -3.180   6.909 131.293  0.00  0.00    +0.161 A 
ATOM     16  C   LIG A   1      -3.959   7.450 130.265  0.00  0.00    +0.159 A 
ATOM     17  C   LIG A   1      -5.349   7.369 130.276  0.00  0.00    +0.060 A 
BRANCH  15  18
ATOM     18  O   LIG A   1      -1.827   7.073 131.152  0.00  0.00    -0.491 OA
ATOM     19  C   LIG A   1      -1.025   6.716 132.274  0.00  0.00    +0.277 C 
ENDBRANCH  15  18
BRANCH  16  20
ATOM     20  O   LIG A   1      -3.358   8.080 129.208  0.00  0.00    -0.503 OA
ATOM     21  H   LIG A   1      -3.767   8.967 129.176  0.00  0.00    +0.292 HD
ENDBRANCH  16  20
ENDBRANCH   7  12
BRANCH   1  22
ATOM     22  O   LIG A   1     -12.096   8.631 128.045  0.00  0.00    -0.507 OA
ATOM     23  H   LIG A   1     -13.047   8.681 128.240  0.00  0.00    +0.292 HD
ENDBRANCH   1  22
TORSDOF 4
ENDMDL
MODEL 6
REMARK VINA RESULT:      -6.9      2.389      7.208
REMARK  Name = NuBBE_180
REMARK  5 active torsions:
REMARK  status: ('A' for Active; 'I' for Inactive)
REMARK    1  A    between atoms: O_1  and  C_2
REMARK    2  A    between atoms: C_8  and  C_9
REMARK    3  A    between atoms: C_12  and  O_13
REMARK    4  A    between atoms: O_13  and  C_14
REMARK    5  A    between atoms: C_15  and  O_16
REMARK                            x       y       z     vdW  Elec       q    Type
REMARK                         _______ _______ _______ _____ _____    ______ ____
ROOT
ATOM      1  C   LIG A   1      -2.591   6.639 129.210  0.00  0.00    +0.120 A 
ATOM      2  C   LIG A   1      -3.982   6.706 129.224  0.00  0.00    +0.092 A 
ATOM      3  C   LIG A   1      -4.660   6.514 130.428  0.00  0.00    +0.143 A 
ATOM      4  C   LIG A   1      -3.946   6.261 131.597  0.00  0.00    +0.064 A 
ATOM      5  C   LIG A   1      -4.691   6.062 132.847  0.00  0.00    +0.193 A 
ATOM      6  C   LIG A   1      -6.156   6.155 132.759  0.00  0.00    +0.098 A 
ATOM      7  C   LIG A   1      -6.738   6.395 131.574  0.00  0.00    +0.139 A 
ATOM      8  O   LIG A   1      -6.032   6.586 130.393  0.00  0.00    -0.455 OA
ATOM      9  O   LIG A   1      -4.138   5.829 133.912  0.00  0.00    -0.287 OA
ATOM     10  C   LIG A   1      -2.551   6.196 131.579  0.00  0.00    +0.019 A 
ATOM     11  C   LIG A   1      -1.871   6.387 130.375  0.00  0.00    +0.046 A 
ENDROOT
BRANCH   7  12
ATOM     12  C   LIG A   1      -8.208   6.496 131.429  0.00  0.00    +0.021 A 
ATOM     13  C   LIG A   1      -9.083   5.975 132.399  0.00  0.00    +0.015 A 
ATOM     14  C   LIG A   1     -10.475   6.068 132.256  0.00  0.00    +0.050 A 
ATOM     15  C   LIG A   1     -11.021   6.673 131.128  0.00  0.00    +0.161 A 
ATOM     16  C   LIG A   1     -10.151   7.184 130.159  0.00  0.00    +0.159 A 
ATOM     17  C   LIG A   1      -8.768   7.099 130.296  0.00  0.00    +0.060 A 
BRANCH  15  18
ATOM     18  O   LIG A   1     -12.355   6.819 130.854  0.00  0.00    -0.491 OA
ATOM     19  C   LIG A   1     -13.055   7.801 131.613  0.00  0.00    +0.277 C 
ENDBRANCH  15  18
BRANCH  16  20
ATOM     20  O   LIG A   1     -10.653   7.789 129.037  0.00  0.00    -0.503 OA
ATOM     21  H   LIG A   1     -11.543   8.098 129.294  0.00  0.00    +0.292 HD
ENDBRANCH  16  20
ENDBRANCH   7  12
BRANCH   1  22
ATOM     22  O   LIG A   1      -1.882   6.816 128.058  0.00  0.00    -0.507 OA
ATOM     23  H   LIG A   1      -1.933   7.749 127.795  0.00  0.00    +0.292 HD
ENDBRANCH   1  22
TORSDOF 4
ENDMDL
MODEL 7
REMARK VINA RESULT:      -6.9      6.917     10.128
REMARK  Name = NuBBE_180
REMARK  5 active torsions:
REMARK  status: ('A' for Active; 'I' for Inactive)
REMARK    1  A    between atoms: O_1  and  C_2
REMARK    2  A    between atoms: C_8  and  C_9
REMARK    3  A    between atoms: C_12  and  O_13
REMARK    4  A    between atoms: O_13  and  C_14
REMARK    5  A    between atoms: C_15  and  O_16
REMARK                            x       y       z     vdW  Elec       q    Type
REMARK                         _______ _______ _______ _____ _____    ______ ____
ROOT
ATOM      1  C   LIG A   1      -7.929   3.804 128.546  0.00  0.00    +0.120 A 
ATOM      2  C   LIG A   1      -7.741   4.153 127.211  0.00  0.00    +0.092 A 
ATOM      3  C   LIG A   1      -7.894   3.177 126.225  0.00  0.00    +0.143 A 
ATOM      4  C   LIG A   1      -8.232   1.874 126.582  0.00  0.00    +0.064 A 
ATOM      5  C   LIG A   1      -8.384   0.871 125.520  0.00  0.00    +0.193 A 
ATOM      6  C   LIG A   1      -8.168   1.337 124.141  0.00  0.00    +0.098 A 
ATOM      7  C   LIG A   1      -7.837   2.618 123.917  0.00  0.00    +0.139 A 
ATOM      8  O   LIG A   1      -7.697   3.567 124.922  0.00  0.00    -0.455 OA
ATOM      9  O   LIG A   1      -8.671  -0.295 125.751  0.00  0.00    -0.287 OA
ATOM     10  C   LIG A   1      -8.420   1.528 127.922  0.00  0.00    +0.019 A 
ATOM     11  C   LIG A   1      -8.266   2.503 128.909  0.00  0.00    +0.046 A 
ENDROOT
BRANCH   7  12
ATOM     12  C   LIG A   1      -7.607   3.140 122.551  0.00  0.00    +0.021 A 
ATOM     13  C   LIG A   1      -6.319   3.479 122.097  0.00  0.00    +0.015 A 
ATOM     14  C   LIG A   1      -6.105   3.977 120.804  0.00  0.00    +0.050 A 
ATOM     15  C   LIG A   1      -7.180   4.161 119.941  0.00  0.00    +0.161 A 
ATOM     16  C   LIG A   1      -8.462   3.832 120.394  0.00  0.00    +0.159 A 
ATOM     17  C   LIG A   1      -8.682   3.332 121.675  0.00  0.00    +0.060 A 
BRANCH  15  18
ATOM     18  O   LIG A   1      -7.118   4.650 118.662  0.00  0.00    -0.491 OA
ATOM     19  C   LIG A   1      -6.050   5.549 118.379  0.00  0.00    +0.277 C 
ENDBRANCH  15  18
BRANCH  16  20
ATOM     20  O   LIG A   1      -9.544   3.996 119.570  0.00  0.00    -0.503 OA
ATOM     21  H   LIG A   1     -10.242   3.430 119.954  0.00  0.00    +0.292 HD
ENDBRANCH  16  20
ENDBRANCH   7  12
BRANCH   1  22
ATOM     22  O   LIG A   1      -7.787   4.720 129.547  0.00  0.00    -0.507 OA
ATOM     23  H   LIG A   1      -7.241   4.336 130.253  0.00  0.00    +0.292 HD
ENDBRANCH   1  22
TORSDOF 4
ENDMDL
MODEL 8
REMARK VINA RESULT:      -6.8      6.791      7.943
REMARK  Name = NuBBE_180
REMARK  5 active torsions:
REMARK  status: ('A' for Active; 'I' for Inactive)
REMARK    1  A    between atoms: O_1  and  C_2
REMARK    2  A    between atoms: C_8  and  C_9
REMARK    3  A    between atoms: C_12  and  O_13
REMARK    4  A    between atoms: O_13  and  C_14
REMARK    5  A    between atoms: C_15  and  O_16
REMARK                            x       y       z     vdW  Elec       q    Type
REMARK                         _______ _______ _______ _____ _____    ______ ____
ROOT
ATOM      1  C   LIG A   1      -5.490   4.836 120.214  0.00  0.00    +0.120 A 
ATOM      2  C   LIG A   1      -4.908   4.951 121.475  0.00  0.00    +0.092 A 
ATOM      3  C   LIG A   1      -5.486   4.283 122.554  0.00  0.00    +0.143 A 
ATOM      4  C   LIG A   1      -6.631   3.511 122.363  0.00  0.00    +0.064 A 
ATOM      5  C   LIG A   1      -7.215   2.822 123.521  0.00  0.00    +0.193 A 
ATOM      6  C   LIG A   1      -6.527   3.003 124.809  0.00  0.00    +0.098 A 
ATOM      7  C   LIG A   1      -5.435   3.779 124.875  0.00  0.00    +0.139 A 
ATOM      8  O   LIG A   1      -4.880   4.428 123.779  0.00  0.00    -0.455 OA
ATOM      9  O   LIG A   1      -8.221   2.132 123.438  0.00  0.00    -0.287 OA
ATOM     10  C   LIG A   1      -7.210   3.397 121.097  0.00  0.00    +0.019 A 
ATOM     11  C   LIG A   1      -6.633   4.066 120.017  0.00  0.00    +0.046 A 
ENDROOT
BRANCH   7  12
ATOM     12  C   LIG A   1      -4.705   3.997 126.145  0.00  0.00    +0.021 A 
ATOM     13  C   LIG A   1      -3.315   3.802 126.241  0.00  0.00    +0.015 A 
ATOM     14  C   LIG A   1      -2.628   4.005 127.446  0.00  0.00    +0.050 A 
ATOM     15  C   LIG A   1      -3.322   4.395 128.588  0.00  0.00    +0.161 A 
ATOM     16  C   LIG A   1      -4.705   4.581 128.495  0.00  0.00    +0.159 A 
ATOM     17  C   LIG A   1      -5.394   4.386 127.301  0.00  0.00    +0.060 A 
BRANCH  15  18
ATOM     18  O   LIG A   1      -2.783   4.615 129.828  0.00  0.00    -0.491 OA
ATOM     19  C   LIG A   1      -2.249   5.914 130.066  0.00  0.00    +0.277 C 
ENDBRANCH  15  18
BRANCH  16  20
ATOM     20  O   LIG A   1      -5.421   4.968 129.597  0.00  0.00    -0.503 OA
ATOM     21  H   LIG A   1      -6.292   5.243 129.249  0.00  0.00    +0.292 HD
ENDBRANCH  16  20
ENDBRANCH   7  12
BRANCH   1  22
ATOM     22  O   LIG A   1      -4.965   5.473 119.128  0.00  0.00    -0.507 OA
ATOM     23  H   LIG A   1      -5.247   5.009 118.322  0.00  0.00    +0.292 HD
ENDBRANCH   1  22
TORSDOF 4
ENDMDL
MODEL 9
REMARK VINA RESULT:      -6.7      2.307      7.229
REMARK  Name = NuBBE_180
REMARK  5 active torsions:
REMARK  status: ('A' for Active; 'I' for Inactive)
REMARK    1  A    between atoms: O_1  and  C_2
REMARK    2  A    between atoms: C_8  and  C_9
REMARK    3  A    between atoms: C_12  and  O_13
REMARK    4  A    between atoms: O_13  and  C_14
REMARK    5  A    between atoms: C_15  and  O_16
REMARK                            x       y       z     vdW  Elec       q    Type
REMARK                         _______ _______ _______ _____ _____    ______ ____
ROOT
ATOM      1  C   LIG A   1      -7.223   1.609 133.091  0.00  0.00    +0.120 A 
ATOM      2  C   LIG A   1      -8.206   2.414 132.520  0.00  0.00    +0.092 A 
ATOM      3  C   LIG A   1      -7.933   3.763 132.292  0.00  0.00    +0.143 A 
ATOM      4  C   LIG A   1      -6.688   4.289 132.633  0.00  0.00    +0.064 A 
ATOM      5  C   LIG A   1      -6.433   5.713 132.381  0.00  0.00    +0.193 A 
ATOM      6  C   LIG A   1      -7.532   6.479 131.773  0.00  0.00    +0.098 A 
ATOM      7  C   LIG A   1      -8.694   5.868 131.494  0.00  0.00    +0.139 A 
ATOM      8  O   LIG A   1      -8.933   4.519 131.730  0.00  0.00    -0.455 OA
ATOM      9  O   LIG A   1      -5.370   6.251 132.658  0.00  0.00    -0.287 OA
ATOM     10  C   LIG A   1      -5.705   3.477 133.204  0.00  0.00    +0.019 A 
ATOM     11  C   LIG A   1      -5.978   2.128 133.434  0.00  0.00    +0.046 A 
ENDROOT
BRANCH   7  12
ATOM     12  C   LIG A   1      -9.833   6.591 130.885  0.00  0.00    +0.021 A 
ATOM     13  C   LIG A   1      -9.682   7.350 129.710  0.00  0.00    +0.015 A 
ATOM     14  C   LIG A   1     -10.762   8.037 129.137  0.00  0.00    +0.050 A 
ATOM     15  C   LIG A   1     -12.016   7.991 129.739  0.00  0.00    +0.161 A 
ATOM     16  C   LIG A   1     -12.164   7.244 130.912  0.00  0.00    +0.159 A 
ATOM     17  C   LIG A   1     -11.098   6.555 131.485  0.00  0.00    +0.060 A 
BRANCH  15  18
ATOM     18  O   LIG A   1     -13.149   8.622 129.299  0.00  0.00    -0.491 OA
ATOM     19  C   LIG A   1     -13.181  10.039 129.441  0.00  0.00    +0.277 C 
ENDBRANCH  15  18
BRANCH  16  20
ATOM     20  O   LIG A   1     -13.385   7.173 131.531  0.00  0.00    -0.503 OA
ATOM     21  H   LIG A   1     -13.959   6.694 130.902  0.00  0.00    +0.292 HD
ENDBRANCH  16  20
ENDBRANCH   7  12
BRANCH   1  22
ATOM     22  O   LIG A   1      -7.443   0.286 133.338  0.00  0.00    -0.507 OA
ATOM     23  H   LIG A   1      -7.968  -0.089 132.612  0.00  0.00    +0.292 HD
ENDBRANCH   1  22
TORSDOF 4
ENDMDL
