MODEL 1
REMARK VINA RESULT:      -7.7      0.000      0.000
REMARK  Name = NuBBE_2034
REMARK  5 active torsions:
REMARK  status: ('A' for Active; 'I' for Inactive)
REMARK    1  A    between atoms: C_1  and  C_2
REMARK    2  A    between atoms: C_7  and  C_9
REMARK    3  A    between atoms: C_14  and  O_15
REMARK    4  A    between atoms: C_19  and  C_23
REMARK    5  A    between atoms: C_21  and  O_22
REMARK                            x       y       z     vdW  Elec       q    Type
REMARK                         _______ _______ _______ _____ _____    ______ ____
ROOT
ATOM      1  C   LIG A   1      -8.797   2.675 133.336  0.00  0.00    +0.051 C 
ATOM      2  C   LIG A   1      -7.489   3.407 133.210  0.00  0.00    +0.033 A 
ATOM      3  C   LIG A   1      -7.411   4.634 132.528  0.00  0.00    +0.131 A 
ATOM      4  C   LIG A   1      -6.181   5.299 132.358  0.00  0.00    -0.002 A 
ATOM      5  C   LIG A   1      -6.127   6.604 131.604  0.00  0.00    +0.043 C 
ATOM      6  C   LIG A   1      -7.392   6.841 130.795  0.00  0.00    +0.054 C 
ATOM      7  C   LIG A   1      -8.593   6.511 131.672  0.00  0.00    +0.207 C 
ATOM      8  O   LIG A   1      -8.590   5.115 132.009  0.00  0.00    -0.483 OA
ATOM      9  C   LIG A   1      -5.011   4.744 132.920  0.00  0.00    -0.040 A 
ATOM     10  C   LIG A   1      -5.087   3.512 133.583  0.00  0.00    +0.049 A 
ATOM     11  C   LIG A   1      -6.310   2.854 133.715  0.00  0.00    +0.123 A 
ATOM     12  C   LIG A   1      -3.673   5.419 132.786  0.00  0.00    +0.044 C 
ENDROOT
BRANCH   7  13
ATOM     13  C   LIG A   1      -9.887   6.855 130.953  0.00  0.00    +0.038 A 
ATOM     14  C   LIG A   1      -9.874   7.573 129.742  0.00  0.00    +0.060 A 
ATOM     15  C   LIG A   1     -11.078   7.873 129.142  0.00  0.00    +0.167 A 
ATOM     16  C   LIG A   1     -12.277   7.497 129.698  0.00  0.00    +0.170 A 
ATOM     17  C   LIG A   1     -12.344   6.803 130.885  0.00  0.00    +0.095 A 
ATOM     18  C   LIG A   1     -11.134   6.490 131.511  0.00  0.00    +0.127 A 
ATOM     19  O   LIG A   1     -13.343   7.893 128.950  0.00  0.00    -0.453 OA
ATOM     20  C   LIG A   1     -12.675   8.555 127.855  0.00  0.00    +0.466 C 
ATOM     21  O   LIG A   1     -11.238   8.554 127.976  0.00  0.00    -0.453 OA
BRANCH  18  22
ATOM     22  O   LIG A   1     -11.145   5.817 132.704  0.00  0.00    -0.506 OA
ATOM     23  H   LIG A   1     -10.226   5.642 132.971  0.00  0.00    +0.292 HD
ENDBRANCH  18  22
ENDBRANCH   7  13
BRANCH  11  24
ATOM     24  O   LIG A   1      -6.364   1.642 134.349  0.00  0.00    -0.506 OA
ATOM     25  H   LIG A   1      -7.253   1.271 134.241  0.00  0.00    +0.292 HD
ENDBRANCH  11  24
TORSDOF 3
ENDMDL
MODEL 2
REMARK VINA RESULT:      -7.6      1.166      1.231
REMARK  Name = NuBBE_2034
REMARK  5 active torsions:
REMARK  status: ('A' for Active; 'I' for Inactive)
REMARK    1  A    between atoms: C_1  and  C_2
REMARK    2  A    between atoms: C_7  and  C_9
REMARK    3  A    between atoms: C_14  and  O_15
REMARK    4  A    between atoms: C_19  and  C_23
REMARK    5  A    between atoms: C_21  and  O_22
REMARK                            x       y       z     vdW  Elec       q    Type
REMARK                         _______ _______ _______ _____ _____    ______ ____
ROOT
ATOM      1  C   LIG A   1      -9.314   1.942 132.383  0.00  0.00    +0.051 C 
ATOM      2  C   LIG A   1      -8.177   2.854 132.757  0.00  0.00    +0.033 A 
ATOM      3  C   LIG A   1      -8.142   4.186 132.307  0.00  0.00    +0.131 A 
ATOM      4  C   LIG A   1      -7.054   5.030 132.607  0.00  0.00    -0.002 A 
ATOM      5  C   LIG A   1      -7.036   6.448 132.092  0.00  0.00    +0.043 C 
ATOM      6  C   LIG A   1      -8.054   6.658 130.983  0.00  0.00    +0.054 C 
ATOM      7  C   LIG A   1      -9.367   6.013 131.406  0.00  0.00    +0.207 C 
ATOM      8  O   LIG A   1      -9.202   4.592 131.531  0.00  0.00    -0.483 OA
ATOM      9  C   LIG A   1      -6.002   4.543 133.410  0.00  0.00    -0.040 A 
ATOM     10  C   LIG A   1      -6.029   3.210 133.842  0.00  0.00    +0.049 A 
ATOM     11  C   LIG A   1      -7.100   2.381 133.510  0.00  0.00    +0.123 A 
ATOM     12  C   LIG A   1      -4.824   5.404 133.778  0.00  0.00    +0.044 C 
ENDROOT
BRANCH   7  13
ATOM     13  C   LIG A   1     -10.457   6.307 130.388  0.00  0.00    +0.038 A 
ATOM     14  C   LIG A   1     -10.146   6.490 129.027  0.00  0.00    +0.060 A 
ATOM     15  C   LIG A   1     -11.171   6.772 128.149  0.00  0.00    +0.167 A 
ATOM     16  C   LIG A   1     -12.474   6.885 128.571  0.00  0.00    +0.170 A 
ATOM     17  C   LIG A   1     -12.828   6.727 129.893  0.00  0.00    +0.095 A 
ATOM     18  C   LIG A   1     -11.804   6.441 130.799  0.00  0.00    +0.127 A 
ATOM     19  O   LIG A   1     -13.327   7.169 127.550  0.00  0.00    -0.453 OA
ATOM     20  C   LIG A   1     -12.411   7.215 126.436  0.00  0.00    +0.466 C 
ATOM     21  O   LIG A   1     -11.040   6.972 126.811  0.00  0.00    -0.453 OA
BRANCH  18  22
ATOM     22  O   LIG A   1     -12.098   6.292 132.128  0.00  0.00    -0.506 OA
ATOM     23  H   LIG A   1     -12.763   6.957 132.376  0.00  0.00    +0.292 HD
ENDBRANCH  18  22
ENDBRANCH   7  13
BRANCH  11  24
ATOM     24  O   LIG A   1      -7.102   1.076 133.923  0.00  0.00    -0.506 OA
ATOM     25  H   LIG A   1      -6.213   0.844 134.233  0.00  0.00    +0.292 HD
ENDBRANCH  11  24
TORSDOF 3
ENDMDL
MODEL 3
REMARK VINA RESULT:      -7.4      1.608      1.649
REMARK  Name = NuBBE_2034
REMARK  5 active torsions:
REMARK  status: ('A' for Active; 'I' for Inactive)
REMARK    1  A    between atoms: C_1  and  C_2
REMARK    2  A    between atoms: C_7  and  C_9
REMARK    3  A    between atoms: C_14  and  O_15
REMARK    4  A    between atoms: C_19  and  C_23
REMARK    5  A    between atoms: C_21  and  O_22
REMARK                            x       y       z     vdW  Elec       q    Type
REMARK                         _______ _______ _______ _____ _____    ______ ____
ROOT
ATOM      1  C   LIG A   1      -7.318   2.005 130.844  0.00  0.00    +0.051 C 
ATOM      2  C   LIG A   1      -6.165   2.923 131.147  0.00  0.00    +0.033 A 
ATOM      3  C   LIG A   1      -6.356   4.312 131.256  0.00  0.00    +0.131 A 
ATOM      4  C   LIG A   1      -5.273   5.183 131.485  0.00  0.00    -0.002 A 
ATOM      5  C   LIG A   1      -5.508   6.670 131.578  0.00  0.00    +0.043 C 
ATOM      6  C   LIG A   1      -6.871   7.060 131.031  0.00  0.00    +0.054 C 
ATOM      7  C   LIG A   1      -7.906   6.085 131.576  0.00  0.00    +0.207 C 
ATOM      8  O   LIG A   1      -7.644   4.761 131.086  0.00  0.00    -0.483 OA
ATOM      9  C   LIG A   1      -3.978   4.647 131.651  0.00  0.00    -0.040 A 
ATOM     10  C   LIG A   1      -3.786   3.264 131.523  0.00  0.00    +0.049 A 
ATOM     11  C   LIG A   1      -4.867   2.421 131.266  0.00  0.00    +0.123 A 
ATOM     12  C   LIG A   1      -2.786   5.527 131.916  0.00  0.00    +0.044 C 
ENDROOT
BRANCH   7  13
ATOM     13  C   LIG A   1      -9.306   6.509 131.163  0.00  0.00    +0.038 A 
ATOM     14  C   LIG A   1      -9.512   7.330 130.037  0.00  0.00    +0.060 A 
ATOM     15  C   LIG A   1     -10.801   7.699 129.718  0.00  0.00    +0.167 A 
ATOM     16  C   LIG A   1     -11.877   7.294 130.471  0.00  0.00    +0.170 A 
ATOM     17  C   LIG A   1     -11.727   6.501 131.587  0.00  0.00    +0.095 A 
ATOM     18  C   LIG A   1     -10.428   6.116 131.929  0.00  0.00    +0.127 A 
ATOM     19  O   LIG A   1     -13.057   7.769 129.988  0.00  0.00    -0.453 OA
ATOM     20  C   LIG A   1     -12.599   8.513 128.839  0.00  0.00    +0.466 C 
ATOM     21  O   LIG A   1     -11.168   8.480 128.668  0.00  0.00    -0.453 OA
BRANCH  18  22
ATOM     22  O   LIG A   1     -10.222   5.343 133.040  0.00  0.00    -0.506 OA
ATOM     23  H   LIG A   1     -10.850   5.616 133.731  0.00  0.00    +0.292 HD
ENDBRANCH  18  22
ENDBRANCH   7  13
BRANCH  11  24
ATOM     24  O   LIG A   1      -4.659   1.076 131.125  0.00  0.00    -0.506 OA
ATOM     25  H   LIG A   1      -3.731   0.925 130.888  0.00  0.00    +0.292 HD
ENDBRANCH  11  24
TORSDOF 3
ENDMDL
MODEL 4
REMARK VINA RESULT:      -7.4      9.224     10.113
REMARK  Name = NuBBE_2034
REMARK  5 active torsions:
REMARK  status: ('A' for Active; 'I' for Inactive)
REMARK    1  A    between atoms: C_1  and  C_2
REMARK    2  A    between atoms: C_7  and  C_9
REMARK    3  A    between atoms: C_14  and  O_15
REMARK    4  A    between atoms: C_19  and  C_23
REMARK    5  A    between atoms: C_21  and  O_22
REMARK                            x       y       z     vdW  Elec       q    Type
REMARK                         _______ _______ _______ _____ _____    ______ ____
ROOT
ATOM      1  C   LIG A   1      -9.349  -1.409 122.513  0.00  0.00    +0.051 C 
ATOM      2  C   LIG A   1      -8.964  -1.749 123.927  0.00  0.00    +0.033 A 
ATOM      3  C   LIG A   1      -8.112  -0.909 124.666  0.00  0.00    +0.131 A 
ATOM      4  C   LIG A   1      -7.703  -1.248 125.971  0.00  0.00    -0.002 A 
ATOM      5  C   LIG A   1      -6.773  -0.335 126.730  0.00  0.00    +0.043 C 
ATOM      6  C   LIG A   1      -6.098   0.672 125.813  0.00  0.00    +0.054 C 
ATOM      7  C   LIG A   1      -7.152   1.255 124.880  0.00  0.00    +0.207 C 
ATOM      8  O   LIG A   1      -7.678   0.228 124.026  0.00  0.00    -0.483 OA
ATOM      9  C   LIG A   1      -8.192  -2.432 126.563  0.00  0.00    -0.040 A 
ATOM     10  C   LIG A   1      -9.025  -3.278 125.818  0.00  0.00    +0.049 A 
ATOM     11  C   LIG A   1      -9.395  -2.940 124.517  0.00  0.00    +0.123 A 
ATOM     12  C   LIG A   1      -7.804  -2.836 127.960  0.00  0.00    +0.044 C 
ENDROOT
BRANCH   7  13
ATOM     13  C   LIG A   1      -6.554   2.363 124.029  0.00  0.00    +0.038 A 
ATOM     14  C   LIG A   1      -6.602   2.303 122.623  0.00  0.00    +0.060 A 
ATOM     15  C   LIG A   1      -6.028   3.327 121.900  0.00  0.00    +0.167 A 
ATOM     16  C   LIG A   1      -5.411   4.389 122.516  0.00  0.00    +0.170 A 
ATOM     17  C   LIG A   1      -5.328   4.489 123.887  0.00  0.00    +0.095 A 
ATOM     18  C   LIG A   1      -5.902   3.461 124.639  0.00  0.00    +0.127 A 
ATOM     19  O   LIG A   1      -4.909   5.286 121.624  0.00  0.00    -0.453 OA
ATOM     20  C   LIG A   1      -5.289   4.669 120.376  0.00  0.00    +0.466 C 
ATOM     21  O   LIG A   1      -5.992   3.421 120.544  0.00  0.00    -0.453 OA
BRANCH  18  22
ATOM     22  O   LIG A   1      -5.831   3.501 126.005  0.00  0.00    -0.506 OA
ATOM     23  H   LIG A   1      -5.307   4.277 126.267  0.00  0.00    +0.292 HD
ENDBRANCH  18  22
ENDBRANCH   7  13
BRANCH  11  24
ATOM     24  O   LIG A   1     -10.194  -3.786 123.797  0.00  0.00    -0.506 OA
ATOM     25  H   LIG A   1      -9.916  -3.765 122.868  0.00  0.00    +0.292 HD
ENDBRANCH  11  24
TORSDOF 3
ENDMDL
MODEL 5
REMARK VINA RESULT:      -7.3      8.051      8.739
REMARK  Name = NuBBE_2034
REMARK  5 active torsions:
REMARK  status: ('A' for Active; 'I' for Inactive)
REMARK    1  A    between atoms: C_1  and  C_2
REMARK    2  A    between atoms: C_7  and  C_9
REMARK    3  A    between atoms: C_14  and  O_15
REMARK    4  A    between atoms: C_19  and  C_23
REMARK    5  A    between atoms: C_21  and  O_22
REMARK                            x       y       z     vdW  Elec       q    Type
REMARK                         _______ _______ _______ _____ _____    ______ ____
ROOT
ATOM      1  C   LIG A   1      -8.911  -2.747 125.346  0.00  0.00    +0.051 C 
ATOM      2  C   LIG A   1      -8.471  -2.166 126.663  0.00  0.00    +0.033 A 
ATOM      3  C   LIG A   1      -8.058  -0.825 126.759  0.00  0.00    +0.131 A 
ATOM      4  C   LIG A   1      -7.593  -0.289 127.975  0.00  0.00    -0.002 A 
ATOM      5  C   LIG A   1      -7.137   1.148 128.041  0.00  0.00    +0.043 C 
ATOM      6  C   LIG A   1      -6.895   1.726 126.656  0.00  0.00    +0.054 C 
ATOM      7  C   LIG A   1      -8.061   1.331 125.759  0.00  0.00    +0.207 C 
ATOM      8  O   LIG A   1      -8.097  -0.095 125.595  0.00  0.00    -0.483 OA
ATOM      9  C   LIG A   1      -7.582  -1.100 129.130  0.00  0.00    -0.040 A 
ATOM     10  C   LIG A   1      -7.977  -2.442 129.029  0.00  0.00    +0.049 A 
ATOM     11  C   LIG A   1      -8.405  -2.963 127.808  0.00  0.00    +0.123 A 
ATOM     12  C   LIG A   1      -7.114  -0.577 130.460  0.00  0.00    +0.044 C 
ENDROOT
BRANCH   7  13
ATOM     13  C   LIG A   1      -7.932   1.994 124.397  0.00  0.00    +0.038 A 
ATOM     14  C   LIG A   1      -6.692   2.489 123.947  0.00  0.00    +0.060 A 
ATOM     15  C   LIG A   1      -6.636   3.097 122.711  0.00  0.00    +0.167 A 
ATOM     16  C   LIG A   1      -7.752   3.235 121.921  0.00  0.00    +0.170 A 
ATOM     17  C   LIG A   1      -8.988   2.777 122.320  0.00  0.00    +0.095 A 
ATOM     18  C   LIG A   1      -9.068   2.159 123.571  0.00  0.00    +0.127 A 
ATOM     19  O   LIG A   1      -7.481   3.863 120.745  0.00  0.00    -0.453 OA
ATOM     20  C   LIG A   1      -6.064   4.099 120.884  0.00  0.00    +0.466 C 
ATOM     21  O   LIG A   1      -5.523   3.623 122.133  0.00  0.00    -0.453 OA
BRANCH  18  22
ATOM     22  O   LIG A   1     -10.277   1.702 124.024  0.00  0.00    -0.506 OA
ATOM     23  H   LIG A   1     -10.958   1.918 123.365  0.00  0.00    +0.292 HD
ENDBRANCH  18  22
ENDBRANCH   7  13
BRANCH  11  24
ATOM     24  O   LIG A   1      -8.768  -4.279 127.722  0.00  0.00    -0.506 OA
ATOM     25  H   LIG A   1      -8.729  -4.556 126.794  0.00  0.00    +0.292 HD
ENDBRANCH  11  24
TORSDOF 3
ENDMDL
MODEL 6
REMARK VINA RESULT:      -7.2      2.097      3.160
REMARK  Name = NuBBE_2034
REMARK  5 active torsions:
REMARK  status: ('A' for Active; 'I' for Inactive)
REMARK    1  A    between atoms: C_1  and  C_2
REMARK    2  A    between atoms: C_7  and  C_9
REMARK    3  A    between atoms: C_14  and  O_15
REMARK    4  A    between atoms: C_19  and  C_23
REMARK    5  A    between atoms: C_21  and  O_22
REMARK                            x       y       z     vdW  Elec       q    Type
REMARK                         _______ _______ _______ _____ _____    ______ ____
ROOT
ATOM      1  C   LIG A   1      -5.127   7.370 130.518  0.00  0.00    +0.051 C 
ATOM      2  C   LIG A   1      -5.515   6.609 131.757  0.00  0.00    +0.033 A 
ATOM      3  C   LIG A   1      -6.858   6.276 132.009  0.00  0.00    +0.131 A 
ATOM      4  C   LIG A   1      -7.236   5.613 133.193  0.00  0.00    -0.002 A 
ATOM      5  C   LIG A   1      -8.687   5.287 133.444  0.00  0.00    +0.043 C 
ATOM      6  C   LIG A   1      -9.608   6.071 132.523  0.00  0.00    +0.054 C 
ATOM      7  C   LIG A   1      -9.042   6.010 131.110  0.00  0.00    +0.207 C 
ATOM      8  O   LIG A   1      -7.769   6.672 131.059  0.00  0.00    -0.483 OA
ATOM      9  C   LIG A   1      -6.243   5.236 134.122  0.00  0.00    -0.040 A 
ATOM     10  C   LIG A   1      -4.907   5.585 133.878  0.00  0.00    +0.049 A 
ATOM     11  C   LIG A   1      -4.557   6.269 132.714  0.00  0.00    +0.123 A 
ATOM     12  C   LIG A   1      -6.585   4.509 135.394  0.00  0.00    +0.044 C 
ENDROOT
BRANCH   7  13
ATOM     13  C   LIG A   1      -9.995   6.669 130.127  0.00  0.00    +0.038 A 
ATOM     14  C   LIG A   1     -11.025   7.518 130.575  0.00  0.00    +0.060 A 
ATOM     15  C   LIG A   1     -11.872   8.076 129.640  0.00  0.00    +0.167 A 
ATOM     16  C   LIG A   1     -11.738   7.817 128.298  0.00  0.00    +0.170 A 
ATOM     17  C   LIG A   1     -10.754   6.986 127.810  0.00  0.00    +0.095 A 
ATOM     18  C   LIG A   1      -9.885   6.409 128.741  0.00  0.00    +0.127 A 
ATOM     19  O   LIG A   1     -12.674   8.462 127.549  0.00  0.00    -0.453 OA
ATOM     20  C   LIG A   1     -13.407   9.162 128.576  0.00  0.00    +0.466 C 
ATOM     21  O   LIG A   1     -12.909   8.914 129.907  0.00  0.00    -0.453 OA
BRANCH  18  22
ATOM     22  O   LIG A   1      -8.901   5.560 128.311  0.00  0.00    -0.506 OA
ATOM     23  H   LIG A   1      -9.196   4.644 128.453  0.00  0.00    +0.292 HD
ENDBRANCH  18  22
ENDBRANCH   7  13
BRANCH  11  24
ATOM     24  O   LIG A   1      -3.251   6.620 132.500  0.00  0.00    -0.506 OA
ATOM     25  H   LIG A   1      -3.150   6.904 131.579  0.00  0.00    +0.292 HD
ENDBRANCH  11  24
TORSDOF 3
ENDMDL
MODEL 7
REMARK VINA RESULT:      -7.1      7.580      9.336
REMARK  Name = NuBBE_2034
REMARK  5 active torsions:
REMARK  status: ('A' for Active; 'I' for Inactive)
REMARK    1  A    between atoms: C_1  and  C_2
REMARK    2  A    between atoms: C_7  and  C_9
REMARK    3  A    between atoms: C_14  and  O_15
REMARK    4  A    between atoms: C_19  and  C_23
REMARK    5  A    between atoms: C_21  and  O_22
REMARK                            x       y       z     vdW  Elec       q    Type
REMARK                         _______ _______ _______ _____ _____    ______ ____
ROOT
ATOM      1  C   LIG A   1      -5.407  -0.883 126.054  0.00  0.00    +0.051 C 
ATOM      2  C   LIG A   1      -6.442  -0.239 125.171  0.00  0.00    +0.033 A 
ATOM      3  C   LIG A   1      -6.515   1.160 125.046  0.00  0.00    +0.131 A 
ATOM      4  C   LIG A   1      -7.516   1.772 124.266  0.00  0.00    -0.002 A 
ATOM      5  C   LIG A   1      -7.580   3.276 124.168  0.00  0.00    +0.043 C 
ATOM      6  C   LIG A   1      -6.752   3.948 125.251  0.00  0.00    +0.054 C 
ATOM      7  C   LIG A   1      -5.405   3.241 125.336  0.00  0.00    +0.207 C 
ATOM      8  O   LIG A   1      -5.586   1.881 125.758  0.00  0.00    -0.483 OA
ATOM      9  C   LIG A   1      -8.435   0.965 123.563  0.00  0.00    -0.040 A 
ATOM     10  C   LIG A   1      -8.372  -0.428 123.703  0.00  0.00    +0.049 A 
ATOM     11  C   LIG A   1      -7.393  -1.015 124.504  0.00  0.00    +0.123 A 
ATOM     12  C   LIG A   1      -9.513   1.563 122.699  0.00  0.00    +0.044 C 
ENDROOT
BRANCH   7  13
ATOM     13  C   LIG A   1      -4.490   3.957 126.316  0.00  0.00    +0.038 A 
ATOM     14  C   LIG A   1      -4.819   5.233 126.815  0.00  0.00    +0.060 A 
ATOM     15  C   LIG A   1      -3.944   5.844 127.688  0.00  0.00    +0.167 A 
ATOM     16  C   LIG A   1      -2.769   5.245 128.071  0.00  0.00    +0.170 A 
ATOM     17  C   LIG A   1      -2.397   4.004 127.603  0.00  0.00    +0.095 A 
ATOM     18  C   LIG A   1      -3.269   3.367 126.716  0.00  0.00    +0.127 A 
ATOM     19  O   LIG A   1      -2.051   6.015 128.933  0.00  0.00    -0.453 OA
ATOM     20  C   LIG A   1      -2.915   7.165 129.053  0.00  0.00    +0.466 C 
ATOM     21  O   LIG A   1      -4.114   7.066 128.258  0.00  0.00    -0.453 OA
BRANCH  18  22
ATOM     22  O   LIG A   1      -2.938   2.140 126.206  0.00  0.00    -0.506 OA
ATOM     23  H   LIG A   1      -2.282   2.263 125.499  0.00  0.00    +0.292 HD
ENDBRANCH  18  22
ENDBRANCH   7  13
BRANCH  11  24
ATOM     24  O   LIG A   1      -7.358  -2.375 124.647  0.00  0.00    -0.506 OA
ATOM     25  H   LIG A   1      -6.565  -2.717 124.205  0.00  0.00    +0.292 HD
ENDBRANCH  11  24
TORSDOF 3
ENDMDL
MODEL 8
REMARK VINA RESULT:      -6.8      2.180      3.547
REMARK  Name = NuBBE_2034
REMARK  5 active torsions:
REMARK  status: ('A' for Active; 'I' for Inactive)
REMARK    1  A    between atoms: C_1  and  C_2
REMARK    2  A    between atoms: C_7  and  C_9
REMARK    3  A    between atoms: C_14  and  O_15
REMARK    4  A    between atoms: C_19  and  C_23
REMARK    5  A    between atoms: C_21  and  O_22
REMARK                            x       y       z     vdW  Elec       q    Type
REMARK                         _______ _______ _______ _____ _____    ______ ____
ROOT
ATOM      1  C   LIG A   1      -4.253   6.997 131.806  0.00  0.00    +0.051 C 
ATOM      2  C   LIG A   1      -4.460   6.220 133.078  0.00  0.00    +0.033 A 
ATOM      3  C   LIG A   1      -5.743   5.787 133.460  0.00  0.00    +0.131 A 
ATOM      4  C   LIG A   1      -5.952   5.107 134.675  0.00  0.00    -0.002 A 
ATOM      5  C   LIG A   1      -7.343   4.674 135.066  0.00  0.00    +0.043 C 
ATOM      6  C   LIG A   1      -8.406   5.375 134.238  0.00  0.00    +0.054 C 
ATOM      7  C   LIG A   1      -7.976   5.345 132.777  0.00  0.00    +0.207 C 
ATOM      8  O   LIG A   1      -6.769   6.103 132.602  0.00  0.00    -0.483 OA
ATOM      9  C   LIG A   1      -4.848   4.817 135.505  0.00  0.00    -0.040 A 
ATOM     10  C   LIG A   1      -3.574   5.265 135.132  0.00  0.00    +0.049 A 
ATOM     11  C   LIG A   1      -3.391   5.963 133.939  0.00  0.00    +0.123 A 
ATOM     12  C   LIG A   1      -5.009   4.078 136.806  0.00  0.00    +0.044 C 
ENDROOT
BRANCH   7  13
ATOM     13  C   LIG A   1      -9.068   5.920 131.889  0.00  0.00    +0.038 A 
ATOM     14  C   LIG A   1     -10.379   6.092 132.373  0.00  0.00    +0.060 A 
ATOM     15  C   LIG A   1     -11.334   6.602 131.518  0.00  0.00    +0.167 A 
ATOM     16  C   LIG A   1     -11.038   6.935 130.219  0.00  0.00    +0.170 A 
ATOM     17  C   LIG A   1      -9.774   6.775 129.695  0.00  0.00    +0.095 A 
ATOM     18  C   LIG A   1      -8.791   6.259 130.544  0.00  0.00    +0.127 A 
ATOM     19  O   LIG A   1     -12.119   7.416 129.547  0.00  0.00    -0.453 OA
ATOM     20  C   LIG A   1     -13.128   7.354 130.578  0.00  0.00    +0.466 C 
ATOM     21  O   LIG A   1     -12.638   6.830 131.829  0.00  0.00    -0.453 OA
BRANCH  18  22
ATOM     22  O   LIG A   1      -7.522   6.063 130.068  0.00  0.00    -0.506 OA
ATOM     23  H   LIG A   1      -7.391   6.629 129.289  0.00  0.00    +0.292 HD
ENDBRANCH  18  22
ENDBRANCH   7  13
BRANCH  11  24
ATOM     24  O   LIG A   1      -2.143   6.411 133.599  0.00  0.00    -0.506 OA
ATOM     25  H   LIG A   1      -1.533   5.657 133.581  0.00  0.00    +0.292 HD
ENDBRANCH  11  24
TORSDOF 3
ENDMDL
MODEL 9
REMARK VINA RESULT:      -6.8      7.829      9.449
REMARK  Name = NuBBE_2034
REMARK  5 active torsions:
REMARK  status: ('A' for Active; 'I' for Inactive)
REMARK    1  A    between atoms: C_1  and  C_2
REMARK    2  A    between atoms: C_7  and  C_9
REMARK    3  A    between atoms: C_14  and  O_15
REMARK    4  A    between atoms: C_19  and  C_23
REMARK    5  A    between atoms: C_21  and  O_22
REMARK                            x       y       z     vdW  Elec       q    Type
REMARK                         _______ _______ _______ _____ _____    ______ ____
ROOT
ATOM      1  C   LIG A   1      -8.256   1.341 130.077  0.00  0.00    +0.051 C 
ATOM      2  C   LIG A   1      -7.907   0.120 130.884  0.00  0.00    +0.033 A 
ATOM      3  C   LIG A   1      -7.635  -1.108 130.255  0.00  0.00    +0.131 A 
ATOM      4  C   LIG A   1      -7.361  -2.269 131.006  0.00  0.00    -0.002 A 
ATOM      5  C   LIG A   1      -7.093  -3.576 130.302  0.00  0.00    +0.043 C 
ATOM      6  C   LIG A   1      -7.528  -3.532 128.847  0.00  0.00    +0.054 C 
ATOM      7  C   LIG A   1      -7.046  -2.221 128.239  0.00  0.00    +0.207 C 
ATOM      8  O   LIG A   1      -7.693  -1.112 128.882  0.00  0.00    -0.483 OA
ATOM      9  C   LIG A   1      -7.318  -2.188 132.414  0.00  0.00    -0.040 A 
ATOM     10  C   LIG A   1      -7.608  -0.967 133.040  0.00  0.00    +0.049 A 
ATOM     11  C   LIG A   1      -7.906   0.164 132.280  0.00  0.00    +0.123 A 
ATOM     12  C   LIG A   1      -7.013  -3.389 133.266  0.00  0.00    +0.044 C 
ENDROOT
BRANCH   7  13
ATOM     13  C   LIG A   1      -7.343  -2.185 126.749  0.00  0.00    +0.038 A 
ATOM     14  C   LIG A   1      -8.510  -2.777 126.228  0.00  0.00    +0.060 A 
ATOM     15  C   LIG A   1      -8.720  -2.730 124.866  0.00  0.00    +0.167 A 
ATOM     16  C   LIG A   1      -7.822  -2.132 124.016  0.00  0.00    +0.170 A 
ATOM     17  C   LIG A   1      -6.662  -1.549 124.474  0.00  0.00    +0.095 A 
ATOM     18  C   LIG A   1      -6.428  -1.586 125.851  0.00  0.00    +0.127 A 
ATOM     19  O   LIG A   1      -8.217  -2.197 122.715  0.00  0.00    -0.453 OA
ATOM     20  C   LIG A   1      -9.471  -2.899 122.847  0.00  0.00    +0.466 C 
ATOM     21  O   LIG A   1      -9.792  -3.248 124.209  0.00  0.00    -0.453 OA
BRANCH  18  22
ATOM     22  O   LIG A   1      -5.280  -1.038 126.358  0.00  0.00    -0.506 OA
ATOM     23  H   LIG A   1      -5.466  -0.124 126.633  0.00  0.00    +0.292 HD
ENDBRANCH  18  22
ENDBRANCH   7  13
BRANCH  11  24
ATOM     24  O   LIG A   1      -8.207   1.342 132.907  0.00  0.00    -0.506 OA
ATOM     25  H   LIG A   1      -7.512   1.539 133.554  0.00  0.00    +0.292 HD
ENDBRANCH  11  24
TORSDOF 3
ENDMDL
