MODEL 1
REMARK VINA RESULT:      -7.4      0.000      0.000
REMARK  Name = NuBBE_866
REMARK  6 active torsions:
REMARK  status: ('A' for Active; 'I' for Inactive)
REMARK    1  A    between atoms: O_1  and  C_2
REMARK    2  A    between atoms: C_4  and  O_5
REMARK    3  A    between atoms: C_9  and  C_11
REMARK    4  A    between atoms: C_14  and  O_15
REMARK    5  A    between atoms: C_16  and  O_17
REMARK    6  A    between atoms: C_19  and  O_21
REMARK                            x       y       z     vdW  Elec       q    Type
REMARK                         _______ _______ _______ _____ _____    ______ ____
ROOT
ATOM      1  C   LIG A   1      -6.059   4.960 119.367  0.00  0.00    +0.124 A 
ATOM      2  C   LIG A   1      -7.397   4.699 119.086  0.00  0.00    +0.091 A 
ATOM      3  C   LIG A   1      -8.168   4.032 120.038  0.00  0.00    +0.127 A 
ATOM      4  C   LIG A   1      -7.623   3.622 121.261  0.00  0.00    +0.038 A 
ATOM      5  C   LIG A   1      -6.283   3.930 121.531  0.00  0.00    +0.132 A 
ATOM      6  O   LIG A   1      -5.651   3.583 122.697  0.00  0.00    -0.481 OA
ATOM      7  C   LIG A   1      -6.545   3.325 123.798  0.00  0.00    +0.232 C 
ATOM      8  C   LIG A   1      -7.598   2.277 123.383  0.00  0.00    +0.164 C 
ATOM      9  C   LIG A   1      -8.460   2.873 122.267  0.00  0.00    +0.078 C 
ATOM     10  C   LIG A   1      -5.498   4.580 120.580  0.00  0.00    +0.091 A 
ENDROOT
BRANCH   7  11
ATOM     11  C   LIG A   1      -5.680   3.009 125.009  0.00  0.00    -0.001 A 
ATOM     12  C   LIG A   1      -4.741   3.978 125.430  0.00  0.00    +0.011 A 
ATOM     13  C   LIG A   1      -3.914   3.762 126.537  0.00  0.00    +0.049 A 
ATOM     14  C   LIG A   1      -4.019   2.568 127.233  0.00  0.00    +0.158 A 
ATOM     15  C   LIG A   1      -4.935   1.601 126.830  0.00  0.00    +0.159 A 
ATOM     16  C   LIG A   1      -5.761   1.808 125.730  0.00  0.00    +0.056 A 
BRANCH  14  17
ATOM     17  O   LIG A   1      -3.240   2.292 128.322  0.00  0.00    -0.503 OA
ATOM     18  H   LIG A   1      -2.386   1.956 128.002  0.00  0.00    +0.292 HD
ENDBRANCH  14  17
BRANCH  15  19
ATOM     19  O   LIG A   1      -5.028   0.425 127.519  0.00  0.00    -0.503 OA
ATOM     20  H   LIG A   1      -4.535  -0.217 126.973  0.00  0.00    +0.292 HD
ENDBRANCH  15  19
ENDBRANCH   7  11
BRANCH   1  21
ATOM     21  O   LIG A   1      -5.255   5.599 118.470  0.00  0.00    -0.506 OA
ATOM     22  H   LIG A   1      -5.707   5.644 117.612  0.00  0.00    +0.292 HD
ENDBRANCH   1  21
BRANCH   3  23
ATOM     23  O   LIG A   1      -9.486   3.764 119.792  0.00  0.00    -0.506 OA
ATOM     24  H   LIG A   1      -9.785   3.053 120.383  0.00  0.00    +0.292 HD
ENDBRANCH   3  23
BRANCH   8  25
ATOM     25  O   LIG A   1      -6.997   1.064 122.898  0.00  0.00    -0.388 OA
ATOM     26  H   LIG A   1      -7.166   0.377 123.572  0.00  0.00    +0.210 HD
ENDBRANCH   8  25
TORSDOF 6
ENDMDL
MODEL 2
REMARK VINA RESULT:      -7.3      8.429      9.356
REMARK  Name = NuBBE_866
REMARK  6 active torsions:
REMARK  status: ('A' for Active; 'I' for Inactive)
REMARK    1  A    between atoms: O_1  and  C_2
REMARK    2  A    between atoms: C_4  and  O_5
REMARK    3  A    between atoms: C_9  and  C_11
REMARK    4  A    between atoms: C_14  and  O_15
REMARK    5  A    between atoms: C_16  and  O_17
REMARK    6  A    between atoms: C_19  and  O_21
REMARK                            x       y       z     vdW  Elec       q    Type
REMARK                         _______ _______ _______ _____ _____    ______ ____
ROOT
ATOM      1  C   LIG A   1     -11.357   8.116 129.085  0.00  0.00    +0.124 A 
ATOM      2  C   LIG A   1     -12.194   7.552 130.043  0.00  0.00    +0.091 A 
ATOM      3  C   LIG A   1     -11.628   6.817 131.084  0.00  0.00    +0.127 A 
ATOM      4  C   LIG A   1     -10.242   6.637 131.181  0.00  0.00    +0.038 A 
ATOM      5  C   LIG A   1      -9.422   7.248 130.223  0.00  0.00    +0.132 A 
ATOM      6  O   LIG A   1      -8.055   7.144 130.226  0.00  0.00    -0.481 OA
ATOM      7  C   LIG A   1      -7.494   6.793 131.507  0.00  0.00    +0.232 C 
ATOM      8  C   LIG A   1      -8.167   5.512 132.040  0.00  0.00    +0.164 C 
ATOM      9  C   LIG A   1      -9.646   5.814 132.294  0.00  0.00    +0.078 C 
ATOM     10  C   LIG A   1      -9.978   7.969 129.167  0.00  0.00    +0.091 A 
ENDROOT
BRANCH   7  11
ATOM     11  C   LIG A   1      -5.982   6.774 131.338  0.00  0.00    -0.001 A 
ATOM     12  C   LIG A   1      -5.207   6.124 132.326  0.00  0.00    +0.011 A 
ATOM     13  C   LIG A   1      -3.813   6.060 132.237  0.00  0.00    +0.049 A 
ATOM     14  C   LIG A   1      -3.179   6.651 131.155  0.00  0.00    +0.158 A 
ATOM     15  C   LIG A   1      -3.926   7.298 130.175  0.00  0.00    +0.159 A 
ATOM     16  C   LIG A   1      -5.313   7.366 130.256  0.00  0.00    +0.056 A 
BRANCH  14  17
ATOM     17  O   LIG A   1      -1.820   6.626 131.009  0.00  0.00    -0.503 OA
ATOM     18  H   LIG A   1      -1.510   5.733 131.235  0.00  0.00    +0.292 HD
ENDBRANCH  14  17
BRANCH  15  19
ATOM     19  O   LIG A   1      -3.292   7.881 129.115  0.00  0.00    -0.503 OA
ATOM     20  H   LIG A   1      -3.385   8.840 129.274  0.00  0.00    +0.292 HD
ENDBRANCH  15  19
ENDBRANCH   7  11
BRANCH   1  21
ATOM     21  O   LIG A   1     -11.855   8.836 128.039  0.00  0.00    -0.506 OA
ATOM     22  H   LIG A   1     -11.121   9.255 127.561  0.00  0.00    +0.292 HD
ENDBRANCH   1  21
BRANCH   3  23
ATOM     23  O   LIG A   1     -12.424   6.253 132.042  0.00  0.00    -0.506 OA
ATOM     24  H   LIG A   1     -12.437   6.826 132.827  0.00  0.00    +0.292 HD
ENDBRANCH   3  23
BRANCH   8  25
ATOM     25  O   LIG A   1      -8.076   4.421 131.110  0.00  0.00    -0.388 OA
ATOM     26  H   LIG A   1      -8.578   3.678 131.496  0.00  0.00    +0.210 HD
ENDBRANCH   8  25
TORSDOF 6
ENDMDL
MODEL 3
REMARK VINA RESULT:      -7.1      7.725     10.537
REMARK  Name = NuBBE_866
REMARK  6 active torsions:
REMARK  status: ('A' for Active; 'I' for Inactive)
REMARK    1  A    between atoms: O_1  and  C_2
REMARK    2  A    between atoms: C_4  and  O_5
REMARK    3  A    between atoms: C_9  and  C_11
REMARK    4  A    between atoms: C_14  and  O_15
REMARK    5  A    between atoms: C_16  and  O_17
REMARK    6  A    between atoms: C_19  and  O_21
REMARK                            x       y       z     vdW  Elec       q    Type
REMARK                         _______ _______ _______ _____ _____    ______ ____
ROOT
ATOM      1  C   LIG A   1      -8.302   1.378 129.732  0.00  0.00    +0.124 A 
ATOM      2  C   LIG A   1      -8.018   1.063 131.057  0.00  0.00    +0.091 A 
ATOM      3  C   LIG A   1      -8.343   1.983 132.053  0.00  0.00    +0.127 A 
ATOM      4  C   LIG A   1      -8.945   3.210 131.745  0.00  0.00    +0.038 A 
ATOM      5  C   LIG A   1      -9.252   3.484 130.405  0.00  0.00    +0.132 A 
ATOM      6  O   LIG A   1      -9.846   4.649 129.992  0.00  0.00    -0.481 OA
ATOM      7  C   LIG A   1     -10.563   5.345 131.032  0.00  0.00    +0.232 C 
ATOM      8  C   LIG A   1      -9.637   5.573 132.244  0.00  0.00    +0.164 C 
ATOM      9  C   LIG A   1      -9.262   4.209 132.829  0.00  0.00    +0.078 C 
ATOM     10  C   LIG A   1      -8.915   2.580 129.400  0.00  0.00    +0.091 A 
ENDROOT
BRANCH   7  11
ATOM     11  C   LIG A   1     -11.194   6.572 130.390  0.00  0.00    -0.001 A 
ATOM     12  C   LIG A   1     -12.286   7.184 131.048  0.00  0.00    +0.011 A 
ATOM     13  C   LIG A   1     -12.914   8.317 130.522  0.00  0.00    +0.049 A 
ATOM     14  C   LIG A   1     -12.454   8.849 129.328  0.00  0.00    +0.158 A 
ATOM     15  C   LIG A   1     -11.383   8.258 128.665  0.00  0.00    +0.159 A 
ATOM     16  C   LIG A   1     -10.752   7.130 129.181  0.00  0.00    +0.056 A 
BRANCH  14  17
ATOM     17  O   LIG A   1     -13.024   9.954 128.759  0.00  0.00    -0.503 OA
ATOM     18  H   LIG A   1     -12.408  10.699 128.867  0.00  0.00    +0.292 HD
ENDBRANCH  14  17
BRANCH  15  19
ATOM     19  O   LIG A   1     -10.939   8.787 127.486  0.00  0.00    -0.503 OA
ATOM     20  H   LIG A   1     -11.091   9.748 127.578  0.00  0.00    +0.292 HD
ENDBRANCH  15  19
ENDBRANCH   7  11
BRANCH   1  21
ATOM     21  O   LIG A   1      -7.997   0.522 128.715  0.00  0.00    -0.506 OA
ATOM     22  H   LIG A   1      -7.988  -0.388 129.056  0.00  0.00    +0.292 HD
ENDBRANCH   1  21
BRANCH   3  23
ATOM     23  O   LIG A   1      -8.080   1.701 133.365  0.00  0.00    -0.506 OA
ATOM     24  H   LIG A   1      -8.518   2.360 133.929  0.00  0.00    +0.292 HD
ENDBRANCH   3  23
BRANCH   8  25
ATOM     25  O   LIG A   1      -8.429   6.264 131.884  0.00  0.00    -0.388 OA
ATOM     26  H   LIG A   1      -8.489   7.158 132.274  0.00  0.00    +0.210 HD
ENDBRANCH   8  25
TORSDOF 6
ENDMDL
MODEL 4
REMARK VINA RESULT:      -7.1      3.547      6.563
REMARK  Name = NuBBE_866
REMARK  6 active torsions:
REMARK  status: ('A' for Active; 'I' for Inactive)
REMARK    1  A    between atoms: O_1  and  C_2
REMARK    2  A    between atoms: C_4  and  O_5
REMARK    3  A    between atoms: C_9  and  C_11
REMARK    4  A    between atoms: C_14  and  O_15
REMARK    5  A    between atoms: C_16  and  O_17
REMARK    6  A    between atoms: C_19  and  O_21
REMARK                            x       y       z     vdW  Elec       q    Type
REMARK                         _______ _______ _______ _____ _____    ______ ____
ROOT
ATOM      1  C   LIG A   1      -2.369   3.137 126.883  0.00  0.00    +0.124 A 
ATOM      2  C   LIG A   1      -2.556   4.420 127.390  0.00  0.00    +0.091 A 
ATOM      3  C   LIG A   1      -3.784   5.051 127.192  0.00  0.00    +0.127 A 
ATOM      4  C   LIG A   1      -4.823   4.421 126.496  0.00  0.00    +0.038 A 
ATOM      5  C   LIG A   1      -4.619   3.116 126.029  0.00  0.00    +0.132 A 
ATOM      6  O   LIG A   1      -5.569   2.405 125.343  0.00  0.00    -0.481 OA
ATOM      7  C   LIG A   1      -6.918   2.871 125.550  0.00  0.00    +0.232 C 
ATOM      8  C   LIG A   1      -7.002   4.381 125.245  0.00  0.00    +0.164 C 
ATOM      9  C   LIG A   1      -6.135   5.127 126.263  0.00  0.00    +0.078 C 
ATOM     10  C   LIG A   1      -3.390   2.483 126.205  0.00  0.00    +0.091 A 
ENDROOT
BRANCH   7  11
ATOM     11  C   LIG A   1      -7.833   1.944 124.763  0.00  0.00    -0.001 A 
ATOM     12  C   LIG A   1      -7.250   0.862 124.067  0.00  0.00    +0.011 A 
ATOM     13  C   LIG A   1      -8.027  -0.035 123.327  0.00  0.00    +0.049 A 
ATOM     14  C   LIG A   1      -9.401   0.146 123.276  0.00  0.00    +0.158 A 
ATOM     15  C   LIG A   1      -9.991   1.209 123.952  0.00  0.00    +0.159 A 
ATOM     16  C   LIG A   1      -9.225   2.106 124.691  0.00  0.00    +0.056 A 
BRANCH  14  17
ATOM     17  O   LIG A   1     -10.217  -0.692 122.570  0.00  0.00    -0.503 OA
ATOM     18  H   LIG A   1     -10.802  -1.144 123.202  0.00  0.00    +0.292 HD
ENDBRANCH  14  17
BRANCH  15  19
ATOM     19  O   LIG A   1     -11.345   1.383 123.893  0.00  0.00    -0.503 OA
ATOM     20  H   LIG A   1     -11.557   1.910 124.688  0.00  0.00    +0.292 HD
ENDBRANCH  15  19
ENDBRANCH   7  11
BRANCH   1  21
ATOM     21  O   LIG A   1      -1.186   2.476 127.037  0.00  0.00    -0.506 OA
ATOM     22  H   LIG A   1      -1.197   1.995 127.881  0.00  0.00    +0.292 HD
ENDBRANCH   1  21
BRANCH   3  23
ATOM     23  O   LIG A   1      -3.998   6.310 127.681  0.00  0.00    -0.506 OA
ATOM     24  H   LIG A   1      -4.514   6.251 128.502  0.00  0.00    +0.292 HD
ENDBRANCH   3  23
BRANCH   8  25
ATOM     25  O   LIG A   1      -6.533   4.697 123.924  0.00  0.00    -0.388 OA
ATOM     26  H   LIG A   1      -5.814   4.068 123.722  0.00  0.00    +0.210 HD
ENDBRANCH   8  25
TORSDOF 6
ENDMDL
MODEL 5
REMARK VINA RESULT:      -6.9      3.026      6.440
REMARK  Name = NuBBE_866
REMARK  6 active torsions:
REMARK  status: ('A' for Active; 'I' for Inactive)
REMARK    1  A    between atoms: O_1  and  C_2
REMARK    2  A    between atoms: C_4  and  O_5
REMARK    3  A    between atoms: C_9  and  C_11
REMARK    4  A    between atoms: C_14  and  O_15
REMARK    5  A    between atoms: C_16  and  O_17
REMARK    6  A    between atoms: C_19  and  O_21
REMARK                            x       y       z     vdW  Elec       q    Type
REMARK                         _______ _______ _______ _____ _____    ______ ____
ROOT
ATOM      1  C   LIG A   1      -7.352  -1.920 124.169  0.00  0.00    +0.124 A 
ATOM      2  C   LIG A   1      -8.447  -1.731 125.006  0.00  0.00    +0.091 A 
ATOM      3  C   LIG A   1      -9.025  -0.465 125.086  0.00  0.00    +0.127 A 
ATOM      4  C   LIG A   1      -8.524   0.613 124.345  0.00  0.00    +0.038 A 
ATOM      5  C   LIG A   1      -7.443   0.385 123.483  0.00  0.00    +0.132 A 
ATOM      6  O   LIG A   1      -6.879   1.365 122.707  0.00  0.00    -0.481 OA
ATOM      7  C   LIG A   1      -7.743   2.494 122.464  0.00  0.00    +0.232 C 
ATOM      8  C   LIG A   1      -8.264   3.053 123.803  0.00  0.00    +0.164 C 
ATOM      9  C   LIG A   1      -9.139   1.985 124.464  0.00  0.00    +0.078 C 
ATOM     10  C   LIG A   1      -6.846  -0.872 123.409  0.00  0.00    +0.091 A 
ENDROOT
BRANCH   7  11
ATOM     11  C   LIG A   1      -6.982   3.447 121.554  0.00  0.00    -0.001 A 
ATOM     12  C   LIG A   1      -7.521   3.727 120.278  0.00  0.00    +0.011 A 
ATOM     13  C   LIG A   1      -6.882   4.596 119.389  0.00  0.00    +0.049 A 
ATOM     14  C   LIG A   1      -5.690   5.194 119.770  0.00  0.00    +0.158 A 
ATOM     15  C   LIG A   1      -5.143   4.927 121.021  0.00  0.00    +0.159 A 
ATOM     16  C   LIG A   1      -5.773   4.063 121.912  0.00  0.00    +0.056 A 
BRANCH  14  17
ATOM     17  O   LIG A   1      -5.013   6.052 118.949  0.00  0.00    -0.503 OA
ATOM     18  H   LIG A   1      -4.067   5.837 119.005  0.00  0.00    +0.292 HD
ENDBRANCH  14  17
BRANCH  15  19
ATOM     19  O   LIG A   1      -3.967   5.517 121.387  0.00  0.00    -0.503 OA
ATOM     20  H   LIG A   1      -4.182   6.468 121.454  0.00  0.00    +0.292 HD
ENDBRANCH  15  19
ENDBRANCH   7  11
BRANCH   1  21
ATOM     21  O   LIG A   1      -6.740  -3.133 124.060  0.00  0.00    -0.506 OA
ATOM     22  H   LIG A   1      -6.731  -3.566 124.929  0.00  0.00    +0.292 HD
ENDBRANCH   1  21
BRANCH   3  23
ATOM     23  O   LIG A   1     -10.105  -0.249 125.897  0.00  0.00    -0.506 OA
ATOM     24  H   LIG A   1     -10.913  -0.229 125.357  0.00  0.00    +0.292 HD
ENDBRANCH   3  23
BRANCH   8  25
ATOM     25  O   LIG A   1      -7.197   3.392 124.704  0.00  0.00    -0.388 OA
ATOM     26  H   LIG A   1      -7.323   4.329 124.950  0.00  0.00    +0.210 HD
ENDBRANCH   8  25
TORSDOF 6
ENDMDL
MODEL 6
REMARK VINA RESULT:      -6.8      5.238      7.481
REMARK  Name = NuBBE_866
REMARK  6 active torsions:
REMARK  status: ('A' for Active; 'I' for Inactive)
REMARK    1  A    between atoms: O_1  and  C_2
REMARK    2  A    between atoms: C_4  and  O_5
REMARK    3  A    between atoms: C_9  and  C_11
REMARK    4  A    between atoms: C_14  and  O_15
REMARK    5  A    between atoms: C_16  and  O_17
REMARK    6  A    between atoms: C_19  and  O_21
REMARK                            x       y       z     vdW  Elec       q    Type
REMARK                         _______ _______ _______ _____ _____    ______ ____
ROOT
ATOM      1  C   LIG A   1      -9.143  -2.994 123.818  0.00  0.00    +0.124 A 
ATOM      2  C   LIG A   1      -8.384  -2.209 122.954  0.00  0.00    +0.091 A 
ATOM      3  C   LIG A   1      -7.247  -1.569 123.448  0.00  0.00    +0.127 A 
ATOM      4  C   LIG A   1      -6.860  -1.701 124.787  0.00  0.00    +0.038 A 
ATOM      5  C   LIG A   1      -7.623  -2.527 125.624  0.00  0.00    +0.132 A 
ATOM      6  O   LIG A   1      -7.331  -2.733 126.948  0.00  0.00    -0.481 OA
ATOM      7  C   LIG A   1      -5.960  -2.454 127.299  0.00  0.00    +0.232 C 
ATOM      8  C   LIG A   1      -5.582  -1.030 126.844  0.00  0.00    +0.164 C 
ATOM      9  C   LIG A   1      -5.646  -0.979 125.315  0.00  0.00    +0.078 C 
ATOM     10  C   LIG A   1      -8.771  -3.156 125.146  0.00  0.00    +0.091 A 
ENDROOT
BRANCH   7  11
ATOM     11  C   LIG A   1      -5.805  -2.784 128.776  0.00  0.00    -0.001 A 
ATOM     12  C   LIG A   1      -6.975  -2.910 129.559  0.00  0.00    +0.011 A 
ATOM     13  C   LIG A   1      -6.913  -3.216 130.923  0.00  0.00    +0.049 A 
ATOM     14  C   LIG A   1      -5.673  -3.397 131.517  0.00  0.00    +0.158 A 
ATOM     15  C   LIG A   1      -4.511  -3.272 130.762  0.00  0.00    +0.159 A 
ATOM     16  C   LIG A   1      -4.564  -2.968 129.405  0.00  0.00    +0.056 A 
BRANCH  14  17
ATOM     17  O   LIG A   1      -5.542  -3.695 132.844  0.00  0.00    -0.503 OA
ATOM     18  H   LIG A   1      -6.058  -4.499 133.023  0.00  0.00    +0.292 HD
ENDBRANCH  14  17
BRANCH  15  19
ATOM     19  O   LIG A   1      -3.294  -3.448 131.356  0.00  0.00    -0.503 OA
ATOM     20  H   LIG A   1      -3.395  -3.044 132.241  0.00  0.00    +0.292 HD
ENDBRANCH  15  19
ENDBRANCH   7  11
BRANCH   1  21
ATOM     21  O   LIG A   1     -10.270  -3.634 123.393  0.00  0.00    -0.506 OA
ATOM     22  H   LIG A   1     -10.113  -4.005 122.509  0.00  0.00    +0.292 HD
ENDBRANCH   1  21
BRANCH   3  23
ATOM     23  O   LIG A   1      -6.480  -0.794 122.624  0.00  0.00    -0.506 OA
ATOM     24  H   LIG A   1      -6.465  -1.187 121.735  0.00  0.00    +0.292 HD
ENDBRANCH   3  23
BRANCH   8  25
ATOM     25  O   LIG A   1      -6.473  -0.034 127.373  0.00  0.00    -0.388 OA
ATOM     26  H   LIG A   1      -7.075  -0.493 127.990  0.00  0.00    +0.210 HD
ENDBRANCH   8  25
TORSDOF 6
ENDMDL
MODEL 7
REMARK VINA RESULT:      -6.8      4.485      6.087
REMARK  Name = NuBBE_866
REMARK  6 active torsions:
REMARK  status: ('A' for Active; 'I' for Inactive)
REMARK    1  A    between atoms: O_1  and  C_2
REMARK    2  A    between atoms: C_4  and  O_5
REMARK    3  A    between atoms: C_9  and  C_11
REMARK    4  A    between atoms: C_14  and  O_15
REMARK    5  A    between atoms: C_16  and  O_17
REMARK    6  A    between atoms: C_19  and  O_21
REMARK                            x       y       z     vdW  Elec       q    Type
REMARK                         _______ _______ _______ _____ _____    ______ ____
ROOT
ATOM      1  C   LIG A   1      -9.034   2.262 124.650  0.00  0.00    +0.124 A 
ATOM      2  C   LIG A   1      -9.697   1.621 123.609  0.00  0.00    +0.091 A 
ATOM      3  C   LIG A   1      -9.627   0.230 123.521  0.00  0.00    +0.127 A 
ATOM      4  C   LIG A   1      -8.906  -0.525 124.454  0.00  0.00    +0.038 A 
ATOM      5  C   LIG A   1      -8.279   0.146 125.512  0.00  0.00    +0.132 A 
ATOM      6  O   LIG A   1      -7.554  -0.494 126.485  0.00  0.00    -0.481 OA
ATOM      7  C   LIG A   1      -7.871  -1.893 126.632  0.00  0.00    +0.232 C 
ATOM      8  C   LIG A   1      -7.752  -2.603 125.268  0.00  0.00    +0.164 C 
ATOM      9  C   LIG A   1      -8.814  -2.024 124.328  0.00  0.00    +0.078 C 
ATOM     10  C   LIG A   1      -8.326   1.536 125.600  0.00  0.00    +0.091 A 
ENDROOT
BRANCH   7  11
ATOM     11  C   LIG A   1      -7.019  -2.423 127.776  0.00  0.00    -0.001 A 
ATOM     12  C   LIG A   1      -7.640  -3.238 128.750  0.00  0.00    +0.011 A 
ATOM     13  C   LIG A   1      -6.922  -3.766 129.827  0.00  0.00    +0.049 A 
ATOM     14  C   LIG A   1      -5.570  -3.480 129.940  0.00  0.00    +0.158 A 
ATOM     15  C   LIG A   1      -4.943  -2.676 128.993  0.00  0.00    +0.159 A 
ATOM     16  C   LIG A   1      -5.651  -2.147 127.918  0.00  0.00    +0.056 A 
BRANCH  14  17
ATOM     17  O   LIG A   1      -4.810  -3.962 130.969  0.00  0.00    -0.503 OA
ATOM     18  H   LIG A   1      -4.447  -3.203 131.455  0.00  0.00    +0.292 HD
ENDBRANCH  14  17
BRANCH  15  19
ATOM     19  O   LIG A   1      -3.612  -2.396 129.115  0.00  0.00    -0.503 OA
ATOM     20  H   LIG A   1      -3.577  -1.426 129.226  0.00  0.00    +0.292 HD
ENDBRANCH  15  19
ENDBRANCH   7  11
BRANCH   1  21
ATOM     21  O   LIG A   1      -9.057   3.620 124.781  0.00  0.00    -0.506 OA
ATOM     22  H   LIG A   1      -8.441   4.013 124.141  0.00  0.00    +0.292 HD
ENDBRANCH   1  21
BRANCH   3  23
ATOM     23  O   LIG A   1     -10.271  -0.429 122.511  0.00  0.00    -0.506 OA
ATOM     24  H   LIG A   1      -9.706  -0.436 121.720  0.00  0.00    +0.292 HD
ENDBRANCH   3  23
BRANCH   8  25
ATOM     25  O   LIG A   1      -6.460  -2.418 124.668  0.00  0.00    -0.388 OA
ATOM     26  H   LIG A   1      -6.238  -1.471 124.761  0.00  0.00    +0.210 HD
ENDBRANCH   8  25
TORSDOF 6
ENDMDL
MODEL 8
REMARK VINA RESULT:      -6.6      6.417      8.072
REMARK  Name = NuBBE_866
REMARK  6 active torsions:
REMARK  status: ('A' for Active; 'I' for Inactive)
REMARK    1  A    between atoms: O_1  and  C_2
REMARK    2  A    between atoms: C_4  and  O_5
REMARK    3  A    between atoms: C_9  and  C_11
REMARK    4  A    between atoms: C_14  and  O_15
REMARK    5  A    between atoms: C_16  and  O_17
REMARK    6  A    between atoms: C_19  and  O_21
REMARK                            x       y       z     vdW  Elec       q    Type
REMARK                         _______ _______ _______ _____ _____    ______ ____
ROOT
ATOM      1  C   LIG A   1     -11.686   8.044 128.993  0.00  0.00    +0.124 A 
ATOM      2  C   LIG A   1     -12.233   7.692 130.224  0.00  0.00    +0.091 A 
ATOM      3  C   LIG A   1     -11.698   6.603 130.912  0.00  0.00    +0.127 A 
ATOM      4  C   LIG A   1     -10.630   5.863 130.390  0.00  0.00    +0.038 A 
ATOM      5  C   LIG A   1     -10.077   6.263 129.166  0.00  0.00    +0.132 A 
ATOM      6  O   LIG A   1      -9.027   5.615 128.567  0.00  0.00    -0.481 OA
ATOM      7  C   LIG A   1      -8.229   4.825 129.472  0.00  0.00    +0.232 C 
ATOM      8  C   LIG A   1      -9.133   3.850 130.252  0.00  0.00    +0.164 C 
ATOM      9  C   LIG A   1     -10.083   4.669 131.131  0.00  0.00    +0.078 C 
ATOM     10  C   LIG A   1     -10.615   7.337 128.461  0.00  0.00    +0.091 A 
ENDROOT
BRANCH   7  11
ATOM     11  C   LIG A   1      -7.092   4.228 128.655  0.00  0.00    -0.001 A 
ATOM     12  C   LIG A   1      -7.269   4.098 127.259  0.00  0.00    +0.011 A 
ATOM     13  C   LIG A   1      -6.268   3.564 126.442  0.00  0.00    +0.049 A 
ATOM     14  C   LIG A   1      -5.077   3.151 127.018  0.00  0.00    +0.158 A 
ATOM     15  C   LIG A   1      -4.887   3.268 128.392  0.00  0.00    +0.159 A 
ATOM     16  C   LIG A   1      -5.878   3.799 129.212  0.00  0.00    +0.056 A 
BRANCH  14  17
ATOM     17  O   LIG A   1      -4.059   2.618 126.277  0.00  0.00    -0.503 OA
ATOM     18  H   LIG A   1      -3.521   2.060 126.865  0.00  0.00    +0.292 HD
ENDBRANCH  14  17
BRANCH  15  19
ATOM     19  O   LIG A   1      -3.712   2.854 128.952  0.00  0.00    -0.503 OA
ATOM     20  H   LIG A   1      -3.109   3.615 128.841  0.00  0.00    +0.292 HD
ENDBRANCH  15  19
ENDBRANCH   7  11
BRANCH   1  21
ATOM     21  O   LIG A   1     -12.175   9.092 128.270  0.00  0.00    -0.506 OA
ATOM     22  H   LIG A   1     -11.624   9.875 128.431  0.00  0.00    +0.292 HD
ENDBRANCH   1  21
BRANCH   3  23
ATOM     23  O   LIG A   1     -12.211   6.235 132.125  0.00  0.00    -0.506 OA
ATOM     24  H   LIG A   1     -11.565   5.680 132.592  0.00  0.00    +0.292 HD
ENDBRANCH   3  23
BRANCH   8  25
ATOM     25  O   LIG A   1      -9.918   3.019 129.381  0.00  0.00    -0.388 OA
ATOM     26  H   LIG A   1     -10.779   2.884 129.820  0.00  0.00    +0.210 HD
ENDBRANCH   8  25
TORSDOF 6
ENDMDL
MODEL 9
REMARK VINA RESULT:      -6.6      3.914      6.973
REMARK  Name = NuBBE_866
REMARK  6 active torsions:
REMARK  status: ('A' for Active; 'I' for Inactive)
REMARK    1  A    between atoms: O_1  and  C_2
REMARK    2  A    between atoms: C_4  and  O_5
REMARK    3  A    between atoms: C_9  and  C_11
REMARK    4  A    between atoms: C_14  and  O_15
REMARK    5  A    between atoms: C_16  and  O_17
REMARK    6  A    between atoms: C_19  and  O_21
REMARK                            x       y       z     vdW  Elec       q    Type
REMARK                         _______ _______ _______ _____ _____    ______ ____
ROOT
ATOM      1  C   LIG A   1      -8.258  -2.903 127.659  0.00  0.00    +0.124 A 
ATOM      2  C   LIG A   1      -8.842  -3.657 126.646  0.00  0.00    +0.091 A 
ATOM      3  C   LIG A   1      -9.143  -3.038 125.433  0.00  0.00    +0.127 A 
ATOM      4  C   LIG A   1      -8.869  -1.681 125.219  0.00  0.00    +0.038 A 
ATOM      5  C   LIG A   1      -8.248  -0.956 126.244  0.00  0.00    +0.132 A 
ATOM      6  O   LIG A   1      -7.929   0.373 126.140  0.00  0.00    -0.481 OA
ATOM      7  C   LIG A   1      -7.824   0.850 124.783  0.00  0.00    +0.232 C 
ATOM      8  C   LIG A   1      -9.112   0.507 124.007  0.00  0.00    +0.164 C 
ATOM      9  C   LIG A   1      -9.228  -1.017 123.914  0.00  0.00    +0.078 C 
ATOM     10  C   LIG A   1      -7.960  -1.560 127.467  0.00  0.00    +0.091 A 
ENDROOT
BRANCH   7  11
ATOM     11  C   LIG A   1      -7.417   2.314 124.857  0.00  0.00    -0.001 A 
ATOM     12  C   LIG A   1      -6.103   2.663 124.473  0.00  0.00    +0.011 A 
ATOM     13  C   LIG A   1      -5.658   3.988 124.509  0.00  0.00    +0.049 A 
ATOM     14  C   LIG A   1      -6.529   4.980 124.933  0.00  0.00    +0.158 A 
ATOM     15  C   LIG A   1      -7.826   4.654 125.318  0.00  0.00    +0.159 A 
ATOM     16  C   LIG A   1      -8.276   3.338 125.285  0.00  0.00    +0.056 A 
BRANCH  14  17
ATOM     17  O   LIG A   1      -6.158   6.294 124.994  0.00  0.00    -0.503 OA
ATOM     18  H   LIG A   1      -5.371   6.357 125.562  0.00  0.00    +0.292 HD
ENDBRANCH  14  17
BRANCH  15  19
ATOM     19  O   LIG A   1      -8.676   5.637 125.739  0.00  0.00    -0.503 OA
ATOM     20  H   LIG A   1      -8.480   5.736 126.691  0.00  0.00    +0.292 HD
ENDBRANCH  15  19
ENDBRANCH   7  11
BRANCH   1  21
ATOM     21  O   LIG A   1      -7.952  -3.452 128.869  0.00  0.00    -0.506 OA
ATOM     22  H   LIG A   1      -7.512  -2.785 129.421  0.00  0.00    +0.292 HD
ENDBRANCH   1  21
BRANCH   3  23
ATOM     23  O   LIG A   1      -9.715  -3.753 124.417  0.00  0.00    -0.506 OA
ATOM     24  H   LIG A   1     -10.624  -3.439 124.276  0.00  0.00    +0.292 HD
ENDBRANCH   3  23
BRANCH   8  25
ATOM     25  O   LIG A   1     -10.290   1.017 124.654  0.00  0.00    -0.388 OA
ATOM     26  H   LIG A   1     -10.798   0.244 124.965  0.00  0.00    +0.210 HD
ENDBRANCH   8  25
TORSDOF 6
ENDMDL
