MODEL 1
REMARK VINA RESULT:      -8.4      0.000      0.000
REMARK  Name = NuBBE_1423
REMARK  9 active torsions:
REMARK  status: ('A' for Active; 'I' for Inactive)
REMARK    1  A    between atoms: O_1  and  C_2
REMARK    2  A    between atoms: O_1  and  C_3
REMARK    3  A    between atoms: C_5  and  C_15
REMARK    4  A    between atoms: C_8  and  O_9
REMARK    5  A    between atoms: O_9  and  C_10
REMARK    6  A    between atoms: C_10  and  C_11
REMARK    7  A    between atoms: C_12  and  C_13
REMARK    8  A    between atoms: C_12  and  C_14
REMARK    9  A    between atoms: C_23  and  C_27
REMARK                            x       y       z     vdW  Elec       q    Type
REMARK                         _______ _______ _______ _____ _____    ______ ____
ROOT
ATOM      1  C   LIG A   1      -7.445  -2.295 126.189  0.00  0.00    +0.154 C 
ATOM      2  C   LIG A   1      -7.226  -3.423 125.180  0.00  0.00    +0.056 C 
ATOM      3  C   LIG A   1      -8.377  -3.232 124.226  0.00  0.00    +0.056 C 
ATOM      4  C   LIG A   1      -9.477  -2.776 125.153  0.00  0.00    +0.167 C 
ATOM      5  O   LIG A   1      -8.862  -2.030 126.208  0.00  0.00    -0.371 OA
ATOM      6  C   LIG A   1      -7.811  -2.286 123.155  0.00  0.00    +0.154 C 
ATOM      7  O   LIG A   1      -6.379  -2.521 123.156  0.00  0.00    -0.371 OA
ATOM      8  C   LIG A   1      -6.000  -3.262 124.322  0.00  0.00    +0.167 C 
ENDROOT
BRANCH   6   9
ATOM      9  C   LIG A   1      -8.091  -0.789 123.194  0.00  0.00    -0.015 A 
ATOM     10  C   LIG A   1      -7.082   0.115 123.582  0.00  0.00    +0.055 A 
ATOM     11  C   LIG A   1      -7.388   1.461 123.666  0.00  0.00    +0.167 A 
ATOM     12  C   LIG A   1      -8.650   1.937 123.416  0.00  0.00    +0.166 A 
ATOM     13  C   LIG A   1      -9.677   1.094 123.060  0.00  0.00    +0.050 A 
ATOM     14  C   LIG A   1      -9.390  -0.273 122.950  0.00  0.00    +0.010 A 
ATOM     15  O   LIG A   1      -8.743   3.283 123.579  0.00  0.00    -0.453 OA
ATOM     16  C   LIG A   1      -7.382   3.606 123.928  0.00  0.00    +0.466 C 
ATOM     17  O   LIG A   1      -6.521   2.451 124.012  0.00  0.00    -0.453 OA
ENDBRANCH   6   9
BRANCH   1  20
ATOM     18  C   LIG A   1      -5.245  -2.683 129.345  0.00  0.00    +0.162 A 
ATOM     19  C   LIG A   1      -5.641  -2.428 128.017  0.00  0.00    +0.055 A 
ATOM     20  C   LIG A   1      -6.976  -2.528 127.607  0.00  0.00    -0.015 A 
ATOM     21  C   LIG A   1      -7.916  -2.930 128.560  0.00  0.00    +0.010 A 
ATOM     22  C   LIG A   1      -7.541  -3.185 129.882  0.00  0.00    +0.050 A 
ATOM     23  C   LIG A   1      -6.208  -3.066 130.294  0.00  0.00    +0.162 A 
BRANCH  18  24
ATOM     24  O   LIG A   1      -3.894  -2.521 129.519  0.00  0.00    -0.491 OA
ATOM     25  C   LIG A   1      -3.030  -3.582 129.144  0.00  0.00    +0.277 C 
ENDBRANCH  18  24
BRANCH  23  26
ATOM     26  O   LIG A   1      -5.803  -3.403 131.557  0.00  0.00    -0.484 OA
BRANCH  26  27
ATOM     27  C   LIG A   1      -5.440  -4.763 131.786  0.00  0.00    +0.257 C 
BRANCH  27  28
ATOM     28  C   LIG A   1      -5.788  -5.099 133.207  0.00  0.00    +0.012 C 
ATOM     29  C   LIG A   1      -4.983  -5.689 134.123  0.00  0.00    -0.076 C 
ATOM     30  C   LIG A   1      -3.593  -6.162 133.858  0.00  0.00    +0.038 C 
ATOM     31  C   LIG A   1      -5.468  -5.941 135.528  0.00  0.00    +0.038 C 
ENDBRANCH  27  28
ENDBRANCH  26  27
ENDBRANCH  23  26
ENDBRANCH   1  20
TORSDOF 6
ENDMDL
MODEL 2
REMARK VINA RESULT:      -8.4      1.541      2.366
REMARK  Name = NuBBE_1423
REMARK  9 active torsions:
REMARK  status: ('A' for Active; 'I' for Inactive)
REMARK    1  A    between atoms: O_1  and  C_2
REMARK    2  A    between atoms: O_1  and  C_3
REMARK    3  A    between atoms: C_5  and  C_15
REMARK    4  A    between atoms: C_8  and  O_9
REMARK    5  A    between atoms: O_9  and  C_10
REMARK    6  A    between atoms: C_10  and  C_11
REMARK    7  A    between atoms: C_12  and  C_13
REMARK    8  A    between atoms: C_12  and  C_14
REMARK    9  A    between atoms: C_23  and  C_27
REMARK                            x       y       z     vdW  Elec       q    Type
REMARK                         _______ _______ _______ _____ _____    ______ ____
ROOT
ATOM      1  C   LIG A   1      -7.585  -2.331 126.118  0.00  0.00    +0.154 C 
ATOM      2  C   LIG A   1      -7.252  -3.434 125.112  0.00  0.00    +0.056 C 
ATOM      3  C   LIG A   1      -8.332  -3.265 124.076  0.00  0.00    +0.056 C 
ATOM      4  C   LIG A   1      -9.515  -2.861 124.921  0.00  0.00    +0.167 C 
ATOM      5  O   LIG A   1      -9.008  -2.113 126.031  0.00  0.00    -0.371 OA
ATOM      6  C   LIG A   1      -7.718  -2.282 123.065  0.00  0.00    +0.154 C 
ATOM      7  O   LIG A   1      -6.284  -2.471 123.173  0.00  0.00    -0.371 OA
ATOM      8  C   LIG A   1      -5.970  -3.218 124.354  0.00  0.00    +0.167 C 
ENDROOT
BRANCH   6   9
ATOM      9  C   LIG A   1      -8.051  -0.796 123.104  0.00  0.00    -0.015 A 
ATOM     10  C   LIG A   1      -7.081   0.141 123.510  0.00  0.00    +0.055 A 
ATOM     11  C   LIG A   1      -7.434   1.475 123.593  0.00  0.00    +0.167 A 
ATOM     12  C   LIG A   1      -8.709   1.908 123.325  0.00  0.00    +0.166 A 
ATOM     13  C   LIG A   1      -9.700   1.030 122.953  0.00  0.00    +0.050 A 
ATOM     14  C   LIG A   1      -9.364  -0.325 122.843  0.00  0.00    +0.010 A 
ATOM     15  O   LIG A   1      -8.851   3.249 123.491  0.00  0.00    -0.453 OA
ATOM     16  C   LIG A   1      -7.508   3.619 123.861  0.00  0.00    +0.466 C 
ATOM     17  O   LIG A   1      -6.608   2.494 123.955  0.00  0.00    -0.453 OA
ENDBRANCH   6   9
BRANCH   1  20
ATOM     18  C   LIG A   1      -5.622  -2.699 129.428  0.00  0.00    +0.162 A 
ATOM     19  C   LIG A   1      -5.923  -2.434 128.078  0.00  0.00    +0.055 A 
ATOM     20  C   LIG A   1      -7.219  -2.572 127.564  0.00  0.00    -0.015 A 
ATOM     21  C   LIG A   1      -8.215  -3.024 128.436  0.00  0.00    +0.010 A 
ATOM     22  C   LIG A   1      -7.933  -3.289 129.778  0.00  0.00    +0.050 A 
ATOM     23  C   LIG A   1      -6.641  -3.132 130.294  0.00  0.00    +0.162 A 
BRANCH  18  24
ATOM     24  O   LIG A   1      -4.296  -2.493 129.709  0.00  0.00    -0.491 OA
ATOM     25  C   LIG A   1      -3.353  -3.463 129.280  0.00  0.00    +0.277 C 
ENDBRANCH  18  24
BRANCH  23  26
ATOM     26  O   LIG A   1      -6.322  -3.477 131.579  0.00  0.00    -0.484 OA
BRANCH  26  27
ATOM     27  C   LIG A   1      -7.169  -2.986 132.617  0.00  0.00    +0.257 C 
BRANCH  27  28
ATOM     28  C   LIG A   1      -6.703  -1.606 132.978  0.00  0.00    +0.012 C 
ATOM     29  C   LIG A   1      -7.323  -0.437 132.686  0.00  0.00    -0.076 C 
ATOM     30  C   LIG A   1      -8.583  -0.314 131.896  0.00  0.00    +0.038 C 
ATOM     31  C   LIG A   1      -6.743   0.879 133.139  0.00  0.00    +0.038 C 
ENDBRANCH  27  28
ENDBRANCH  26  27
ENDBRANCH  23  26
ENDBRANCH   1  20
TORSDOF 6
ENDMDL
MODEL 3
REMARK VINA RESULT:      -8.3      9.351     11.393
REMARK  Name = NuBBE_1423
REMARK  9 active torsions:
REMARK  status: ('A' for Active; 'I' for Inactive)
REMARK    1  A    between atoms: O_1  and  C_2
REMARK    2  A    between atoms: O_1  and  C_3
REMARK    3  A    between atoms: C_5  and  C_15
REMARK    4  A    between atoms: C_8  and  O_9
REMARK    5  A    between atoms: O_9  and  C_10
REMARK    6  A    between atoms: C_10  and  C_11
REMARK    7  A    between atoms: C_12  and  C_13
REMARK    8  A    between atoms: C_12  and  C_14
REMARK    9  A    between atoms: C_23  and  C_27
REMARK                            x       y       z     vdW  Elec       q    Type
REMARK                         _______ _______ _______ _____ _____    ______ ____
ROOT
ATOM      1  C   LIG A   1      -7.938   6.097 131.266  0.00  0.00    +0.154 C 
ATOM      2  C   LIG A   1      -8.333   4.623 131.153  0.00  0.00    +0.056 C 
ATOM      3  C   LIG A   1      -9.773   4.639 131.594  0.00  0.00    +0.056 C 
ATOM      4  C   LIG A   1      -9.760   5.700 132.666  0.00  0.00    +0.167 C 
ATOM      5  O   LIG A   1      -8.773   6.667 132.295  0.00  0.00    -0.371 OA
ATOM      6  C   LIG A   1     -10.553   4.854 130.286  0.00  0.00    +0.154 C 
ATOM      7  O   LIG A   1      -9.704   4.315 129.242  0.00  0.00    -0.371 OA
ATOM      8  C   LIG A   1      -8.379   4.098 129.743  0.00  0.00    +0.167 C 
ENDROOT
BRANCH   6   9
ATOM      9  C   LIG A   1     -11.058   6.234 129.885  0.00  0.00    -0.015 A 
ATOM     10  C   LIG A   1     -11.917   6.955 130.737  0.00  0.00    +0.055 A 
ATOM     11  C   LIG A   1     -12.406   8.177 130.315  0.00  0.00    +0.167 A 
ATOM     12  C   LIG A   1     -12.105   8.693 129.079  0.00  0.00    +0.166 A 
ATOM     13  C   LIG A   1     -11.294   8.017 128.198  0.00  0.00    +0.050 A 
ATOM     14  C   LIG A   1     -10.770   6.784 128.609  0.00  0.00    +0.010 A 
ATOM     15  O   LIG A   1     -12.706   9.891 128.852  0.00  0.00    -0.453 OA
ATOM     16  C   LIG A   1     -13.394  10.088 130.104  0.00  0.00    +0.466 C 
ATOM     17  O   LIG A   1     -13.230   8.992 131.028  0.00  0.00    -0.453 OA
ENDBRANCH   6   9
BRANCH   1  20
ATOM     18  C   LIG A   1      -4.282   7.332 131.041  0.00  0.00    +0.162 A 
ATOM     19  C   LIG A   1      -5.631   7.089 130.715  0.00  0.00    +0.055 A 
ATOM     20  C   LIG A   1      -6.495   6.410 131.583  0.00  0.00    -0.015 A 
ATOM     21  C   LIG A   1      -5.962   5.941 132.788  0.00  0.00    +0.010 A 
ATOM     22  C   LIG A   1      -4.627   6.176 133.127  0.00  0.00    +0.050 A 
ATOM     23  C   LIG A   1      -3.770   6.872 132.265  0.00  0.00    +0.162 A 
BRANCH  18  24
ATOM     24  O   LIG A   1      -3.629   8.015 130.047  0.00  0.00    -0.491 OA
ATOM     25  C   LIG A   1      -3.459   7.382 128.788  0.00  0.00    +0.277 C 
ENDBRANCH  18  24
BRANCH  23  26
ATOM     26  O   LIG A   1      -2.438   7.030 132.533  0.00  0.00    -0.484 OA
BRANCH  26  27
ATOM     27  C   LIG A   1      -2.085   7.914 133.595  0.00  0.00    +0.257 C 
BRANCH  27  28
ATOM     28  C   LIG A   1      -2.067   9.310 133.044  0.00  0.00    +0.012 C 
ATOM     29  C   LIG A   1      -2.308  10.456 133.725  0.00  0.00    -0.076 C 
ATOM     30  C   LIG A   1      -2.689  10.527 135.166  0.00  0.00    +0.038 C 
ATOM     31  C   LIG A   1      -2.228  11.795 133.037  0.00  0.00    +0.038 C 
ENDBRANCH  27  28
ENDBRANCH  26  27
ENDBRANCH  23  26
ENDBRANCH   1  20
TORSDOF 6
ENDMDL
MODEL 4
REMARK VINA RESULT:      -8.3      5.483      8.205
REMARK  Name = NuBBE_1423
REMARK  9 active torsions:
REMARK  status: ('A' for Active; 'I' for Inactive)
REMARK    1  A    between atoms: O_1  and  C_2
REMARK    2  A    between atoms: O_1  and  C_3
REMARK    3  A    between atoms: C_5  and  C_15
REMARK    4  A    between atoms: C_8  and  O_9
REMARK    5  A    between atoms: O_9  and  C_10
REMARK    6  A    between atoms: C_10  and  C_11
REMARK    7  A    between atoms: C_12  and  C_13
REMARK    8  A    between atoms: C_12  and  C_14
REMARK    9  A    between atoms: C_23  and  C_27
REMARK                            x       y       z     vdW  Elec       q    Type
REMARK                         _______ _______ _______ _____ _____    ______ ____
ROOT
ATOM      1  C   LIG A   1      -8.258   2.468 129.894  0.00  0.00    +0.154 C 
ATOM      2  C   LIG A   1      -7.859   2.520 131.370  0.00  0.00    +0.056 C 
ATOM      3  C   LIG A   1      -7.488   3.969 131.554  0.00  0.00    +0.056 C 
ATOM      4  C   LIG A   1      -6.854   4.300 130.226  0.00  0.00    +0.167 C 
ATOM      5  O   LIG A   1      -7.515   3.511 129.232  0.00  0.00    -0.371 OA
ATOM      6  C   LIG A   1      -8.807   4.632 131.982  0.00  0.00    +0.154 C 
ATOM      7  O   LIG A   1      -9.575   3.579 132.618  0.00  0.00    -0.371 OA
ATOM      8  C   LIG A   1      -8.997   2.300 132.330  0.00  0.00    +0.167 C 
ENDROOT
BRANCH   6   9
ATOM      9  C   LIG A   1      -9.679   5.377 130.979  0.00  0.00    -0.015 A 
ATOM     10  C   LIG A   1      -9.219   6.566 130.380  0.00  0.00    +0.055 A 
ATOM     11  C   LIG A   1     -10.059   7.250 129.521  0.00  0.00    +0.167 A 
ATOM     12  C   LIG A   1     -11.338   6.824 129.262  0.00  0.00    +0.166 A 
ATOM     13  C   LIG A   1     -11.845   5.685 129.843  0.00  0.00    +0.050 A 
ATOM     14  C   LIG A   1     -11.008   4.963 130.703  0.00  0.00    +0.010 A 
ATOM     15  O   LIG A   1     -12.002   7.651 128.413  0.00  0.00    -0.453 OA
ATOM     16  C   LIG A   1     -10.982   8.632 128.138  0.00  0.00    +0.466 C 
ATOM     17  O   LIG A   1      -9.753   8.399 128.859  0.00  0.00    -0.453 OA
ENDBRANCH   6   9
BRANCH   1  20
ATOM     18  C   LIG A   1      -7.932  -0.206 127.122  0.00  0.00    +0.162 A 
ATOM     19  C   LIG A   1      -8.119   1.034 127.765  0.00  0.00    +0.055 A 
ATOM     20  C   LIG A   1      -8.034   1.169 129.156  0.00  0.00    -0.015 A 
ATOM     21  C   LIG A   1      -7.788   0.013 129.904  0.00  0.00    +0.010 A 
ATOM     22  C   LIG A   1      -7.598  -1.223 129.282  0.00  0.00    +0.050 A 
ATOM     23  C   LIG A   1      -7.665  -1.352 127.888  0.00  0.00    +0.162 A 
BRANCH  18  24
ATOM     24  O   LIG A   1      -8.057  -0.102 125.760  0.00  0.00    -0.491 OA
ATOM     25  C   LIG A   1      -9.219   0.517 125.230  0.00  0.00    +0.277 C 
ENDBRANCH  18  24
BRANCH  23  26
ATOM     26  O   LIG A   1      -7.578  -2.567 127.265  0.00  0.00    -0.484 OA
BRANCH  26  27
ATOM     27  C   LIG A   1      -8.760  -3.363 127.214  0.00  0.00    +0.257 C 
BRANCH  27  28
ATOM     28  C   LIG A   1      -9.385  -3.173 125.863  0.00  0.00    +0.012 C 
ATOM     29  C   LIG A   1      -8.804  -3.398 124.660  0.00  0.00    -0.076 C 
ATOM     30  C   LIG A   1      -7.393  -3.840 124.464  0.00  0.00    +0.038 C 
ATOM     31  C   LIG A   1      -9.572  -3.184 123.380  0.00  0.00    +0.038 C 
ENDBRANCH  27  28
ENDBRANCH  26  27
ENDBRANCH  23  26
ENDBRANCH   1  20
TORSDOF 6
ENDMDL
MODEL 5
REMARK VINA RESULT:      -8.2      5.473      8.277
REMARK  Name = NuBBE_1423
REMARK  9 active torsions:
REMARK  status: ('A' for Active; 'I' for Inactive)
REMARK    1  A    between atoms: O_1  and  C_2
REMARK    2  A    between atoms: O_1  and  C_3
REMARK    3  A    between atoms: C_5  and  C_15
REMARK    4  A    between atoms: C_8  and  O_9
REMARK    5  A    between atoms: O_9  and  C_10
REMARK    6  A    between atoms: C_10  and  C_11
REMARK    7  A    between atoms: C_12  and  C_13
REMARK    8  A    between atoms: C_12  and  C_14
REMARK    9  A    between atoms: C_23  and  C_27
REMARK                            x       y       z     vdW  Elec       q    Type
REMARK                         _______ _______ _______ _____ _____    ______ ____
ROOT
ATOM      1  C   LIG A   1      -8.213   2.258 130.039  0.00  0.00    +0.154 C 
ATOM      2  C   LIG A   1      -8.000   1.958 131.523  0.00  0.00    +0.056 C 
ATOM      3  C   LIG A   1      -7.459   3.264 132.043  0.00  0.00    +0.056 C 
ATOM      4  C   LIG A   1      -6.623   3.740 130.881  0.00  0.00    +0.167 C 
ATOM      5  O   LIG A   1      -7.256   3.276 129.685  0.00  0.00    -0.371 OA
ATOM      6  C   LIG A   1      -8.717   4.036 132.473  0.00  0.00    +0.154 C 
ATOM      7  O   LIG A   1      -9.698   3.018 132.797  0.00  0.00    -0.371 OA
ATOM      8  C   LIG A   1      -9.269   1.742 132.303  0.00  0.00    +0.167 C 
ENDROOT
BRANCH   6   9
ATOM      9  C   LIG A   1      -9.344   5.092 131.571  0.00  0.00    -0.015 A 
ATOM     10  C   LIG A   1     -10.528   4.812 130.862  0.00  0.00    +0.055 A 
ATOM     11  C   LIG A   1     -11.036   5.770 130.005  0.00  0.00    +0.167 A 
ATOM     12  C   LIG A   1     -10.404   6.971 129.800  0.00  0.00    +0.166 A 
ATOM     13  C   LIG A   1      -9.231   7.283 130.446  0.00  0.00    +0.050 A 
ATOM     14  C   LIG A   1      -8.704   6.336 131.334  0.00  0.00    +0.010 A 
ATOM     15  O   LIG A   1     -11.054   7.757 128.902  0.00  0.00    -0.453 OA
ATOM     16  C   LIG A   1     -12.191   6.927 128.590  0.00  0.00    +0.466 C 
ATOM     17  O   LIG A   1     -12.173   5.651 129.266  0.00  0.00    -0.453 OA
ENDBRANCH   6   9
BRANCH   1  20
ATOM     18  C   LIG A   1      -7.410  -1.177 128.458  0.00  0.00    +0.162 A 
ATOM     19  C   LIG A   1      -7.543  -0.142 129.405  0.00  0.00    +0.055 A 
ATOM     20  C   LIG A   1      -8.079   1.108 129.069  0.00  0.00    -0.015 A 
ATOM     21  C   LIG A   1      -8.451   1.314 127.737  0.00  0.00    +0.010 A 
ATOM     22  C   LIG A   1      -8.327   0.298 126.786  0.00  0.00    +0.050 A 
ATOM     23  C   LIG A   1      -7.808  -0.958 127.129  0.00  0.00    +0.162 A 
BRANCH  18  24
ATOM     24  O   LIG A   1      -6.867  -2.310 129.009  0.00  0.00    -0.491 OA
ATOM     25  C   LIG A   1      -7.739  -3.353 129.415  0.00  0.00    +0.277 C 
ENDBRANCH  18  24
BRANCH  23  26
ATOM     26  O   LIG A   1      -7.589  -1.934 126.196  0.00  0.00    -0.484 OA
BRANCH  26  27
ATOM     27  C   LIG A   1      -6.762  -1.602 125.083  0.00  0.00    +0.257 C 
BRANCH  27  28
ATOM     28  C   LIG A   1      -5.833  -2.755 124.839  0.00  0.00    +0.012 C 
ATOM     29  C   LIG A   1      -5.298  -3.131 123.652  0.00  0.00    -0.076 C 
ATOM     30  C   LIG A   1      -5.584  -2.476 122.343  0.00  0.00    +0.038 C 
ATOM     31  C   LIG A   1      -4.354  -4.303 123.567  0.00  0.00    +0.038 C 
ENDBRANCH  27  28
ENDBRANCH  26  27
ENDBRANCH  23  26
ENDBRANCH   1  20
TORSDOF 6
ENDMDL
MODEL 6
REMARK VINA RESULT:      -8.1      4.989      8.489
REMARK  Name = NuBBE_1423
REMARK  9 active torsions:
REMARK  status: ('A' for Active; 'I' for Inactive)
REMARK    1  A    between atoms: O_1  and  C_2
REMARK    2  A    between atoms: O_1  and  C_3
REMARK    3  A    between atoms: C_5  and  C_15
REMARK    4  A    between atoms: C_8  and  O_9
REMARK    5  A    between atoms: O_9  and  C_10
REMARK    6  A    between atoms: C_10  and  C_11
REMARK    7  A    between atoms: C_12  and  C_13
REMARK    8  A    between atoms: C_12  and  C_14
REMARK    9  A    between atoms: C_23  and  C_27
REMARK                            x       y       z     vdW  Elec       q    Type
REMARK                         _______ _______ _______ _____ _____    ______ ____
ROOT
ATOM      1  C   LIG A   1      -7.945   2.660 128.001  0.00  0.00    +0.154 C 
ATOM      2  C   LIG A   1      -7.217   1.931 129.131  0.00  0.00    +0.056 C 
ATOM      3  C   LIG A   1      -6.568   3.064 129.883  0.00  0.00    +0.056 C 
ATOM      4  C   LIG A   1      -6.207   4.012 128.766  0.00  0.00    +0.167 C 
ATOM      5  O   LIG A   1      -7.204   3.871 127.749  0.00  0.00    -0.371 OA
ATOM      6  C   LIG A   1      -7.620   3.455 130.935  0.00  0.00    +0.154 C 
ATOM      7  O   LIG A   1      -8.394   2.250 131.166  0.00  0.00    -0.371 OA
ATOM      8  C   LIG A   1      -8.127   1.285 130.142  0.00  0.00    +0.167 C 
ENDROOT
BRANCH   6   9
ATOM      9  C   LIG A   1      -8.554   4.639 130.717  0.00  0.00    -0.015 A 
ATOM     10  C   LIG A   1      -9.862   4.435 130.234  0.00  0.00    +0.055 A 
ATOM     11  C   LIG A   1     -10.663   5.535 129.989  0.00  0.00    +0.167 A 
ATOM     12  C   LIG A   1     -10.210   6.818 130.170  0.00  0.00    +0.166 A 
ATOM     13  C   LIG A   1      -8.934   7.072 130.613  0.00  0.00    +0.050 A 
ATOM     14  C   LIG A   1      -8.107   5.974 130.886  0.00  0.00    +0.010 A 
ATOM     15  O   LIG A   1     -11.145   7.752 129.849  0.00  0.00    -0.453 OA
ATOM     16  C   LIG A   1     -12.252   6.907 129.476  0.00  0.00    +0.466 C 
ATOM     17  O   LIG A   1     -11.946   5.498 129.536  0.00  0.00    -0.453 OA
ENDBRANCH   6   9
BRANCH   1  20
ATOM     18  C   LIG A   1      -7.609   1.494 124.331  0.00  0.00    +0.162 A 
ATOM     19  C   LIG A   1      -7.387   2.190 125.536  0.00  0.00    +0.055 A 
ATOM     20  C   LIG A   1      -8.124   1.921 126.696  0.00  0.00    -0.015 A 
ATOM     21  C   LIG A   1      -9.128   0.951 126.613  0.00  0.00    +0.010 A 
ATOM     22  C   LIG A   1      -9.360   0.251 125.426  0.00  0.00    +0.050 A 
ATOM     23  C   LIG A   1      -8.608   0.509 124.273  0.00  0.00    +0.162 A 
BRANCH  18  24
ATOM     24  O   LIG A   1      -6.772   1.919 123.330  0.00  0.00    -0.491 OA
ATOM     25  C   LIG A   1      -6.976   3.209 122.777  0.00  0.00    +0.277 C 
ENDBRANCH  18  24
BRANCH  23  26
ATOM     26  O   LIG A   1      -8.881  -0.096 123.076  0.00  0.00    -0.484 OA
BRANCH  26  27
ATOM     27  C   LIG A   1      -8.943  -1.521 123.062  0.00  0.00    +0.257 C 
BRANCH  27  28
ATOM     28  C   LIG A   1      -7.547  -2.043 123.234  0.00  0.00    +0.012 C 
ATOM     29  C   LIG A   1      -7.162  -3.101 123.990  0.00  0.00    -0.076 C 
ATOM     30  C   LIG A   1      -8.076  -3.919 124.839  0.00  0.00    +0.038 C 
ATOM     31  C   LIG A   1      -5.717  -3.525 124.044  0.00  0.00    +0.038 C 
ENDBRANCH  27  28
ENDBRANCH  26  27
ENDBRANCH  23  26
ENDBRANCH   1  20
TORSDOF 6
ENDMDL
MODEL 7
REMARK VINA RESULT:      -8.1      6.196      8.050
REMARK  Name = NuBBE_1423
REMARK  9 active torsions:
REMARK  status: ('A' for Active; 'I' for Inactive)
REMARK    1  A    between atoms: O_1  and  C_2
REMARK    2  A    between atoms: O_1  and  C_3
REMARK    3  A    between atoms: C_5  and  C_15
REMARK    4  A    between atoms: C_8  and  O_9
REMARK    5  A    between atoms: O_9  and  C_10
REMARK    6  A    between atoms: C_10  and  C_11
REMARK    7  A    between atoms: C_12  and  C_13
REMARK    8  A    between atoms: C_12  and  C_14
REMARK    9  A    between atoms: C_23  and  C_27
REMARK                            x       y       z     vdW  Elec       q    Type
REMARK                         _______ _______ _______ _____ _____    ______ ____
ROOT
ATOM      1  C   LIG A   1      -8.183   3.202 131.287  0.00  0.00    +0.154 C 
ATOM      2  C   LIG A   1      -7.336   3.747 132.439  0.00  0.00    +0.056 C 
ATOM      3  C   LIG A   1      -6.952   5.115 131.939  0.00  0.00    +0.056 C 
ATOM      4  C   LIG A   1      -6.779   4.870 130.461  0.00  0.00    +0.167 C 
ATOM      5  O   LIG A   1      -7.708   3.847 130.088  0.00  0.00    -0.371 OA
ATOM      6  C   LIG A   1      -8.079   6.023 132.458  0.00  0.00    +0.154 C 
ATOM      7  O   LIG A   1      -8.586   5.362 133.645  0.00  0.00    -0.371 OA
ATOM      8  C   LIG A   1      -8.106   4.013 133.705  0.00  0.00    +0.167 C 
ENDROOT
BRANCH   6   9
ATOM      9  C   LIG A   1      -9.238   6.438 131.560  0.00  0.00    -0.015 A 
ATOM     10  C   LIG A   1      -9.001   7.192 130.394  0.00  0.00    +0.055 A 
ATOM     11  C   LIG A   1     -10.080   7.604 129.634  0.00  0.00    +0.167 A 
ATOM     12  C   LIG A   1     -11.374   7.329 130.000  0.00  0.00    +0.166 A 
ATOM     13  C   LIG A   1     -11.661   6.620 131.143  0.00  0.00    +0.050 A 
ATOM     14  C   LIG A   1     -10.584   6.175 131.921  0.00  0.00    +0.010 A 
ATOM     15  O   LIG A   1     -12.283   7.844 129.131  0.00  0.00    -0.453 OA
ATOM     16  C   LIG A   1     -11.411   8.448 128.154  0.00  0.00    +0.466 C 
ATOM     17  O   LIG A   1     -10.010   8.323 128.481  0.00  0.00    -0.453 OA
ENDBRANCH   6   9
BRANCH   1  20
ATOM     18  C   LIG A   1      -8.139  -0.623 131.849  0.00  0.00    +0.162 A 
ATOM     19  C   LIG A   1      -8.171   0.763 132.102  0.00  0.00    +0.055 A 
ATOM     20  C   LIG A   1      -8.181   1.707 131.067  0.00  0.00    -0.015 A 
ATOM     21  C   LIG A   1      -8.122   1.228 129.755  0.00  0.00    +0.010 A 
ATOM     22  C   LIG A   1      -8.092  -0.143 129.487  0.00  0.00    +0.050 A 
ATOM     23  C   LIG A   1      -8.101  -1.086 130.524  0.00  0.00    +0.162 A 
BRANCH  18  24
ATOM     24  O   LIG A   1      -8.138  -1.357 133.008  0.00  0.00    -0.491 OA
ATOM     25  C   LIG A   1      -6.895  -1.797 133.532  0.00  0.00    +0.277 C 
ENDBRANCH  18  24
BRANCH  23  26
ATOM     26  O   LIG A   1      -7.975  -2.428 130.288  0.00  0.00    -0.484 OA
BRANCH  26  27
ATOM     27  C   LIG A   1      -7.206  -2.824 129.154  0.00  0.00    +0.257 C 
BRANCH  27  28
ATOM     28  C   LIG A   1      -5.756  -2.751 129.534  0.00  0.00    +0.012 C 
ATOM     29  C   LIG A   1      -5.041  -3.692 130.197  0.00  0.00    -0.076 C 
ATOM     30  C   LIG A   1      -5.597  -4.975 130.717  0.00  0.00    +0.038 C 
ATOM     31  C   LIG A   1      -3.576  -3.487 130.487  0.00  0.00    +0.038 C 
ENDBRANCH  27  28
ENDBRANCH  26  27
ENDBRANCH  23  26
ENDBRANCH   1  20
TORSDOF 6
ENDMDL
MODEL 8
REMARK VINA RESULT:      -8.0      6.153      7.973
REMARK  Name = NuBBE_1423
REMARK  9 active torsions:
REMARK  status: ('A' for Active; 'I' for Inactive)
REMARK    1  A    between atoms: O_1  and  C_2
REMARK    2  A    between atoms: O_1  and  C_3
REMARK    3  A    between atoms: C_5  and  C_15
REMARK    4  A    between atoms: C_8  and  O_9
REMARK    5  A    between atoms: O_9  and  C_10
REMARK    6  A    between atoms: C_10  and  C_11
REMARK    7  A    between atoms: C_12  and  C_13
REMARK    8  A    between atoms: C_12  and  C_14
REMARK    9  A    between atoms: C_23  and  C_27
REMARK                            x       y       z     vdW  Elec       q    Type
REMARK                         _______ _______ _______ _____ _____    ______ ____
ROOT
ATOM      1  C   LIG A   1      -8.047   3.201 131.126  0.00  0.00    +0.154 C 
ATOM      2  C   LIG A   1      -7.245   3.687 132.334  0.00  0.00    +0.056 C 
ATOM      3  C   LIG A   1      -6.906   5.104 131.949  0.00  0.00    +0.056 C 
ATOM      4  C   LIG A   1      -6.696   4.981 130.461  0.00  0.00    +0.167 C 
ATOM      5  O   LIG A   1      -7.576   3.955 129.990  0.00  0.00    -0.371 OA
ATOM      6  C   LIG A   1      -8.078   5.925 132.512  0.00  0.00    +0.154 C 
ATOM      7  O   LIG A   1      -8.580   5.155 133.633  0.00  0.00    -0.371 OA
ATOM      8  C   LIG A   1      -8.048   3.825 133.599  0.00  0.00    +0.167 C 
ENDROOT
BRANCH   6   9
ATOM      9  C   LIG A   1      -9.235   6.364 131.623  0.00  0.00    -0.015 A 
ATOM     10  C   LIG A   1      -8.994   7.135 130.469  0.00  0.00    +0.055 A 
ATOM     11  C   LIG A   1     -10.071   7.568 129.718  0.00  0.00    +0.167 A 
ATOM     12  C   LIG A   1     -11.367   7.297 130.082  0.00  0.00    +0.166 A 
ATOM     13  C   LIG A   1     -11.657   6.572 131.214  0.00  0.00    +0.050 A 
ATOM     14  C   LIG A   1     -10.582   6.106 131.983  0.00  0.00    +0.010 A 
ATOM     15  O   LIG A   1     -12.273   7.835 129.224  0.00  0.00    -0.453 OA
ATOM     16  C   LIG A   1     -11.398   8.447 128.256  0.00  0.00    +0.466 C 
ATOM     17  O   LIG A   1      -9.998   8.306 128.577  0.00  0.00    -0.453 OA
ENDBRANCH   6   9
BRANCH   1  20
ATOM     18  C   LIG A   1      -7.605  -0.155 129.259  0.00  0.00    +0.162 A 
ATOM     19  C   LIG A   1      -7.623   1.226 129.534  0.00  0.00    +0.055 A 
ATOM     20  C   LIG A   1      -7.982   1.729 130.791  0.00  0.00    -0.015 A 
ATOM     21  C   LIG A   1      -8.364   0.807 131.771  0.00  0.00    +0.010 A 
ATOM     22  C   LIG A   1      -8.349  -0.566 131.515  0.00  0.00    +0.050 A 
ATOM     23  C   LIG A   1      -7.972  -1.068 130.263  0.00  0.00    +0.162 A 
BRANCH  18  24
ATOM     24  O   LIG A   1      -7.219  -0.418 127.969  0.00  0.00    -0.491 OA
ATOM     25  C   LIG A   1      -5.834  -0.541 127.687  0.00  0.00    +0.277 C 
ENDBRANCH  18  24
BRANCH  23  26
ATOM     26  O   LIG A   1      -8.042  -2.400 129.960  0.00  0.00    -0.484 OA
BRANCH  26  27
ATOM     27  C   LIG A   1      -7.247  -3.291 130.741  0.00  0.00    +0.257 C 
BRANCH  27  28
ATOM     28  C   LIG A   1      -6.032  -3.648 129.936  0.00  0.00    +0.012 C 
ATOM     29  C   LIG A   1      -4.791  -3.117 130.059  0.00  0.00    -0.076 C 
ATOM     30  C   LIG A   1      -4.421  -2.027 131.008  0.00  0.00    +0.038 C 
ATOM     31  C   LIG A   1      -3.656  -3.598 129.191  0.00  0.00    +0.038 C 
ENDBRANCH  27  28
ENDBRANCH  26  27
ENDBRANCH  23  26
ENDBRANCH   1  20
TORSDOF 6
ENDMDL
MODEL 9
REMARK VINA RESULT:      -7.9      2.353      9.197
REMARK  Name = NuBBE_1423
REMARK  9 active torsions:
REMARK  status: ('A' for Active; 'I' for Inactive)
REMARK    1  A    between atoms: O_1  and  C_2
REMARK    2  A    between atoms: O_1  and  C_3
REMARK    3  A    between atoms: C_5  and  C_15
REMARK    4  A    between atoms: C_8  and  O_9
REMARK    5  A    between atoms: O_9  and  C_10
REMARK    6  A    between atoms: C_10  and  C_11
REMARK    7  A    between atoms: C_12  and  C_13
REMARK    8  A    between atoms: C_12  and  C_14
REMARK    9  A    between atoms: C_23  and  C_27
REMARK                            x       y       z     vdW  Elec       q    Type
REMARK                         _______ _______ _______ _____ _____    ______ ____
ROOT
ATOM      1  C   LIG A   1      -6.952  -2.046 129.996  0.00  0.00    +0.154 C 
ATOM      2  C   LIG A   1      -5.589  -1.352 129.982  0.00  0.00    +0.056 C 
ATOM      3  C   LIG A   1      -5.561  -0.668 131.325  0.00  0.00    +0.056 C 
ATOM      4  C   LIG A   1      -7.004  -0.266 131.501  0.00  0.00    +0.167 C 
ATOM      5  O   LIG A   1      -7.804  -1.260 130.853  0.00  0.00    -0.371 OA
ATOM      6  C   LIG A   1      -4.918  -1.713 132.253  0.00  0.00    +0.154 C 
ATOM      7  O   LIG A   1      -4.087  -2.530 131.390  0.00  0.00    -0.371 OA
ATOM      8  C   LIG A   1      -4.413  -2.290 130.015  0.00  0.00    +0.167 C 
ENDROOT
BRANCH   6   9
ATOM      9  C   LIG A   1      -5.769  -2.604 133.150  0.00  0.00    -0.015 A 
ATOM     10  C   LIG A   1      -6.478  -2.053 134.236  0.00  0.00    +0.055 A 
ATOM     11  C   LIG A   1      -7.190  -2.898 135.066  0.00  0.00    +0.167 A 
ATOM     12  C   LIG A   1      -7.201  -4.258 134.883  0.00  0.00    +0.166 A 
ATOM     13  C   LIG A   1      -6.504  -4.849 133.855  0.00  0.00    +0.050 A 
ATOM     14  C   LIG A   1      -5.788  -4.013 132.988  0.00  0.00    +0.010 A 
ATOM     15  O   LIG A   1      -7.940  -4.906 135.822  0.00  0.00    -0.453 OA
ATOM     16  C   LIG A   1      -8.425  -3.792 136.599  0.00  0.00    +0.466 C 
ATOM     17  O   LIG A   1      -7.931  -2.515 136.141  0.00  0.00    -0.453 OA
ENDBRANCH   6   9
BRANCH   1  20
ATOM     18  C   LIG A   1      -8.450  -1.464 126.480  0.00  0.00    +0.162 A 
ATOM     19  C   LIG A   1      -7.766  -1.245 127.692  0.00  0.00    +0.055 A 
ATOM     20  C   LIG A   1      -7.648  -2.242 128.669  0.00  0.00    -0.015 A 
ATOM     21  C   LIG A   1      -8.270  -3.469 128.418  0.00  0.00    +0.010 A 
ATOM     22  C   LIG A   1      -8.950  -3.702 127.221  0.00  0.00    +0.050 A 
ATOM     23  C   LIG A   1      -9.051  -2.710 126.237  0.00  0.00    +0.162 A 
BRANCH  18  24
ATOM     24  O   LIG A   1      -8.436  -0.354 125.674  0.00  0.00    -0.491 OA
ATOM     25  C   LIG A   1      -9.474   0.602 125.817  0.00  0.00    +0.277 C 
ENDBRANCH  18  24
BRANCH  23  26
ATOM     26  O   LIG A   1      -9.793  -2.884 125.101  0.00  0.00    -0.484 OA
BRANCH  26  27
ATOM     27  C   LIG A   1      -9.092  -3.240 123.910  0.00  0.00    +0.257 C 
BRANCH  27  28
ATOM     28  C   LIG A   1      -7.676  -3.563 124.289  0.00  0.00    +0.012 C 
ATOM     29  C   LIG A   1      -6.553  -2.972 123.814  0.00  0.00    -0.076 C 
ATOM     30  C   LIG A   1      -6.527  -1.905 122.771  0.00  0.00    +0.038 C 
ATOM     31  C   LIG A   1      -5.192  -3.388 124.311  0.00  0.00    +0.038 C 
ENDBRANCH  27  28
ENDBRANCH  26  27
ENDBRANCH  23  26
ENDBRANCH   1  20
TORSDOF 6
ENDMDL
