MODEL 1
REMARK VINA RESULT:      -8.1      0.000      0.000
REMARK  Name = NuBBE_956
REMARK  3 active torsions:
REMARK  status: ('A' for Active; 'I' for Inactive)
REMARK    1  A    between atoms: C_10  and  C_20
REMARK    2  A    between atoms: C_10  and  C_21
REMARK    3  A    between atoms: C_15  and  C_19
REMARK                            x       y       z     vdW  Elec       q    Type
REMARK                         _______ _______ _______ _____ _____    ______ ____
ROOT
ATOM      1  O   LIG A   1      -7.507  -3.164 132.154  0.00  0.00    -0.245 OA
ATOM      2  C   LIG A   1      -7.409  -2.767 130.950  0.00  0.00    +0.337 A 
ATOM      3  O   LIG A   1      -7.595  -1.454 130.562  0.00  0.00    -0.422 OA
ATOM      4  C   LIG A   1      -7.680  -1.176 129.155  0.00  0.00    +0.146 A 
ATOM      5  C   LIG A   1      -7.435   0.130 128.702  0.00  0.00    +0.093 A 
ATOM      6  C   LIG A   1      -7.589   0.367 127.338  0.00  0.00    +0.132 A 
ATOM      7  C   LIG A   1      -8.301  -0.630 126.621  0.00  0.00    +0.040 A 
ATOM      8  C   LIG A   1      -8.295  -1.963 126.963  0.00  0.00    +0.139 A 
ATOM      9  O   LIG A   1      -8.643  -2.872 126.005  0.00  0.00    -0.485 OA
ATOM     10  C   LIG A   1      -8.408  -2.498 124.582  0.00  0.00    +0.108 C 
ATOM     11  C   LIG A   1      -8.691  -0.987 124.181  0.00  0.00    +0.040 C 
ATOM     12  C   LIG A   1      -9.154  -0.239 125.429  0.00  0.00    +0.037 C 
ATOM     13  C   LIG A   1      -8.888   1.225 125.238  0.00  0.00    +0.056 C 
ATOM     14  C   LIG A   1      -7.581   1.953 125.278  0.00  0.00    +0.108 C 
ATOM     15  C   LIG A   1      -7.215   1.435 123.697  0.00  0.00    +0.048 C 
ATOM     16  C   LIG A   1      -7.595  -0.139 123.296  0.00  0.00    +0.012 C 
ATOM     17  O   LIG A   1      -7.002   1.477 126.644  0.00  0.00    -0.485 OA
ATOM     18  C   LIG A   1      -7.765   3.468 125.330  0.00  0.00    +0.056 C 
ATOM     19  C   LIG A   1      -9.423  -3.360 123.799  0.00  0.00    +0.056 C 
ATOM     20  C   LIG A   1      -7.001  -2.977 124.211  0.00  0.00    +0.056 C 
ATOM     21  C   LIG A   1      -7.946  -2.257 128.277  0.00  0.00    +0.060 A 
ATOM     22  C   LIG A   1      -7.832  -3.610 128.844  0.00  0.00    +0.022 A 
ATOM     23  C   LIG A   1      -6.947  -3.665 129.870  0.00  0.00    +0.093 A 
ENDROOT
TORSDOF 0
ENDMDL
MODEL 2
REMARK VINA RESULT:      -7.9      8.399     10.198
REMARK  Name = NuBBE_956
REMARK  3 active torsions:
REMARK  status: ('A' for Active; 'I' for Inactive)
REMARK    1  A    between atoms: C_10  and  C_20
REMARK    2  A    between atoms: C_10  and  C_21
REMARK    3  A    between atoms: C_15  and  C_19
REMARK                            x       y       z     vdW  Elec       q    Type
REMARK                         _______ _______ _______ _____ _____    ______ ____
ROOT
ATOM      1  O   LIG A   1     -12.029   6.858 131.729  0.00  0.00    -0.245 OA
ATOM      2  C   LIG A   1     -10.808   6.513 131.651  0.00  0.00    +0.337 A 
ATOM      3  O   LIG A   1     -10.056   6.118 132.741  0.00  0.00    -0.422 OA
ATOM      4  C   LIG A   1      -8.638   5.972 132.560  0.00  0.00    +0.146 A 
ATOM      5  C   LIG A   1      -7.912   5.182 133.467  0.00  0.00    +0.093 A 
ATOM      6  C   LIG A   1      -6.533   5.120 133.289  0.00  0.00    +0.132 A 
ATOM      7  C   LIG A   1      -5.979   6.118 132.445  0.00  0.00    +0.040 A 
ATOM      8  C   LIG A   1      -6.657   6.682 131.388  0.00  0.00    +0.139 A 
ATOM      9  O   LIG A   1      -5.925   7.293 130.411  0.00  0.00    -0.485 OA
ATOM     10  C   LIG A   1      -4.531   6.816 130.192  0.00  0.00    +0.108 C 
ATOM     11  C   LIG A   1      -3.695   6.428 131.487  0.00  0.00    +0.040 C 
ATOM     12  C   LIG A   1      -4.581   6.642 132.711  0.00  0.00    +0.037 C 
ATOM     13  C   LIG A   1      -4.065   5.790 133.832  0.00  0.00    +0.056 C 
ATOM     14  C   LIG A   1      -4.170   4.306 134.007  0.00  0.00    +0.108 C 
ATOM     15  C   LIG A   1      -2.890   4.061 132.910  0.00  0.00    +0.048 C 
ATOM     16  C   LIG A   1      -2.853   5.016 131.543  0.00  0.00    +0.012 C 
ATOM     17  O   LIG A   1      -5.701   4.080 133.822  0.00  0.00    -0.485 OA
ATOM     18  C   LIG A   1      -3.780   3.862 135.415  0.00  0.00    +0.056 C 
ATOM     19  C   LIG A   1      -3.818   8.030 129.555  0.00  0.00    +0.056 C 
ATOM     20  C   LIG A   1      -4.589   5.702 129.143  0.00  0.00    +0.056 C 
ATOM     21  C   LIG A   1      -8.044   6.586 131.428  0.00  0.00    +0.060 A 
ATOM     22  C   LIG A   1      -8.960   7.077 130.388  0.00  0.00    +0.022 A 
ATOM     23  C   LIG A   1     -10.120   6.375 130.350  0.00  0.00    +0.093 A 
ENDROOT
TORSDOF 0
ENDMDL
MODEL 3
REMARK VINA RESULT:      -7.8      6.294      8.875
REMARK  Name = NuBBE_956
REMARK  3 active torsions:
REMARK  status: ('A' for Active; 'I' for Inactive)
REMARK    1  A    between atoms: C_10  and  C_20
REMARK    2  A    between atoms: C_10  and  C_21
REMARK    3  A    between atoms: C_15  and  C_19
REMARK                            x       y       z     vdW  Elec       q    Type
REMARK                         _______ _______ _______ _____ _____    ______ ____
ROOT
ATOM      1  O   LIG A   1     -11.637   5.469 130.611  0.00  0.00    -0.245 OA
ATOM      2  C   LIG A   1     -10.411   5.617 130.309  0.00  0.00    +0.337 A 
ATOM      3  O   LIG A   1      -9.665   4.655 129.655  0.00  0.00    -0.422 OA
ATOM      4  C   LIG A   1      -8.244   4.848 129.574  0.00  0.00    +0.146 A 
ATOM      5  C   LIG A   1      -7.518   4.165 128.585  0.00  0.00    +0.093 A 
ATOM      6  C   LIG A   1      -6.136   4.335 128.583  0.00  0.00    +0.132 A 
ATOM      7  C   LIG A   1      -5.585   4.889 129.769  0.00  0.00    +0.040 A 
ATOM      8  C   LIG A   1      -6.260   5.775 130.578  0.00  0.00    +0.139 A 
ATOM      9  O   LIG A   1      -5.526   6.554 131.426  0.00  0.00    -0.485 OA
ATOM     10  C   LIG A   1      -4.124   6.870 131.034  0.00  0.00    +0.108 C 
ATOM     11  C   LIG A   1      -3.296   5.707 130.335  0.00  0.00    +0.040 C 
ATOM     12  C   LIG A   1      -4.197   4.480 130.221  0.00  0.00    +0.037 C 
ATOM     13  C   LIG A   1      -3.682   3.607 129.115  0.00  0.00    +0.056 C 
ATOM     14  C   LIG A   1      -3.771   3.819 127.635  0.00  0.00    +0.108 C 
ATOM     15  C   LIG A   1      -2.477   4.925 127.690  0.00  0.00    +0.048 C 
ATOM     16  C   LIG A   1      -2.438   6.002 128.963  0.00  0.00    +0.012 C 
ATOM     17  O   LIG A   1      -5.296   4.075 127.450  0.00  0.00    -0.485 OA
ATOM     18  C   LIG A   1      -3.389   2.567 126.849  0.00  0.00    +0.056 C 
ATOM     19  C   LIG A   1      -3.420   7.166 132.377  0.00  0.00    +0.056 C 
ATOM     20  C   LIG A   1      -4.158   8.169 130.224  0.00  0.00    +0.056 C 
ATOM     21  C   LIG A   1      -7.646   5.778 130.462  0.00  0.00    +0.060 A 
ATOM     22  C   LIG A   1      -8.558   6.670 131.195  0.00  0.00    +0.022 A 
ATOM     23  C   LIG A   1      -9.708   6.901 130.515  0.00  0.00    +0.093 A 
ENDROOT
TORSDOF 0
ENDMDL
MODEL 4
REMARK VINA RESULT:      -7.8      1.884      5.488
REMARK  Name = NuBBE_956
REMARK  3 active torsions:
REMARK  status: ('A' for Active; 'I' for Inactive)
REMARK    1  A    between atoms: C_10  and  C_20
REMARK    2  A    between atoms: C_10  and  C_21
REMARK    3  A    between atoms: C_15  and  C_19
REMARK                            x       y       z     vdW  Elec       q    Type
REMARK                         _______ _______ _______ _____ _____    ______ ____
ROOT
ATOM      1  O   LIG A   1      -6.445   5.626 125.473  0.00  0.00    -0.245 OA
ATOM      2  C   LIG A   1      -6.800   4.406 125.419  0.00  0.00    +0.337 A 
ATOM      3  O   LIG A   1      -6.760   3.552 126.505  0.00  0.00    -0.422 OA
ATOM      4  C   LIG A   1      -6.970   2.150 126.265  0.00  0.00    +0.146 A 
ATOM      5  C   LIG A   1      -7.364   1.327 127.331  0.00  0.00    +0.093 A 
ATOM      6  C   LIG A   1      -7.496  -0.033 127.066  0.00  0.00    +0.132 A 
ATOM      7  C   LIG A   1      -6.891  -0.484 125.863  0.00  0.00    +0.040 A 
ATOM      8  C   LIG A   1      -6.764   0.299 124.737  0.00  0.00    +0.139 A 
ATOM      9  O   LIG A   1      -6.568  -0.328 123.541  0.00  0.00    -0.485 OA
ATOM     10  C   LIG A   1      -7.100  -1.712 123.392  0.00  0.00    +0.108 C 
ATOM     11  C   LIG A   1      -6.976  -2.667 124.656  0.00  0.00    +0.040 C 
ATOM     12  C   LIG A   1      -6.313  -1.883 125.785  0.00  0.00    +0.037 C 
ATOM     13  C   LIG A   1      -6.683  -2.518 127.093  0.00  0.00    +0.056 C 
ATOM     14  C   LIG A   1      -7.991  -2.471 127.820  0.00  0.00    +0.108 C 
ATOM     15  C   LIG A   1      -8.637  -3.660 126.785  0.00  0.00    +0.048 C 
ATOM     16  C   LIG A   1      -8.267  -3.551 125.162  0.00  0.00    +0.012 C 
ATOM     17  O   LIG A   1      -8.262  -0.938 127.873  0.00  0.00    -0.485 OA
ATOM     18  C   LIG A   1      -7.875  -2.994 129.250  0.00  0.00    +0.056 C 
ATOM     19  C   LIG A   1      -6.218  -2.331 122.284  0.00  0.00    +0.056 C 
ATOM     20  C   LIG A   1      -8.526  -1.597 122.847  0.00  0.00    +0.056 C 
ATOM     21  C   LIG A   1      -6.830   1.674 124.936  0.00  0.00    +0.060 A 
ATOM     22  C   LIG A   1      -6.762   2.691 123.875  0.00  0.00    +0.022 A 
ATOM     23  C   LIG A   1      -7.421   3.828 124.208  0.00  0.00    +0.093 A 
ENDROOT
TORSDOF 0
ENDMDL
MODEL 5
REMARK VINA RESULT:      -7.7      3.819      7.234
REMARK  Name = NuBBE_956
REMARK  3 active torsions:
REMARK  status: ('A' for Active; 'I' for Inactive)
REMARK    1  A    between atoms: C_10  and  C_20
REMARK    2  A    between atoms: C_10  and  C_21
REMARK    3  A    between atoms: C_15  and  C_19
REMARK                            x       y       z     vdW  Elec       q    Type
REMARK                         _______ _______ _______ _____ _____    ______ ____
ROOT
ATOM      1  O   LIG A   1      -4.874   5.343 119.462  0.00  0.00    -0.245 OA
ATOM      2  C   LIG A   1      -5.479   4.847 120.464  0.00  0.00    +0.337 A 
ATOM      3  O   LIG A   1      -5.016   4.948 121.762  0.00  0.00    -0.422 OA
ATOM      4  C   LIG A   1      -5.666   4.157 122.770  0.00  0.00    +0.146 A 
ATOM      5  C   LIG A   1      -5.539   4.531 124.118  0.00  0.00    +0.093 A 
ATOM      6  C   LIG A   1      -6.134   3.702 125.064  0.00  0.00    +0.132 A 
ATOM      7  C   LIG A   1      -6.497   2.409 124.603  0.00  0.00    +0.040 A 
ATOM      8  C   LIG A   1      -6.873   2.142 123.306  0.00  0.00    +0.139 A 
ATOM      9  O   LIG A   1      -7.589   1.005 123.067  0.00  0.00    -0.485 OA
ATOM     10  C   LIG A   1      -8.426   0.472 124.178  0.00  0.00    +0.108 C 
ATOM     11  C   LIG A   1      -7.818   0.565 125.643  0.00  0.00    +0.040 C 
ATOM     12  C   LIG A   1      -6.446   1.226 125.551  0.00  0.00    +0.037 C 
ATOM     13  C   LIG A   1      -6.110   1.825 126.884  0.00  0.00    +0.056 C 
ATOM     14  C   LIG A   1      -6.669   3.058 127.525  0.00  0.00    +0.108 C 
ATOM     15  C   LIG A   1      -8.073   2.211 127.989  0.00  0.00    +0.048 C 
ATOM     16  C   LIG A   1      -8.726   1.141 126.888  0.00  0.00    +0.012 C 
ATOM     17  O   LIG A   1      -6.466   4.113 126.397  0.00  0.00    -0.485 OA
ATOM     18  C   LIG A   1      -5.861   3.490 128.747  0.00  0.00    +0.056 C 
ATOM     19  C   LIG A   1      -8.562  -1.033 123.852  0.00  0.00    +0.056 C 
ATOM     20  C   LIG A   1      -9.813   1.107 124.049  0.00  0.00    +0.056 C 
ATOM     21  C   LIG A   1      -6.465   3.065 122.347  0.00  0.00    +0.060 A 
ATOM     22  C   LIG A   1      -6.791   3.002 120.915  0.00  0.00    +0.022 A 
ATOM     23  C   LIG A   1      -6.817   4.229 120.338  0.00  0.00    +0.093 A 
ENDROOT
TORSDOF 0
ENDMDL
MODEL 6
REMARK VINA RESULT:      -7.5      6.069      9.404
REMARK  Name = NuBBE_956
REMARK  3 active torsions:
REMARK  status: ('A' for Active; 'I' for Inactive)
REMARK    1  A    between atoms: C_10  and  C_20
REMARK    2  A    between atoms: C_10  and  C_21
REMARK    3  A    between atoms: C_15  and  C_19
REMARK                            x       y       z     vdW  Elec       q    Type
REMARK                         _______ _______ _______ _____ _____    ______ ____
ROOT
ATOM      1  O   LIG A   1     -13.311   6.990 129.167  0.00  0.00    -0.245 OA
ATOM      2  C   LIG A   1     -12.258   6.462 129.644  0.00  0.00    +0.337 A 
ATOM      3  O   LIG A   1     -11.988   5.108 129.581  0.00  0.00    -0.422 OA
ATOM      4  C   LIG A   1     -10.882   4.608 130.351  0.00  0.00    +0.146 A 
ATOM      5  C   LIG A   1     -10.309   3.375 129.999  0.00  0.00    +0.093 A 
ATOM      6  C   LIG A   1      -9.281   2.901 130.809  0.00  0.00    +0.132 A 
ATOM      7  C   LIG A   1      -9.161   3.529 132.077  0.00  0.00    +0.040 A 
ATOM      8  C   LIG A   1      -9.500   4.843 132.309  0.00  0.00    +0.139 A 
ATOM      9  O   LIG A   1      -8.969   5.456 133.407  0.00  0.00    -0.485 OA
ATOM     10  C   LIG A   1      -7.659   4.956 133.911  0.00  0.00    +0.108 C 
ATOM     11  C   LIG A   1      -7.426   3.385 133.865  0.00  0.00    +0.040 C 
ATOM     12  C   LIG A   1      -8.672   2.733 133.271  0.00  0.00    +0.037 C 
ATOM     13  C   LIG A   1      -8.292   1.397 132.706  0.00  0.00    +0.056 C 
ATOM     14  C   LIG A   1      -7.528   1.093 131.454  0.00  0.00    +0.108 C 
ATOM     15  C   LIG A   1      -6.057   1.449 132.236  0.00  0.00    +0.048 C 
ATOM     16  C   LIG A   1      -6.028   2.766 133.259  0.00  0.00    +0.012 C 
ATOM     17  O   LIG A   1      -8.323   1.916 130.397  0.00  0.00    -0.485 OA
ATOM     18  C   LIG A   1      -7.605  -0.386 131.077  0.00  0.00    +0.056 C 
ATOM     19  C   LIG A   1      -7.656   5.359 135.403  0.00  0.00    +0.056 C 
ATOM     20  C   LIG A   1      -6.562   5.759 133.206  0.00  0.00    +0.056 C 
ATOM     21  C   LIG A   1     -10.377   5.420 131.397  0.00  0.00    +0.060 A 
ATOM     22  C   LIG A   1     -10.836   6.818 131.427  0.00  0.00    +0.022 A 
ATOM     23  C   LIG A   1     -11.156   7.281 130.193  0.00  0.00    +0.093 A 
ENDROOT
TORSDOF 0
ENDMDL
MODEL 7
REMARK VINA RESULT:      -7.3      3.444      7.215
REMARK  Name = NuBBE_956
REMARK  3 active torsions:
REMARK  status: ('A' for Active; 'I' for Inactive)
REMARK    1  A    between atoms: C_10  and  C_20
REMARK    2  A    between atoms: C_10  and  C_21
REMARK    3  A    between atoms: C_15  and  C_19
REMARK                            x       y       z     vdW  Elec       q    Type
REMARK                         _______ _______ _______ _____ _____    ______ ____
ROOT
ATOM      1  O   LIG A   1      -7.197   4.056 119.585  0.00  0.00    -0.245 OA
ATOM      2  C   LIG A   1      -7.128   3.875 120.842  0.00  0.00    +0.337 A 
ATOM      3  O   LIG A   1      -6.030   4.226 121.604  0.00  0.00    -0.422 OA
ATOM      4  C   LIG A   1      -5.984   3.766 122.965  0.00  0.00    +0.146 A 
ATOM      5  C   LIG A   1      -5.149   4.428 123.880  0.00  0.00    +0.093 A 
ATOM      6  C   LIG A   1      -5.089   3.911 125.171  0.00  0.00    +0.132 A 
ATOM      7  C   LIG A   1      -5.595   2.594 125.327  0.00  0.00    +0.040 A 
ATOM      8  C   LIG A   1      -6.614   2.075 124.560  0.00  0.00    +0.139 A 
ATOM      9  O   LIG A   1      -7.296   0.998 125.046  0.00  0.00    -0.485 OA
ATOM     10  C   LIG A   1      -7.360   0.832 126.526  0.00  0.00    +0.108 C 
ATOM     11  C   LIG A   1      -6.049   1.197 127.345  0.00  0.00    +0.040 C 
ATOM     12  C   LIG A   1      -4.983   1.666 126.359  0.00  0.00    +0.037 C 
ATOM     13  C   LIG A   1      -3.991   2.520 127.093  0.00  0.00    +0.056 C 
ATOM     14  C   LIG A   1      -4.152   3.921 127.596  0.00  0.00    +0.108 C 
ATOM     15  C   LIG A   1      -5.032   3.363 128.944  0.00  0.00    +0.048 C 
ATOM     16  C   LIG A   1      -6.140   2.143 128.688  0.00  0.00    +0.012 C 
ATOM     17  O   LIG A   1      -4.647   4.656 126.315  0.00  0.00    -0.485 OA
ATOM     18  C   LIG A   1      -2.821   4.536 128.026  0.00  0.00    +0.056 C 
ATOM     19  C   LIG A   1      -7.593  -0.683 126.720  0.00  0.00    +0.056 C 
ATOM     20  C   LIG A   1      -8.612   1.566 127.014  0.00  0.00    +0.056 C 
ATOM     21  C   LIG A   1      -6.839   2.699 123.337  0.00  0.00    +0.060 A 
ATOM     22  C   LIG A   1      -7.899   2.340 122.383  0.00  0.00    +0.022 A 
ATOM     23  C   LIG A   1      -8.287   3.394 121.624  0.00  0.00    +0.093 A 
ENDROOT
TORSDOF 0
ENDMDL
MODEL 8
REMARK VINA RESULT:      -7.3      1.823      4.290
REMARK  Name = NuBBE_956
REMARK  3 active torsions:
REMARK  status: ('A' for Active; 'I' for Inactive)
REMARK    1  A    between atoms: C_10  and  C_20
REMARK    2  A    between atoms: C_10  and  C_21
REMARK    3  A    between atoms: C_15  and  C_19
REMARK                            x       y       z     vdW  Elec       q    Type
REMARK                         _______ _______ _______ _____ _____    ______ ____
ROOT
ATOM      1  O   LIG A   1      -7.545   2.126 131.515  0.00  0.00    -0.245 OA
ATOM      2  C   LIG A   1      -7.892   1.673 130.378  0.00  0.00    +0.337 A 
ATOM      3  O   LIG A   1      -7.509   0.434 129.901  0.00  0.00    -0.422 OA
ATOM      4  C   LIG A   1      -7.776   0.134 128.522  0.00  0.00    +0.146 A 
ATOM      5  C   LIG A   1      -7.811  -1.208 128.110  0.00  0.00    +0.093 A 
ATOM      6  C   LIG A   1      -8.012  -1.450 126.754  0.00  0.00    +0.132 A 
ATOM      7  C   LIG A   1      -7.815  -0.334 125.898  0.00  0.00    +0.040 A 
ATOM      8  C   LIG A   1      -8.051   0.967 126.279  0.00  0.00    +0.139 A 
ATOM      9  O   LIG A   1      -8.239   1.897 125.297  0.00  0.00    -0.485 OA
ATOM     10  C   LIG A   1      -8.783   1.424 123.993  0.00  0.00    +0.108 C 
ATOM     11  C   LIG A   1      -8.264   0.017 123.468  0.00  0.00    +0.040 C 
ATOM     12  C   LIG A   1      -7.283  -0.544 124.494  0.00  0.00    +0.037 C 
ATOM     13  C   LIG A   1      -7.220  -2.034 124.332  0.00  0.00    +0.056 C 
ATOM     14  C   LIG A   1      -8.233  -3.063 124.728  0.00  0.00    +0.108 C 
ATOM     15  C   LIG A   1      -9.166  -2.712 123.346  0.00  0.00    +0.048 C 
ATOM     16  C   LIG A   1      -9.325  -1.109 122.912  0.00  0.00    +0.012 C 
ATOM     17  O   LIG A   1      -8.482  -2.696 126.221  0.00  0.00    -0.485 OA
ATOM     18  C   LIG A   1      -7.670  -4.482 124.663  0.00  0.00    +0.056 C 
ATOM     19  C   LIG A   1      -8.291   2.482 122.979  0.00  0.00    +0.056 C 
ATOM     20  C   LIG A   1     -10.309   1.523 124.072  0.00  0.00    +0.056 C 
ATOM     21  C   LIG A   1      -8.059   1.214 127.648  0.00  0.00    +0.060 A 
ATOM     22  C   LIG A   1      -8.333   2.515 128.275  0.00  0.00    +0.022 A 
ATOM     23  C   LIG A   1      -8.860   2.387 129.518  0.00  0.00    +0.093 A 
ENDROOT
TORSDOF 0
ENDMDL
MODEL 9
REMARK VINA RESULT:      -7.2      3.882      7.248
REMARK  Name = NuBBE_956
REMARK  3 active torsions:
REMARK  status: ('A' for Active; 'I' for Inactive)
REMARK    1  A    between atoms: C_10  and  C_20
REMARK    2  A    between atoms: C_10  and  C_21
REMARK    3  A    between atoms: C_15  and  C_19
REMARK                            x       y       z     vdW  Elec       q    Type
REMARK                         _______ _______ _______ _____ _____    ______ ____
ROOT
ATOM      1  O   LIG A   1      -8.675   2.901 122.176  0.00  0.00    -0.245 OA
ATOM      2  C   LIG A   1      -8.134   3.033 123.319  0.00  0.00    +0.337 A 
ATOM      3  O   LIG A   1      -7.074   3.885 123.567  0.00  0.00    -0.422 OA
ATOM      4  C   LIG A   1      -6.409   3.777 124.837  0.00  0.00    +0.146 A 
ATOM      5  C   LIG A   1      -5.648   4.861 125.301  0.00  0.00    +0.093 A 
ATOM      6  C   LIG A   1      -4.972   4.690 126.507  0.00  0.00    +0.132 A 
ATOM      7  C   LIG A   1      -4.845   3.347 126.951  0.00  0.00    +0.040 A 
ATOM      8  C   LIG A   1      -5.772   2.366 126.682  0.00  0.00    +0.139 A 
ATOM      9  O   LIG A   1      -5.782   1.259 127.479  0.00  0.00    -0.485 OA
ATOM     10  C   LIG A   1      -5.288   1.410 128.876  0.00  0.00    +0.108 C 
ATOM     11  C   LIG A   1      -4.032   2.358 129.094  0.00  0.00    +0.040 C 
ATOM     12  C   LIG A   1      -3.619   2.925 127.738  0.00  0.00    +0.037 C 
ATOM     13  C   LIG A   1      -2.856   4.197 127.960  0.00  0.00    +0.056 C 
ATOM     14  C   LIG A   1      -3.374   5.540 128.372  0.00  0.00    +0.108 C 
ATOM     15  C   LIG A   1      -3.473   5.033 129.995  0.00  0.00    +0.048 C 
ATOM     16  C   LIG A   1      -4.038   3.491 130.287  0.00  0.00    +0.012 C 
ATOM     17  O   LIG A   1      -4.505   5.770 127.327  0.00  0.00    -0.485 OA
ATOM     18  C   LIG A   1      -2.326   6.639 128.203  0.00  0.00    +0.056 C 
ATOM     19  C   LIG A   1      -4.836  -0.015 129.268  0.00  0.00    +0.056 C 
ATOM     20  C   LIG A   1      -6.491   1.777 129.749  0.00  0.00    +0.056 C 
ATOM     21  C   LIG A   1      -6.610   2.596 125.595  0.00  0.00    +0.060 A 
ATOM     22  C   LIG A   1      -7.696   1.707 125.156  0.00  0.00    +0.022 A 
ATOM     23  C   LIG A   1      -8.689   2.380 124.524  0.00  0.00    +0.093 A 
ENDROOT
TORSDOF 0
ENDMDL
