MODEL 1
REMARK VINA RESULT:      -7.7      0.000      0.000
REMARK  Name = NuBBE_1492
REMARK  6 active torsions:
REMARK  status: ('A' for Active; 'I' for Inactive)
REMARK    1  A    between atoms: O_1  and  C_2
REMARK    2  A    between atoms: O_1  and  C_3
REMARK    3  A    between atoms: C_5  and  C_11
REMARK    4  A    between atoms: C_8  and  O_9
REMARK    5  A    between atoms: O_9  and  C_10
REMARK    6  A    between atoms: C_19  and  C_23
REMARK                            x       y       z     vdW  Elec       q    Type
REMARK                         _______ _______ _______ _____ _____    ______ ____
ROOT
ATOM      1  C   LIG A   1      -7.296  -2.146 127.084  0.00  0.00    +0.154 C 
ATOM      2  C   LIG A   1      -8.025  -3.173 126.209  0.00  0.00    +0.056 C 
ATOM      3  C   LIG A   1      -7.431  -2.978 124.837  0.00  0.00    +0.056 C 
ATOM      4  C   LIG A   1      -6.029  -2.534 125.147  0.00  0.00    +0.167 C 
ATOM      5  O   LIG A   1      -6.107  -1.764 126.346  0.00  0.00    -0.371 OA
ATOM      6  C   LIG A   1      -8.398  -2.016 124.142  0.00  0.00    +0.154 C 
ATOM      7  O   LIG A   1      -9.680  -2.243 124.759  0.00  0.00    -0.371 OA
ATOM      8  C   LIG A   1      -9.500  -2.904 126.018  0.00  0.00    +0.167 C 
ENDROOT
BRANCH   6   9
ATOM      9  C   LIG A   1      -8.092  -0.526 124.115  0.00  0.00    -0.015 A 
ATOM     10  C   LIG A   1      -8.752   0.375 124.973  0.00  0.00    +0.055 A 
ATOM     11  C   LIG A   1      -8.431   1.717 124.892  0.00  0.00    +0.167 A 
ATOM     12  C   LIG A   1      -7.518   2.191 123.993  0.00  0.00    +0.166 A 
ATOM     13  C   LIG A   1      -6.860   1.351 123.115  0.00  0.00    +0.050 A 
ATOM     14  C   LIG A   1      -7.154  -0.018 123.188  0.00  0.00    +0.010 A 
ATOM     15  O   LIG A   1      -7.362   3.539 124.070  0.00  0.00    -0.453 OA
ATOM     16  C   LIG A   1      -8.279   3.852 125.138  0.00  0.00    +0.466 C 
ATOM     17  O   LIG A   1      -8.970   2.701 125.662  0.00  0.00    -0.453 OA
ENDBRANCH   6   9
BRANCH   1  20
ATOM     18  C   LIG A   1      -5.249  -3.273 130.171  0.00  0.00    +0.162 A 
ATOM     19  C   LIG A   1      -5.568  -2.869 128.859  0.00  0.00    +0.055 A 
ATOM     20  C   LIG A   1      -6.893  -2.589 128.482  0.00  0.00    -0.015 A 
ATOM     21  C   LIG A   1      -7.898  -2.799 129.438  0.00  0.00    +0.010 A 
ATOM     22  C   LIG A   1      -7.599  -3.231 130.731  0.00  0.00    +0.050 A 
ATOM     23  C   LIG A   1      -6.278  -3.476 131.105  0.00  0.00    +0.162 A 
BRANCH  18  24
ATOM     24  O   LIG A   1      -3.905  -3.481 130.385  0.00  0.00    -0.491 OA
ATOM     25  C   LIG A   1      -3.093  -3.629 129.222  0.00  0.00    +0.277 C 
ENDBRANCH  18  24
BRANCH  23  26
ATOM     26  O   LIG A   1      -5.951  -3.853 132.377  0.00  0.00    -0.491 OA
ATOM     27  C   LIG A   1      -6.880  -3.539 133.404  0.00  0.00    +0.277 C 
ENDBRANCH  23  26
ENDBRANCH   1  20
TORSDOF 4
ENDMDL
MODEL 2
REMARK VINA RESULT:      -7.6      7.653     11.288
REMARK  Name = NuBBE_1492
REMARK  6 active torsions:
REMARK  status: ('A' for Active; 'I' for Inactive)
REMARK    1  A    between atoms: O_1  and  C_2
REMARK    2  A    between atoms: O_1  and  C_3
REMARK    3  A    between atoms: C_5  and  C_11
REMARK    4  A    between atoms: C_8  and  O_9
REMARK    5  A    between atoms: O_9  and  C_10
REMARK    6  A    between atoms: C_19  and  C_23
REMARK                            x       y       z     vdW  Elec       q    Type
REMARK                         _______ _______ _______ _____ _____    ______ ____
ROOT
ATOM      1  C   LIG A   1      -9.184   5.984 131.169  0.00  0.00    +0.154 C 
ATOM      2  C   LIG A   1      -9.379   4.470 131.322  0.00  0.00    +0.056 C 
ATOM      3  C   LIG A   1      -8.863   4.169 132.707  0.00  0.00    +0.056 C 
ATOM      4  C   LIG A   1      -9.165   5.440 133.452  0.00  0.00    +0.167 C 
ATOM      5  O   LIG A   1      -9.011   6.502 132.512  0.00  0.00    -0.371 OA
ATOM      6  C   LIG A   1      -7.409   3.745 132.482  0.00  0.00    +0.154 C 
ATOM      7  O   LIG A   1      -7.368   3.190 131.154  0.00  0.00    -0.371 OA
ATOM      8  C   LIG A   1      -8.514   3.629 130.412  0.00  0.00    +0.167 C 
ENDROOT
BRANCH   6   9
ATOM      9  C   LIG A   1      -6.291   4.762 132.655  0.00  0.00    -0.015 A 
ATOM     10  C   LIG A   1      -5.716   5.416 131.548  0.00  0.00    +0.055 A 
ATOM     11  C   LIG A   1      -4.699   6.324 131.775  0.00  0.00    +0.167 A 
ATOM     12  C   LIG A   1      -4.224   6.582 133.029  0.00  0.00    +0.166 A 
ATOM     13  C   LIG A   1      -4.739   5.950 134.145  0.00  0.00    +0.050 A 
ATOM     14  C   LIG A   1      -5.784   5.037 133.945  0.00  0.00    +0.010 A 
ATOM     15  O   LIG A   1      -3.215   7.493 133.028  0.00  0.00    -0.453 OA
ATOM     16  C   LIG A   1      -3.125   7.788 131.618  0.00  0.00    +0.466 C 
ATOM     17  O   LIG A   1      -4.059   7.043 130.812  0.00  0.00    -0.453 OA
ENDBRANCH   6   9
BRANCH   1  20
ATOM     18  C   LIG A   1     -11.208   8.091 128.627  0.00  0.00    +0.162 A 
ATOM     19  C   LIG A   1     -10.143   7.387 129.228  0.00  0.00    +0.055 A 
ATOM     20  C   LIG A   1     -10.295   6.758 130.475  0.00  0.00    -0.015 A 
ATOM     21  C   LIG A   1     -11.520   6.919 131.139  0.00  0.00    +0.010 A 
ATOM     22  C   LIG A   1     -12.570   7.641 130.571  0.00  0.00    +0.050 A 
ATOM     23  C   LIG A   1     -12.422   8.235 129.318  0.00  0.00    +0.162 A 
BRANCH  18  24
ATOM     24  O   LIG A   1     -10.906   8.624 127.395  0.00  0.00    -0.491 OA
ATOM     25  C   LIG A   1     -10.967   7.731 126.284  0.00  0.00    +0.277 C 
ENDBRANCH  18  24
BRANCH  23  26
ATOM     26  O   LIG A   1     -13.449   8.906 128.716  0.00  0.00    -0.491 OA
ATOM     27  C   LIG A   1     -13.572  10.291 129.003  0.00  0.00    +0.277 C 
ENDBRANCH  23  26
ENDBRANCH   1  20
TORSDOF 4
ENDMDL
MODEL 3
REMARK VINA RESULT:      -7.5      6.520     10.821
REMARK  Name = NuBBE_1492
REMARK  6 active torsions:
REMARK  status: ('A' for Active; 'I' for Inactive)
REMARK    1  A    between atoms: O_1  and  C_2
REMARK    2  A    between atoms: O_1  and  C_3
REMARK    3  A    between atoms: C_5  and  C_11
REMARK    4  A    between atoms: C_8  and  O_9
REMARK    5  A    between atoms: O_9  and  C_10
REMARK    6  A    between atoms: C_19  and  C_23
REMARK                            x       y       z     vdW  Elec       q    Type
REMARK                         _______ _______ _______ _____ _____    ______ ____
ROOT
ATOM      1  C   LIG A   1      -9.472   5.593 131.190  0.00  0.00    +0.154 C 
ATOM      2  C   LIG A   1      -8.498   6.178 132.220  0.00  0.00    +0.056 C 
ATOM      3  C   LIG A   1      -7.178   5.527 131.890  0.00  0.00    +0.056 C 
ATOM      4  C   LIG A   1      -7.278   5.317 130.404  0.00  0.00    +0.167 C 
ATOM      5  O   LIG A   1      -8.651   5.040 130.130  0.00  0.00    -0.371 OA
ATOM      6  C   LIG A   1      -7.110   4.318 132.827  0.00  0.00    +0.154 C 
ATOM      7  O   LIG A   1      -7.897   4.677 133.979  0.00  0.00    -0.371 OA
ATOM      8  C   LIG A   1      -8.769   5.766 133.648  0.00  0.00    +0.167 C 
ENDROOT
BRANCH   6   9
ATOM      9  C   LIG A   1      -7.527   2.945 132.320  0.00  0.00    -0.015 A 
ATOM     10  C   LIG A   1      -6.654   2.149 131.554  0.00  0.00    +0.055 A 
ATOM     11  C   LIG A   1      -7.098   0.915 131.120  0.00  0.00    +0.167 A 
ATOM     12  C   LIG A   1      -8.359   0.462 131.390  0.00  0.00    +0.166 A 
ATOM     13  C   LIG A   1      -9.260   1.215 132.118  0.00  0.00    +0.050 A 
ATOM     14  C   LIG A   1      -8.829   2.464 132.586  0.00  0.00    +0.010 A 
ATOM     15  O   LIG A   1      -8.596  -0.767 130.859  0.00  0.00    -0.453 OA
ATOM     16  C   LIG A   1      -7.324  -1.037 130.236  0.00  0.00    +0.466 C 
ATOM     17  O   LIG A   1      -6.367   0.030 130.389  0.00  0.00    -0.453 OA
ENDBRANCH   6   9
BRANCH   1  20
ATOM     18  C   LIG A   1     -11.291   8.075 128.839  0.00  0.00    +0.162 A 
ATOM     19  C   LIG A   1     -10.310   7.205 129.357  0.00  0.00    +0.055 A 
ATOM     20  C   LIG A   1     -10.493   6.545 130.584  0.00  0.00    -0.015 A 
ATOM     21  C   LIG A   1     -11.653   6.842 131.315  0.00  0.00    +0.010 A 
ATOM     22  C   LIG A   1     -12.616   7.727 130.829  0.00  0.00    +0.050 A 
ATOM     23  C   LIG A   1     -12.442   8.353 129.594  0.00  0.00    +0.162 A 
BRANCH  18  24
ATOM     24  O   LIG A   1     -10.972   8.619 127.616  0.00  0.00    -0.491 OA
ATOM     25  C   LIG A   1     -10.943   7.718 126.509  0.00  0.00    +0.277 C 
ENDBRANCH  18  24
BRANCH  23  26
ATOM     26  O   LIG A   1     -13.390   9.187 129.072  0.00  0.00    -0.491 OA
ATOM     27  C   LIG A   1     -13.389  10.532 129.526  0.00  0.00    +0.277 C 
ENDBRANCH  23  26
ENDBRANCH   1  20
TORSDOF 4
ENDMDL
MODEL 4
REMARK VINA RESULT:      -7.5      1.507      2.480
REMARK  Name = NuBBE_1492
REMARK  6 active torsions:
REMARK  status: ('A' for Active; 'I' for Inactive)
REMARK    1  A    between atoms: O_1  and  C_2
REMARK    2  A    between atoms: O_1  and  C_3
REMARK    3  A    between atoms: C_5  and  C_11
REMARK    4  A    between atoms: C_8  and  O_9
REMARK    5  A    between atoms: O_9  and  C_10
REMARK    6  A    between atoms: C_19  and  C_23
REMARK                            x       y       z     vdW  Elec       q    Type
REMARK                         _______ _______ _______ _____ _____    ______ ____
ROOT
ATOM      1  C   LIG A   1      -7.863  -1.846 127.512  0.00  0.00    +0.154 C 
ATOM      2  C   LIG A   1      -8.219  -3.068 126.656  0.00  0.00    +0.056 C 
ATOM      3  C   LIG A   1      -7.457  -2.853 125.372  0.00  0.00    +0.056 C 
ATOM      4  C   LIG A   1      -6.241  -2.099 125.835  0.00  0.00    +0.167 C 
ATOM      5  O   LIG A   1      -6.668  -1.276 126.919  0.00  0.00    -0.371 OA
ATOM      6  C   LIG A   1      -8.467  -2.173 124.444  0.00  0.00    +0.154 C 
ATOM      7  O   LIG A   1      -9.762  -2.621 124.887  0.00  0.00    -0.371 OA
ATOM      8  C   LIG A   1      -9.665  -3.133 126.223  0.00  0.00    +0.167 C 
ENDROOT
BRANCH   6   9
ATOM      9  C   LIG A   1      -8.463  -0.658 124.303  0.00  0.00    -0.015 A 
ATOM     10  C   LIG A   1      -7.529  -0.001 123.479  0.00  0.00    +0.055 A 
ATOM     11  C   LIG A   1      -7.576   1.378 123.401  0.00  0.00    +0.167 A 
ATOM     12  C   LIG A   1      -8.478   2.114 124.114  0.00  0.00    +0.166 A 
ATOM     13  C   LIG A   1      -9.400   1.518 124.953  0.00  0.00    +0.050 A 
ATOM     14  C   LIG A   1      -9.387   0.119 125.038  0.00  0.00    +0.010 A 
ATOM     15  O   LIG A   1      -8.344   3.451 123.903  0.00  0.00    -0.453 OA
ATOM     16  C   LIG A   1      -7.254   3.463 122.958  0.00  0.00    +0.466 C 
ATOM     17  O   LIG A   1      -6.753   2.149 122.638  0.00  0.00    -0.453 OA
ENDBRANCH   6   9
BRANCH   1  20
ATOM     18  C   LIG A   1      -7.600  -1.398 131.349  0.00  0.00    +0.162 A 
ATOM     19  C   LIG A   1      -7.842  -1.120 129.988  0.00  0.00    +0.055 A 
ATOM     20  C   LIG A   1      -7.617  -2.088 128.994  0.00  0.00    -0.015 A 
ATOM     21  C   LIG A   1      -7.070  -3.316 129.395  0.00  0.00    +0.010 A 
ATOM     22  C   LIG A   1      -6.796  -3.591 130.735  0.00  0.00    +0.050 A 
ATOM     23  C   LIG A   1      -7.052  -2.637 131.719  0.00  0.00    +0.162 A 
BRANCH  18  24
ATOM     24  O   LIG A   1      -7.897  -0.356 132.198  0.00  0.00    -0.491 OA
ATOM     25  C   LIG A   1      -9.008   0.463 131.834  0.00  0.00    +0.277 C 
ENDBRANCH  18  24
BRANCH  23  26
ATOM     26  O   LIG A   1      -6.838  -2.896 133.043  0.00  0.00    -0.491 OA
ATOM     27  C   LIG A   1      -7.890  -3.529 133.757  0.00  0.00    +0.277 C 
ENDBRANCH  23  26
ENDBRANCH   1  20
TORSDOF 4
ENDMDL
MODEL 5
REMARK VINA RESULT:      -7.5      5.591      8.490
REMARK  Name = NuBBE_1492
REMARK  6 active torsions:
REMARK  status: ('A' for Active; 'I' for Inactive)
REMARK    1  A    between atoms: O_1  and  C_2
REMARK    2  A    between atoms: O_1  and  C_3
REMARK    3  A    between atoms: C_5  and  C_11
REMARK    4  A    between atoms: C_8  and  O_9
REMARK    5  A    between atoms: O_9  and  C_10
REMARK    6  A    between atoms: C_19  and  C_23
REMARK                            x       y       z     vdW  Elec       q    Type
REMARK                         _______ _______ _______ _____ _____    ______ ____
ROOT
ATOM      1  C   LIG A   1      -8.321   4.063 129.405  0.00  0.00    +0.154 C 
ATOM      2  C   LIG A   1      -7.498   4.256 130.686  0.00  0.00    +0.056 C 
ATOM      3  C   LIG A   1      -8.532   4.321 131.782  0.00  0.00    +0.056 C 
ATOM      4  C   LIG A   1      -9.627   3.438 131.251  0.00  0.00    +0.167 C 
ATOM      5  O   LIG A   1      -9.629   3.608 129.835  0.00  0.00    -0.371 OA
ATOM      6  C   LIG A   1      -8.786   5.818 131.972  0.00  0.00    +0.154 C 
ATOM      7  O   LIG A   1      -7.563   6.471 131.580  0.00  0.00    -0.371 OA
ATOM      8  C   LIG A   1      -6.776   5.581 130.777  0.00  0.00    +0.167 C 
ENDROOT
BRANCH   6   9
ATOM      9  C   LIG A   1      -9.971   6.478 131.282  0.00  0.00    -0.015 A 
ATOM     10  C   LIG A   1      -9.813   7.203 130.085  0.00  0.00    +0.055 A 
ATOM     11  C   LIG A   1     -10.930   7.782 129.514  0.00  0.00    +0.167 A 
ATOM     12  C   LIG A   1     -12.166   7.692 130.087  0.00  0.00    +0.166 A 
ATOM     13  C   LIG A   1     -12.370   7.011 131.271  0.00  0.00    +0.050 A 
ATOM     14  C   LIG A   1     -11.256   6.398 131.864  0.00  0.00    +0.010 A 
ATOM     15  O   LIG A   1     -13.121   8.344 129.372  0.00  0.00    -0.453 OA
ATOM     16  C   LIG A   1     -12.335   8.842 128.270  0.00  0.00    +0.466 C 
ATOM     17  O   LIG A   1     -10.938   8.497 128.355  0.00  0.00    -0.453 OA
ENDBRANCH   6   9
BRANCH   1  20
ATOM     18  C   LIG A   1      -6.208   2.449 126.590  0.00  0.00    +0.162 A 
ATOM     19  C   LIG A   1      -6.680   3.385 127.533  0.00  0.00    +0.055 A 
ATOM     20  C   LIG A   1      -7.771   3.094 128.369  0.00  0.00    -0.015 A 
ATOM     21  C   LIG A   1      -8.424   1.867 128.181  0.00  0.00    +0.010 A 
ATOM     22  C   LIG A   1      -7.988   0.945 127.229  0.00  0.00    +0.050 A 
ATOM     23  C   LIG A   1      -6.884   1.229 126.425  0.00  0.00    +0.162 A 
BRANCH  18  24
ATOM     24  O   LIG A   1      -5.117   2.877 125.869  0.00  0.00    -0.491 OA
ATOM     25  C   LIG A   1      -3.841   2.700 126.484  0.00  0.00    +0.277 C 
ENDBRANCH  18  24
BRANCH  23  26
ATOM     26  O   LIG A   1      -6.406   0.326 125.518  0.00  0.00    -0.491 OA
ATOM     27  C   LIG A   1      -5.705  -0.797 126.032  0.00  0.00    +0.277 C 
ENDBRANCH  23  26
ENDBRANCH   1  20
TORSDOF 4
ENDMDL
MODEL 6
REMARK VINA RESULT:      -7.3      4.993      7.705
REMARK  Name = NuBBE_1492
REMARK  6 active torsions:
REMARK  status: ('A' for Active; 'I' for Inactive)
REMARK    1  A    between atoms: O_1  and  C_2
REMARK    2  A    between atoms: O_1  and  C_3
REMARK    3  A    between atoms: C_5  and  C_11
REMARK    4  A    between atoms: C_8  and  O_9
REMARK    5  A    between atoms: O_9  and  C_10
REMARK    6  A    between atoms: C_19  and  C_23
REMARK                            x       y       z     vdW  Elec       q    Type
REMARK                         _______ _______ _______ _____ _____    ______ ____
ROOT
ATOM      1  C   LIG A   1      -8.371   2.755 129.318  0.00  0.00    +0.154 C 
ATOM      2  C   LIG A   1      -7.082   3.333 129.915  0.00  0.00    +0.056 C 
ATOM      3  C   LIG A   1      -7.491   3.805 131.288  0.00  0.00    +0.056 C 
ATOM      4  C   LIG A   1      -8.586   2.842 131.653  0.00  0.00    +0.167 C 
ATOM      5  O   LIG A   1      -9.263   2.526 130.438  0.00  0.00    -0.371 OA
ATOM      6  C   LIG A   1      -7.814   5.289 131.095  0.00  0.00    +0.154 C 
ATOM      7  O   LIG A   1      -7.005   5.720 129.984  0.00  0.00    -0.371 OA
ATOM      8  C   LIG A   1      -6.574   4.580 129.229  0.00  0.00    +0.167 C 
ENDROOT
BRANCH   6   9
ATOM      9  C   LIG A   1      -9.257   5.726 130.887  0.00  0.00    -0.015 A 
ATOM     10  C   LIG A   1      -9.796   5.891 129.597  0.00  0.00    +0.055 A 
ATOM     11  C   LIG A   1     -11.111   6.297 129.479  0.00  0.00    +0.167 A 
ATOM     12  C   LIG A   1     -11.887   6.565 130.570  0.00  0.00    +0.166 A 
ATOM     13  C   LIG A   1     -11.399   6.440 131.857  0.00  0.00    +0.050 A 
ATOM     14  C   LIG A   1     -10.072   6.013 132.006  0.00  0.00    +0.010 A 
ATOM     15  O   LIG A   1     -13.143   6.964 130.233  0.00  0.00    -0.453 OA
ATOM     16  C   LIG A   1     -13.064   6.898 128.794  0.00  0.00    +0.466 C 
ATOM     17  O   LIG A   1     -11.773   6.483 128.304  0.00  0.00    -0.453 OA
ENDBRANCH   6   9
BRANCH   1  20
ATOM     18  C   LIG A   1      -8.551   0.129 126.479  0.00  0.00    +0.162 A 
ATOM     19  C   LIG A   1      -8.695   1.341 127.185  0.00  0.00    +0.055 A 
ATOM     20  C   LIG A   1      -8.246   1.473 128.510  0.00  0.00    -0.015 A 
ATOM     21  C   LIG A   1      -7.717   0.332 129.133  0.00  0.00    +0.010 A 
ATOM     22  C   LIG A   1      -7.600  -0.882 128.457  0.00  0.00    +0.050 A 
ATOM     23  C   LIG A   1      -8.019  -0.996 127.131  0.00  0.00    +0.162 A 
BRANCH  18  24
ATOM     24  O   LIG A   1      -9.016   0.172 125.185  0.00  0.00    -0.491 OA
ATOM     25  C   LIG A   1      -8.191   0.847 124.236  0.00  0.00    +0.277 C 
ENDBRANCH  18  24
BRANCH  23  26
ATOM     26  O   LIG A   1      -7.872  -2.159 126.429  0.00  0.00    -0.491 OA
ATOM     27  C   LIG A   1      -8.731  -3.235 126.773  0.00  0.00    +0.277 C 
ENDBRANCH  23  26
ENDBRANCH   1  20
TORSDOF 4
ENDMDL
MODEL 7
REMARK VINA RESULT:      -7.2      1.056      2.242
REMARK  Name = NuBBE_1492
REMARK  6 active torsions:
REMARK  status: ('A' for Active; 'I' for Inactive)
REMARK    1  A    between atoms: O_1  and  C_2
REMARK    2  A    between atoms: O_1  and  C_3
REMARK    3  A    between atoms: C_5  and  C_11
REMARK    4  A    between atoms: C_8  and  O_9
REMARK    5  A    between atoms: O_9  and  C_10
REMARK    6  A    between atoms: C_19  and  C_23
REMARK                            x       y       z     vdW  Elec       q    Type
REMARK                         _______ _______ _______ _____ _____    ______ ____
ROOT
ATOM      1  C   LIG A   1      -7.213  -2.058 127.078  0.00  0.00    +0.154 C 
ATOM      2  C   LIG A   1      -7.881  -3.185 126.281  0.00  0.00    +0.056 C 
ATOM      3  C   LIG A   1      -7.477  -2.918 124.853  0.00  0.00    +0.056 C 
ATOM      4  C   LIG A   1      -6.126  -2.277 125.010  0.00  0.00    +0.167 C 
ATOM      5  O   LIG A   1      -6.180  -1.517 126.216  0.00  0.00    -0.371 OA
ATOM      6  C   LIG A   1      -8.642  -2.108 124.278  0.00  0.00    +0.154 C 
ATOM      7  O   LIG A   1      -9.802  -2.510 125.030  0.00  0.00    -0.371 OA
ATOM      8  C   LIG A   1      -9.391  -3.130 126.256  0.00  0.00    +0.167 C 
ENDROOT
BRANCH   6   9
ATOM      9  C   LIG A   1      -8.555  -0.590 124.229  0.00  0.00    -0.015 A 
ATOM     10  C   LIG A   1      -7.639   0.067 123.385  0.00  0.00    +0.055 A 
ATOM     11  C   LIG A   1      -7.608   1.448 123.395  0.00  0.00    +0.167 A 
ATOM     12  C   LIG A   1      -8.416   2.186 124.213  0.00  0.00    +0.166 A 
ATOM     13  C   LIG A   1      -9.316   1.589 125.075  0.00  0.00    +0.050 A 
ATOM     14  C   LIG A   1      -9.381   0.188 125.073  0.00  0.00    +0.010 A 
ATOM     15  O   LIG A   1      -8.216   3.524 124.076  0.00  0.00    -0.453 OA
ATOM     16  C   LIG A   1      -7.192   3.536 123.060  0.00  0.00    +0.466 C 
ATOM     17  O   LIG A   1      -6.792   2.221 122.626  0.00  0.00    -0.453 OA
ENDBRANCH   6   9
BRANCH   1  20
ATOM     18  C   LIG A   1      -6.711  -2.854 130.834  0.00  0.00    +0.162 A 
ATOM     19  C   LIG A   1      -7.330  -2.502 129.617  0.00  0.00    +0.055 A 
ATOM     20  C   LIG A   1      -6.599  -2.429 128.420  0.00  0.00    -0.015 A 
ATOM     21  C   LIG A   1      -5.214  -2.644 128.490  0.00  0.00    +0.010 A 
ATOM     22  C   LIG A   1      -4.584  -2.960 129.694  0.00  0.00    +0.050 A 
ATOM     23  C   LIG A   1      -5.323  -3.062 130.872  0.00  0.00    +0.162 A 
BRANCH  18  24
ATOM     24  O   LIG A   1      -7.571  -2.908 131.908  0.00  0.00    -0.491 OA
ATOM     25  C   LIG A   1      -7.739  -1.699 132.647  0.00  0.00    +0.277 C 
ENDBRANCH  18  24
BRANCH  23  26
ATOM     26  O   LIG A   1      -4.740  -3.418 132.056  0.00  0.00    -0.491 OA
ATOM     27  C   LIG A   1      -4.749  -4.797 132.393  0.00  0.00    +0.277 C 
ENDBRANCH  23  26
ENDBRANCH   1  20
TORSDOF 4
ENDMDL
MODEL 8
REMARK VINA RESULT:      -7.1      7.588      9.804
REMARK  Name = NuBBE_1492
REMARK  6 active torsions:
REMARK  status: ('A' for Active; 'I' for Inactive)
REMARK    1  A    between atoms: O_1  and  C_2
REMARK    2  A    between atoms: O_1  and  C_3
REMARK    3  A    between atoms: C_5  and  C_11
REMARK    4  A    between atoms: C_8  and  O_9
REMARK    5  A    between atoms: O_9  and  C_10
REMARK    6  A    between atoms: C_19  and  C_23
REMARK                            x       y       z     vdW  Elec       q    Type
REMARK                         _______ _______ _______ _____ _____    ______ ____
ROOT
ATOM      1  C   LIG A   1      -7.351   5.695 131.451  0.00  0.00    +0.154 C 
ATOM      2  C   LIG A   1      -7.529   4.232 131.878  0.00  0.00    +0.056 C 
ATOM      3  C   LIG A   1      -8.435   3.647 130.824  0.00  0.00    +0.056 C 
ATOM      4  C   LIG A   1      -8.071   4.443 129.601  0.00  0.00    +0.167 C 
ATOM      5  O   LIG A   1      -7.750   5.756 130.058  0.00  0.00    -0.371 OA
ATOM      6  C   LIG A   1      -9.838   3.771 131.424  0.00  0.00    +0.154 C 
ATOM      7  O   LIG A   1      -9.654   3.735 132.852  0.00  0.00    -0.371 OA
ATOM      8  C   LIG A   1      -8.289   4.041 133.170  0.00  0.00    +0.167 C 
ENDROOT
BRANCH   6   9
ATOM      9  C   LIG A   1     -10.721   4.950 131.044  0.00  0.00    -0.015 A 
ATOM     10  C   LIG A   1     -11.282   5.063 129.757  0.00  0.00    +0.055 A 
ATOM     11  C   LIG A   1     -12.069   6.163 129.476  0.00  0.00    +0.167 A 
ATOM     12  C   LIG A   1     -12.294   7.148 130.395  0.00  0.00    +0.166 A 
ATOM     13  C   LIG A   1     -11.749   7.095 131.664  0.00  0.00    +0.050 A 
ATOM     14  C   LIG A   1     -10.960   5.980 131.982  0.00  0.00    +0.010 A 
ATOM     15  O   LIG A   1     -13.082   8.144 129.911  0.00  0.00    -0.453 OA
ATOM     16  C   LIG A   1     -13.336   7.657 128.577  0.00  0.00    +0.466 C 
ATOM     17  O   LIG A   1     -12.689   6.402 128.288  0.00  0.00    -0.453 OA
ENDBRANCH   6   9
BRANCH   1  20
ATOM     18  C   LIG A   1      -3.995   7.494 130.750  0.00  0.00    +0.162 A 
ATOM     19  C   LIG A   1      -5.283   6.952 130.558  0.00  0.00    +0.055 A 
ATOM     20  C   LIG A   1      -5.961   6.295 131.598  0.00  0.00    -0.015 A 
ATOM     21  C   LIG A   1      -5.282   6.130 132.815  0.00  0.00    +0.010 A 
ATOM     22  C   LIG A   1      -3.995   6.633 133.007  0.00  0.00    +0.050 A 
ATOM     23  C   LIG A   1      -3.341   7.312 131.979  0.00  0.00    +0.162 A 
BRANCH  18  24
ATOM     24  O   LIG A   1      -3.481   8.129 129.642  0.00  0.00    -0.491 OA
ATOM     25  C   LIG A   1      -3.037   7.288 128.578  0.00  0.00    +0.277 C 
ENDBRANCH  18  24
BRANCH  23  26
ATOM     26  O   LIG A   1      -2.100   7.856 132.154  0.00  0.00    -0.491 OA
ATOM     27  C   LIG A   1      -0.992   6.970 132.104  0.00  0.00    +0.277 C 
ENDBRANCH  23  26
ENDBRANCH   1  20
TORSDOF 4
ENDMDL
MODEL 9
REMARK VINA RESULT:      -7.0      6.394     10.202
REMARK  Name = NuBBE_1492
REMARK  6 active torsions:
REMARK  status: ('A' for Active; 'I' for Inactive)
REMARK    1  A    between atoms: O_1  and  C_2
REMARK    2  A    between atoms: O_1  and  C_3
REMARK    3  A    between atoms: C_5  and  C_11
REMARK    4  A    between atoms: C_8  and  O_9
REMARK    5  A    between atoms: O_9  and  C_10
REMARK    6  A    between atoms: C_19  and  C_23
REMARK                            x       y       z     vdW  Elec       q    Type
REMARK                         _______ _______ _______ _____ _____    ______ ____
ROOT
ATOM      1  C   LIG A   1      -8.467   5.822 130.520  0.00  0.00    +0.154 C 
ATOM      2  C   LIG A   1      -8.380   5.278 131.952  0.00  0.00    +0.056 C 
ATOM      3  C   LIG A   1      -6.936   5.483 132.338  0.00  0.00    +0.056 C 
ATOM      4  C   LIG A   1      -6.561   6.714 131.559  0.00  0.00    +0.167 C 
ATOM      5  O   LIG A   1      -7.293   6.654 130.336  0.00  0.00    -0.371 OA
ATOM      6  C   LIG A   1      -6.267   4.145 132.015  0.00  0.00    +0.154 C 
ATOM      7  O   LIG A   1      -7.304   3.153 132.141  0.00  0.00    -0.371 OA
ATOM      8  C   LIG A   1      -8.589   3.786 132.073  0.00  0.00    +0.167 C 
ENDROOT
BRANCH   6   9
ATOM      9  C   LIG A   1      -5.535   3.965 130.694  0.00  0.00    -0.015 A 
ATOM     10  C   LIG A   1      -6.168   3.388 129.576  0.00  0.00    +0.055 A 
ATOM     11  C   LIG A   1      -5.443   3.248 128.408  0.00  0.00    +0.167 A 
ATOM     12  C   LIG A   1      -4.134   3.627 128.318  0.00  0.00    +0.166 A 
ATOM     13  C   LIG A   1      -3.461   4.177 129.392  0.00  0.00    +0.050 A 
ATOM     14  C   LIG A   1      -4.178   4.347 130.585  0.00  0.00    +0.010 A 
ATOM     15  O   LIG A   1      -3.606   3.389 127.088  0.00  0.00    -0.453 OA
ATOM     16  C   LIG A   1      -4.750   2.828 126.411  0.00  0.00    +0.466 C 
ATOM     17  O   LIG A   1      -5.921   2.726 127.245  0.00  0.00    -0.453 OA
ENDBRANCH   6   9
BRANCH   1  20
ATOM     18  C   LIG A   1     -11.050   8.012 128.643  0.00  0.00    +0.162 A 
ATOM     19  C   LIG A   1      -9.876   7.284 128.930  0.00  0.00    +0.055 A 
ATOM     20  C   LIG A   1      -9.708   6.624 130.158  0.00  0.00    -0.015 A 
ATOM     21  C   LIG A   1     -10.716   6.777 131.122  0.00  0.00    +0.010 A 
ATOM     22  C   LIG A   1     -11.867   7.522 130.863  0.00  0.00    +0.050 A 
ATOM     23  C   LIG A   1     -12.041   8.148 129.629  0.00  0.00    +0.162 A 
BRANCH  18  24
ATOM     24  O   LIG A   1     -11.071   8.576 127.388  0.00  0.00    -0.491 OA
ATOM     25  C   LIG A   1     -10.875   7.686 126.289  0.00  0.00    +0.277 C 
ENDBRANCH  18  24
BRANCH  23  26
ATOM     26  O   LIG A   1     -13.179   8.843 129.331  0.00  0.00    -0.491 OA
ATOM     27  C   LIG A   1     -13.243  10.194 129.763  0.00  0.00    +0.277 C 
ENDBRANCH  23  26
ENDBRANCH   1  20
TORSDOF 4
ENDMDL
