MODEL 1
REMARK VINA RESULT:      -8.4      0.000      0.000
REMARK  Name = NuBBE_591
REMARK  3 active torsions:
REMARK  status: ('A' for Active; 'I' for Inactive)
REMARK    1  A    between atoms: C_1  and  C_2
REMARK    2  A    between atoms: C_4  and  C_8
REMARK    3  A    between atoms: C_9  and  C_11
REMARK                            x       y       z     vdW  Elec       q    Type
REMARK                         _______ _______ _______ _____ _____    ______ ____
ROOT
ATOM      1  C   LIG A   1      -5.479  -3.034 124.072  0.00  0.00    +0.009 C 
ATOM      2  C   LIG A   1      -6.190  -1.699 124.379  0.00  0.00    +0.008 C 
ATOM      3  C   LIG A   1      -7.622  -1.722 123.807  0.00  0.00    +0.061 C 
ATOM      4  C   LIG A   1      -8.599  -2.515 124.660  0.00  0.00    +0.167 C 
ATOM      5  O   LIG A   1      -9.664  -2.917 124.197  0.00  0.00    -0.292 OA
ATOM      6  C   LIG A   1      -8.204  -0.333 123.552  0.00  0.00    +0.016 C 
ATOM      7  C   LIG A   1      -6.127  -1.397 125.901  0.00  0.00    +0.057 C 
ATOM      8  C   LIG A   1      -7.108  -2.252 126.670  0.00  0.00    +0.016 A 
ATOM      9  C   LIG A   1      -8.277  -2.769 126.089  0.00  0.00    +0.025 A 
ATOM     10  C   LIG A   1      -9.179  -3.549 126.850  0.00  0.00    +0.015 A 
ATOM     11  C   LIG A   1      -8.929  -3.824 128.196  0.00  0.00    +0.050 A 
ATOM     12  C   LIG A   1      -7.778  -3.311 128.746  0.00  0.00    +0.167 A 
ATOM     13  C   LIG A   1      -6.895  -2.553 128.009  0.00  0.00    +0.171 A 
ATOM     14  O   LIG A   1      -5.826  -2.154 128.755  0.00  0.00    -0.452 OA
ATOM     15  C   LIG A   1      -6.149  -2.724 130.039  0.00  0.00    +0.466 C 
ATOM     16  O   LIG A   1      -7.378  -3.477 130.035  0.00  0.00    -0.453 OA
ENDROOT
BRANCH   7  17
ATOM     17  C   LIG A   1      -6.183   0.103 126.209  0.00  0.00    -0.036 A 
ATOM     18  C   LIG A   1      -7.344   0.750 126.698  0.00  0.00    +0.008 A 
ATOM     19  C   LIG A   1      -7.353   2.124 126.974  0.00  0.00    +0.050 A 
ATOM     20  C   LIG A   1      -6.192   2.830 126.760  0.00  0.00    +0.166 A 
ATOM     21  O   LIG A   1      -6.018   4.161 126.973  0.00  0.00    -0.453 OA
ATOM     22  C   LIG A   1      -4.637   4.319 126.588  0.00  0.00    +0.466 C 
ATOM     23  O   LIG A   1      -4.018   3.090 126.151  0.00  0.00    -0.453 OA
ATOM     24  C   LIG A   1      -5.055   2.220 126.291  0.00  0.00    +0.167 A 
ATOM     25  C   LIG A   1      -5.017   0.870 126.011  0.00  0.00    +0.053 A 
ENDBRANCH   7  17
TORSDOF 1
ENDMDL
MODEL 2
REMARK VINA RESULT:      -7.8      2.257      5.410
REMARK  Name = NuBBE_591
REMARK  3 active torsions:
REMARK  status: ('A' for Active; 'I' for Inactive)
REMARK    1  A    between atoms: C_1  and  C_2
REMARK    2  A    between atoms: C_4  and  C_8
REMARK    3  A    between atoms: C_9  and  C_11
REMARK                            x       y       z     vdW  Elec       q    Type
REMARK                         _______ _______ _______ _____ _____    ______ ____
ROOT
ATOM      1  C   LIG A   1      -9.383  -3.284 124.046  0.00  0.00    +0.009 C 
ATOM      2  C   LIG A   1      -8.035  -3.293 124.796  0.00  0.00    +0.008 C 
ATOM      3  C   LIG A   1      -6.871  -3.311 123.786  0.00  0.00    +0.061 C 
ATOM      4  C   LIG A   1      -6.591  -1.952 123.164  0.00  0.00    +0.167 C 
ATOM      5  O   LIG A   1      -5.950  -1.852 122.119  0.00  0.00    -0.292 OA
ATOM      6  C   LIG A   1      -5.569  -3.869 124.357  0.00  0.00    +0.016 C 
ATOM      7  C   LIG A   1      -7.975  -2.111 125.802  0.00  0.00    +0.057 C 
ATOM      8  C   LIG A   1      -7.725  -0.800 125.093  0.00  0.00    +0.016 A 
ATOM      9  C   LIG A   1      -7.064  -0.724 123.856  0.00  0.00    +0.025 A 
ATOM     10  C   LIG A   1      -6.832   0.526 123.235  0.00  0.00    +0.015 A 
ATOM     11  C   LIG A   1      -7.256   1.713 123.835  0.00  0.00    +0.050 A 
ATOM     12  C   LIG A   1      -7.904   1.618 125.044  0.00  0.00    +0.167 A 
ATOM     13  C   LIG A   1      -8.133   0.404 125.652  0.00  0.00    +0.171 A 
ATOM     14  O   LIG A   1      -8.791   0.548 126.838  0.00  0.00    -0.452 OA
ATOM     15  C   LIG A   1      -8.925   1.981 126.914  0.00  0.00    +0.466 C 
ATOM     16  O   LIG A   1      -8.381   2.665 125.768  0.00  0.00    -0.453 OA
ENDROOT
BRANCH   7  17
ATOM     17  C   LIG A   1      -7.056  -2.396 126.995  0.00  0.00    -0.036 A 
ATOM     18  C   LIG A   1      -5.666  -2.125 126.984  0.00  0.00    +0.008 A 
ATOM     19  C   LIG A   1      -4.861  -2.394 128.098  0.00  0.00    +0.050 A 
ATOM     20  C   LIG A   1      -5.463  -2.929 129.213  0.00  0.00    +0.166 A 
ATOM     21  O   LIG A   1      -4.842  -3.250 130.379  0.00  0.00    -0.453 OA
ATOM     22  C   LIG A   1      -5.955  -3.746 131.151  0.00  0.00    +0.466 C 
ATOM     23  O   LIG A   1      -7.209  -3.715 130.437  0.00  0.00    -0.453 OA
ATOM     24  C   LIG A   1      -6.810  -3.194 129.246  0.00  0.00    +0.167 A 
ATOM     25  C   LIG A   1      -7.627  -2.939 128.164  0.00  0.00    +0.053 A 
ENDBRANCH   7  17
TORSDOF 1
ENDMDL
MODEL 3
REMARK VINA RESULT:      -7.6      5.100      8.647
REMARK  Name = NuBBE_591
REMARK  3 active torsions:
REMARK  status: ('A' for Active; 'I' for Inactive)
REMARK    1  A    between atoms: C_1  and  C_2
REMARK    2  A    between atoms: C_4  and  C_8
REMARK    3  A    between atoms: C_9  and  C_11
REMARK                            x       y       z     vdW  Elec       q    Type
REMARK                         _______ _______ _______ _____ _____    ______ ____
ROOT
ATOM      1  C   LIG A   1      -1.513   5.039 132.226  0.00  0.00    +0.009 C 
ATOM      2  C   LIG A   1      -2.832   5.748 131.855  0.00  0.00    +0.008 C 
ATOM      3  C   LIG A   1      -2.575   6.797 130.755  0.00  0.00    +0.061 C 
ATOM      4  C   LIG A   1      -2.432   6.193 129.367  0.00  0.00    +0.167 C 
ATOM      5  O   LIG A   1      -1.898   6.819 128.454  0.00  0.00    -0.292 OA
ATOM      6  C   LIG A   1      -3.623   7.906 130.704  0.00  0.00    +0.016 C 
ATOM      7  C   LIG A   1      -3.916   4.700 131.481  0.00  0.00    +0.057 C 
ATOM      8  C   LIG A   1      -3.676   4.132 130.101  0.00  0.00    +0.016 A 
ATOM      9  C   LIG A   1      -2.987   4.839 129.103  0.00  0.00    +0.025 A 
ATOM     10  C   LIG A   1      -2.801   4.279 127.817  0.00  0.00    +0.015 A 
ATOM     11  C   LIG A   1      -3.298   3.011 127.509  0.00  0.00    +0.050 A 
ATOM     12  C   LIG A   1      -3.966   2.333 128.502  0.00  0.00    +0.167 A 
ATOM     13  C   LIG A   1      -4.149   2.873 129.755  0.00  0.00    +0.171 A 
ATOM     14  O   LIG A   1      -4.835   2.027 130.576  0.00  0.00    -0.452 OA
ATOM     15  C   LIG A   1      -5.081   0.915 129.692  0.00  0.00    +0.466 C 
ATOM     16  O   LIG A   1      -4.515   1.095 128.379  0.00  0.00    -0.453 OA
ENDROOT
BRANCH   7  17
ATOM     17  C   LIG A   1      -5.340   5.202 131.744  0.00  0.00    -0.036 A 
ATOM     18  C   LIG A   1      -5.883   5.342 133.045  0.00  0.00    +0.008 A 
ATOM     19  C   LIG A   1      -7.188   5.811 133.245  0.00  0.00    +0.050 A 
ATOM     20  C   LIG A   1      -7.931   6.138 132.134  0.00  0.00    +0.166 A 
ATOM     21  O   LIG A   1      -9.207   6.606 132.138  0.00  0.00    -0.453 OA
ATOM     22  C   LIG A   1      -9.440   6.767 130.724  0.00  0.00    +0.466 C 
ATOM     23  O   LIG A   1      -8.311   6.391 129.908  0.00  0.00    -0.453 OA
ATOM     24  C   LIG A   1      -7.421   6.014 130.866  0.00  0.00    +0.167 A 
ATOM     25  C   LIG A   1      -6.140   5.555 130.639  0.00  0.00    +0.053 A 
ENDBRANCH   7  17
TORSDOF 1
ENDMDL
MODEL 4
REMARK VINA RESULT:      -7.5      5.478      8.302
REMARK  Name = NuBBE_591
REMARK  3 active torsions:
REMARK  status: ('A' for Active; 'I' for Inactive)
REMARK    1  A    between atoms: C_1  and  C_2
REMARK    2  A    between atoms: C_4  and  C_8
REMARK    3  A    between atoms: C_9  and  C_11
REMARK                            x       y       z     vdW  Elec       q    Type
REMARK                         _______ _______ _______ _____ _____    ______ ____
ROOT
ATOM      1  C   LIG A   1      -9.381   0.804 131.825  0.00  0.00    +0.009 C 
ATOM      2  C   LIG A   1      -9.445   2.333 132.019  0.00  0.00    +0.008 C 
ATOM      3  C   LIG A   1      -8.776   2.722 133.353  0.00  0.00    +0.061 C 
ATOM      4  C   LIG A   1      -7.258   2.727 133.288  0.00  0.00    +0.167 C 
ATOM      5  O   LIG A   1      -6.578   2.677 134.311  0.00  0.00    -0.292 OA
ATOM      6  C   LIG A   1      -9.250   4.063 133.910  0.00  0.00    +0.016 C 
ATOM      7  C   LIG A   1      -8.844   3.055 130.782  0.00  0.00    +0.057 C 
ATOM      8  C   LIG A   1      -7.334   2.981 130.785  0.00  0.00    +0.016 A 
ATOM      9  C   LIG A   1      -6.587   2.838 131.966  0.00  0.00    +0.025 A 
ATOM     10  C   LIG A   1      -5.173   2.793 131.926  0.00  0.00    +0.015 A 
ATOM     11  C   LIG A   1      -4.487   2.890 130.714  0.00  0.00    +0.050 A 
ATOM     12  C   LIG A   1      -5.237   3.027 129.569  0.00  0.00    +0.167 A 
ATOM     13  C   LIG A   1      -6.612   3.069 129.601  0.00  0.00    +0.171 A 
ATOM     14  O   LIG A   1      -7.144   3.206 128.353  0.00  0.00    -0.452 OA
ATOM     15  C   LIG A   1      -5.953   3.269 127.545  0.00  0.00    +0.466 C 
ATOM     16  O   LIG A   1      -4.738   3.136 128.309  0.00  0.00    -0.453 OA
ENDROOT
BRANCH   7  17
ATOM     17  C   LIG A   1      -9.431   4.454 130.571  0.00  0.00    -0.036 A 
ATOM     18  C   LIG A   1      -8.677   5.643 130.729  0.00  0.00    +0.008 A 
ATOM     19  C   LIG A   1      -9.250   6.904 130.520  0.00  0.00    +0.050 A 
ATOM     20  C   LIG A   1     -10.573   6.956 130.149  0.00  0.00    +0.166 A 
ATOM     21  O   LIG A   1     -11.289   8.085 129.903  0.00  0.00    -0.453 OA
ATOM     22  C   LIG A   1     -12.572   7.523 129.561  0.00  0.00    +0.466 C 
ATOM     23  O   LIG A   1     -12.601   6.081 129.613  0.00  0.00    -0.453 OA
ATOM     24  C   LIG A   1     -11.320   5.816 129.984  0.00  0.00    +0.167 A 
ATOM     25  C   LIG A   1     -10.783   4.560 130.184  0.00  0.00    +0.053 A 
ENDBRANCH   7  17
TORSDOF 1
ENDMDL
MODEL 5
REMARK VINA RESULT:      -7.4      6.130      9.846
REMARK  Name = NuBBE_591
REMARK  3 active torsions:
REMARK  status: ('A' for Active; 'I' for Inactive)
REMARK    1  A    between atoms: C_1  and  C_2
REMARK    2  A    between atoms: C_4  and  C_8
REMARK    3  A    between atoms: C_9  and  C_11
REMARK                            x       y       z     vdW  Elec       q    Type
REMARK                         _______ _______ _______ _____ _____    ______ ____
ROOT
ATOM      1  C   LIG A   1      -2.786   8.228 133.457  0.00  0.00    +0.009 C 
ATOM      2  C   LIG A   1      -2.573   7.012 132.532  0.00  0.00    +0.008 C 
ATOM      3  C   LIG A   1      -2.260   5.759 133.374  0.00  0.00    +0.061 C 
ATOM      4  C   LIG A   1      -3.492   5.140 134.015  0.00  0.00    +0.167 C 
ATOM      5  O   LIG A   1      -3.392   4.369 134.967  0.00  0.00    -0.292 OA
ATOM      6  C   LIG A   1      -1.506   4.675 132.607  0.00  0.00    +0.016 C 
ATOM      7  C   LIG A   1      -3.791   6.842 131.583  0.00  0.00    +0.057 C 
ATOM      8  C   LIG A   1      -4.975   6.251 132.312  0.00  0.00    +0.016 A 
ATOM      9  C   LIG A   1      -4.834   5.441 133.451  0.00  0.00    +0.025 A 
ATOM     10  C   LIG A   1      -5.969   4.891 134.092  0.00  0.00    +0.015 A 
ATOM     11  C   LIG A   1      -7.255   5.140 133.610  0.00  0.00    +0.050 A 
ATOM     12  C   LIG A   1      -7.373   5.938 132.496  0.00  0.00    +0.167 A 
ATOM     13  C   LIG A   1      -6.272   6.477 131.869  0.00  0.00    +0.171 A 
ATOM     14  O   LIG A   1      -6.624   7.235 130.791  0.00  0.00    -0.452 OA
ATOM     15  C   LIG A   1      -8.058   7.089 130.801  0.00  0.00    +0.466 C 
ATOM     16  O   LIG A   1      -8.541   6.283 131.893  0.00  0.00    -0.453 OA
ENDROOT
BRANCH   7  17
ATOM     17  C   LIG A   1      -3.422   6.152 130.265  0.00  0.00    -0.036 A 
ATOM     18  C   LIG A   1      -2.620   6.763 129.269  0.00  0.00    +0.008 A 
ATOM     19  C   LIG A   1      -2.300   6.096 128.080  0.00  0.00    +0.050 A 
ATOM     20  C   LIG A   1      -2.785   4.821 127.906  0.00  0.00    +0.166 A 
ATOM     21  O   LIG A   1      -2.576   4.028 126.822  0.00  0.00    -0.453 OA
ATOM     22  C   LIG A   1      -3.304   2.845 127.207  0.00  0.00    +0.466 C 
ATOM     23  O   LIG A   1      -3.934   2.953 128.501  0.00  0.00    -0.453 OA
ATOM     24  C   LIG A   1      -3.559   4.210 128.861  0.00  0.00    +0.167 A 
ATOM     25  C   LIG A   1      -3.891   4.842 130.042  0.00  0.00    +0.053 A 
ENDBRANCH   7  17
TORSDOF 1
ENDMDL
MODEL 6
REMARK VINA RESULT:      -7.3      1.686      5.551
REMARK  Name = NuBBE_591
REMARK  3 active torsions:
REMARK  status: ('A' for Active; 'I' for Inactive)
REMARK    1  A    between atoms: C_1  and  C_2
REMARK    2  A    between atoms: C_4  and  C_8
REMARK    3  A    between atoms: C_9  and  C_11
REMARK                            x       y       z     vdW  Elec       q    Type
REMARK                         _______ _______ _______ _____ _____    ______ ____
ROOT
ATOM      1  C   LIG A   1      -4.445  -2.469 129.303  0.00  0.00    +0.009 C 
ATOM      2  C   LIG A   1      -5.634  -2.515 128.321  0.00  0.00    +0.008 C 
ATOM      3  C   LIG A   1      -6.960  -2.588 129.104  0.00  0.00    +0.061 C 
ATOM      4  C   LIG A   1      -7.398  -1.249 129.676  0.00  0.00    +0.167 C 
ATOM      5  O   LIG A   1      -8.220  -1.187 130.588  0.00  0.00    -0.292 OA
ATOM      6  C   LIG A   1      -8.116  -3.183 128.301  0.00  0.00    +0.016 C 
ATOM      7  C   LIG A   1      -5.555  -1.321 127.331  0.00  0.00    +0.057 C 
ATOM      8  C   LIG A   1      -5.977  -0.030 127.994  0.00  0.00    +0.016 A 
ATOM      9  C   LIG A   1      -6.853   0.005 129.091  0.00  0.00    +0.025 A 
ATOM     10  C   LIG A   1      -7.239   1.236 129.670  0.00  0.00    +0.015 A 
ATOM     11  C   LIG A   1      -6.758   2.447 129.166  0.00  0.00    +0.050 A 
ATOM     12  C   LIG A   1      -5.899   2.392 128.094  0.00  0.00    +0.167 A 
ATOM     13  C   LIG A   1      -5.519   1.196 127.527  0.00  0.00    +0.171 A 
ATOM     14  O   LIG A   1      -4.663   1.380 126.481  0.00  0.00    -0.452 OA
ATOM     15  C   LIG A   1      -4.571   2.818 126.443  0.00  0.00    +0.466 C 
ATOM     16  O   LIG A   1      -5.339   3.466 127.477  0.00  0.00    -0.453 OA
ENDROOT
BRANCH   7  17
ATOM     17  C   LIG A   1      -6.232  -1.620 125.989  0.00  0.00    -0.036 A 
ATOM     18  C   LIG A   1      -5.702  -2.530 125.041  0.00  0.00    +0.008 A 
ATOM     19  C   LIG A   1      -6.355  -2.781 123.827  0.00  0.00    +0.050 A 
ATOM     20  C   LIG A   1      -7.535  -2.118 123.581  0.00  0.00    +0.166 A 
ATOM     21  O   LIG A   1      -8.300  -2.238 122.465  0.00  0.00    -0.453 OA
ATOM     22  C   LIG A   1      -9.379  -1.333 122.776  0.00  0.00    +0.466 C 
ATOM     23  O   LIG A   1      -9.237  -0.690 124.061  0.00  0.00    -0.453 OA
ATOM     24  C   LIG A   1      -8.067  -1.236 124.490  0.00  0.00    +0.167 A 
ATOM     25  C   LIG A   1      -7.447  -0.969 125.693  0.00  0.00    +0.053 A 
ENDBRANCH   7  17
TORSDOF 1
ENDMDL
MODEL 7
REMARK VINA RESULT:      -7.3      1.940      5.703
REMARK  Name = NuBBE_591
REMARK  3 active torsions:
REMARK  status: ('A' for Active; 'I' for Inactive)
REMARK    1  A    between atoms: C_1  and  C_2
REMARK    2  A    between atoms: C_4  and  C_8
REMARK    3  A    between atoms: C_9  and  C_11
REMARK                            x       y       z     vdW  Elec       q    Type
REMARK                         _______ _______ _______ _____ _____    ______ ____
ROOT
ATOM      1  C   LIG A   1      -4.475   2.089 126.657  0.00  0.00    +0.009 C 
ATOM      2  C   LIG A   1      -5.419   1.159 127.448  0.00  0.00    +0.008 C 
ATOM      3  C   LIG A   1      -6.789   1.841 127.639  0.00  0.00    +0.061 C 
ATOM      4  C   LIG A   1      -7.667   1.788 126.400  0.00  0.00    +0.167 C 
ATOM      5  O   LIG A   1      -8.619   2.555 126.263  0.00  0.00    -0.292 OA
ATOM      6  C   LIG A   1      -7.582   1.304 128.829  0.00  0.00    +0.016 C 
ATOM      7  C   LIG A   1      -5.501  -0.231 126.760  0.00  0.00    +0.057 C 
ATOM      8  C   LIG A   1      -6.368  -0.180 125.523  0.00  0.00    +0.016 A 
ATOM      9  C   LIG A   1      -7.394   0.763 125.358  0.00  0.00    +0.025 A 
ATOM     10  C   LIG A   1      -8.196   0.763 124.192  0.00  0.00    +0.015 A 
ATOM     11  C   LIG A   1      -7.986  -0.173 123.178  0.00  0.00    +0.050 A 
ATOM     12  C   LIG A   1      -6.973  -1.086 123.357  0.00  0.00    +0.167 A 
ATOM     13  C   LIG A   1      -6.189  -1.090 124.489  0.00  0.00    +0.171 A 
ATOM     14  O   LIG A   1      -5.250  -2.078 124.451  0.00  0.00    -0.452 OA
ATOM     15  C   LIG A   1      -5.549  -2.703 123.187  0.00  0.00    +0.466 C 
ATOM     16  O   LIG A   1      -6.630  -2.065 122.478  0.00  0.00    -0.453 OA
ENDROOT
BRANCH   7  17
ATOM     17  C   LIG A   1      -5.829  -1.359 127.745  0.00  0.00    -0.036 A 
ATOM     18  C   LIG A   1      -7.109  -1.959 127.836  0.00  0.00    +0.008 A 
ATOM     19  C   LIG A   1      -7.367  -2.993 128.745  0.00  0.00    +0.050 A 
ATOM     20  C   LIG A   1      -6.334  -3.415 129.550  0.00  0.00    +0.166 A 
ATOM     21  O   LIG A   1      -6.402  -4.401 130.483  0.00  0.00    -0.453 OA
ATOM     22  C   LIG A   1      -5.050  -4.394 130.983  0.00  0.00    +0.466 C 
ATOM     23  O   LIG A   1      -4.207  -3.409 130.347  0.00  0.00    -0.453 OA
ATOM     24  C   LIG A   1      -5.085  -2.850 129.473  0.00  0.00    +0.167 A 
ATOM     25  C   LIG A   1      -4.802  -1.831 128.588  0.00  0.00    +0.053 A 
ENDBRANCH   7  17
TORSDOF 1
ENDMDL
MODEL 8
REMARK VINA RESULT:      -7.2      7.071      8.966
REMARK  Name = NuBBE_591
REMARK  3 active torsions:
REMARK  status: ('A' for Active; 'I' for Inactive)
REMARK    1  A    between atoms: C_1  and  C_2
REMARK    2  A    between atoms: C_4  and  C_8
REMARK    3  A    between atoms: C_9  and  C_11
REMARK                            x       y       z     vdW  Elec       q    Type
REMARK                         _______ _______ _______ _____ _____    ______ ____
ROOT
ATOM      1  C   LIG A   1      -7.715   5.741 134.947  0.00  0.00    +0.009 C 
ATOM      2  C   LIG A   1      -6.725   5.269 133.862  0.00  0.00    +0.008 C 
ATOM      3  C   LIG A   1      -6.691   3.728 133.816  0.00  0.00    +0.061 C 
ATOM      4  C   LIG A   1      -7.880   3.120 133.090  0.00  0.00    +0.167 C 
ATOM      5  O   LIG A   1      -8.187   1.940 133.252  0.00  0.00    -0.292 OA
ATOM      6  C   LIG A   1      -5.406   3.159 133.220  0.00  0.00    +0.016 C 
ATOM      7  C   LIG A   1      -7.070   5.929 132.499  0.00  0.00    +0.057 C 
ATOM      8  C   LIG A   1      -8.281   5.282 131.867  0.00  0.00    +0.016 A 
ATOM      9  C   LIG A   1      -8.656   3.956 132.137  0.00  0.00    +0.025 A 
ATOM     10  C   LIG A   1      -9.786   3.382 131.509  0.00  0.00    +0.015 A 
ATOM     11  C   LIG A   1     -10.556   4.119 130.606  0.00  0.00    +0.050 A 
ATOM     12  C   LIG A   1     -10.174   5.417 130.358  0.00  0.00    +0.167 A 
ATOM     13  C   LIG A   1      -9.076   5.981 130.968  0.00  0.00    +0.171 A 
ATOM     14  O   LIG A   1      -8.887   7.274 130.575  0.00  0.00    -0.452 OA
ATOM     15  C   LIG A   1      -9.970   7.445 129.639  0.00  0.00    +0.466 C 
ATOM     16  O   LIG A   1     -10.802   6.275 129.511  0.00  0.00    -0.453 OA
ENDROOT
BRANCH   7  17
ATOM     17  C   LIG A   1      -5.849   6.068 131.584  0.00  0.00    -0.036 A 
ATOM     18  C   LIG A   1      -4.698   6.816 131.936  0.00  0.00    +0.008 A 
ATOM     19  C   LIG A   1      -3.599   6.913 131.074  0.00  0.00    +0.050 A 
ATOM     20  C   LIG A   1      -3.666   6.255 129.868  0.00  0.00    +0.166 A 
ATOM     21  O   LIG A   1      -2.699   6.237 128.913  0.00  0.00    -0.453 OA
ATOM     22  C   LIG A   1      -3.321   5.404 127.913  0.00  0.00    +0.466 C 
ATOM     23  O   LIG A   1      -4.638   4.946 128.284  0.00  0.00    -0.453 OA
ATOM     24  C   LIG A   1      -4.770   5.521 129.510  0.00  0.00    +0.167 A 
ATOM     25  C   LIG A   1      -5.867   5.407 130.339  0.00  0.00    +0.053 A 
ENDBRANCH   7  17
TORSDOF 1
ENDMDL
MODEL 9
REMARK VINA RESULT:      -7.2      2.191      5.739
REMARK  Name = NuBBE_591
REMARK  3 active torsions:
REMARK  status: ('A' for Active; 'I' for Inactive)
REMARK    1  A    between atoms: C_1  and  C_2
REMARK    2  A    between atoms: C_4  and  C_8
REMARK    3  A    between atoms: C_9  and  C_11
REMARK                            x       y       z     vdW  Elec       q    Type
REMARK                         _______ _______ _______ _____ _____    ______ ____
ROOT
ATOM      1  C   LIG A   1      -8.271   0.446 130.598  0.00  0.00    +0.009 C 
ATOM      2  C   LIG A   1      -7.692   0.185 129.192  0.00  0.00    +0.008 C 
ATOM      3  C   LIG A   1      -6.570   1.199 128.890  0.00  0.00    +0.061 C 
ATOM      4  C   LIG A   1      -5.252   0.861 129.568  0.00  0.00    +0.167 C 
ATOM      5  O   LIG A   1      -4.377   1.712 129.716  0.00  0.00    -0.292 OA
ATOM      6  C   LIG A   1      -6.317   1.409 127.398  0.00  0.00    +0.016 C 
ATOM      7  C   LIG A   1      -7.248  -1.298 129.062  0.00  0.00    +0.057 C 
ATOM      8  C   LIG A   1      -5.949  -1.547 129.792  0.00  0.00    +0.016 A 
ATOM      9  C   LIG A   1      -5.004  -0.533 130.021  0.00  0.00    +0.025 A 
ATOM     10  C   LIG A   1      -3.790  -0.813 130.691  0.00  0.00    +0.015 A 
ATOM     11  C   LIG A   1      -3.502  -2.103 131.142  0.00  0.00    +0.050 A 
ATOM     12  C   LIG A   1      -4.441  -3.081 130.912  0.00  0.00    +0.167 A 
ATOM     13  C   LIG A   1      -5.625  -2.814 130.261  0.00  0.00    +0.171 A 
ATOM     14  O   LIG A   1      -6.402  -3.928 130.146  0.00  0.00    -0.452 OA
ATOM     15  C   LIG A   1      -5.566  -4.921 130.772  0.00  0.00    +0.466 C 
ATOM     16  O   LIG A   1      -4.327  -4.385 131.278  0.00  0.00    -0.453 OA
ENDROOT
BRANCH   7  17
ATOM     17  C   LIG A   1      -7.296  -1.805 127.617  0.00  0.00    -0.036 A 
ATOM     18  C   LIG A   1      -6.135  -2.039 126.840  0.00  0.00    +0.008 A 
ATOM     19  C   LIG A   1      -6.221  -2.509 125.523  0.00  0.00    +0.050 A 
ATOM     20  C   LIG A   1      -7.473  -2.744 125.004  0.00  0.00    +0.166 A 
ATOM     21  O   LIG A   1      -7.745  -3.200 123.753  0.00  0.00    -0.453 OA
ATOM     22  C   LIG A   1      -9.185  -3.252 123.791  0.00  0.00    +0.466 C 
ATOM     23  O   LIG A   1      -9.743  -2.824 125.052  0.00  0.00    -0.453 OA
ATOM     24  C   LIG A   1      -8.610  -2.529 125.743  0.00  0.00    +0.167 A 
ATOM     25  C   LIG A   1      -8.556  -2.066 127.041  0.00  0.00    +0.053 A 
ENDBRANCH   7  17
TORSDOF 1
ENDMDL
