MODEL 1
REMARK VINA RESULT:      -8.5      0.000      0.000
REMARK  Name = NuBBE_2011
REMARK  14 active torsions:
REMARK  status: ('A' for Active; 'I' for Inactive)
REMARK    1  A    between atoms: O_1  and  C_2
REMARK    2  A    between atoms: C_4  and  C_5
REMARK    3  A    between atoms: C_6  and  C_12
REMARK    4  A    between atoms: C_21  and  C_46
REMARK    5  A    between atoms: C_22  and  O_42
REMARK    6  A    between atoms: C_27  and  O_29
REMARK    7  A    between atoms: C_30  and  C_41
REMARK    8  A    between atoms: C_31  and  C_33
REMARK    9  A    between atoms: C_33  and  C_35
REMARK   10  A    between atoms: C_33  and  O_39
REMARK   11  A    between atoms: C_35  and  O_37
REMARK   12  A    between atoms: O_37  and  C_38
REMARK   13  A    between atoms: O_42  and  C_43
REMARK   14  A    between atoms: C_43  and  C_45
REMARK                            x       y       z     vdW  Elec       q    Type
REMARK                         _______ _______ _______ _____ _____    ______ ____
ROOT
ATOM      1  C   LIG A   1      -5.620   3.646 130.572  0.00  0.00    +0.108 C 
ATOM      2  C   LIG A   1      -5.148   5.029 130.122  0.00  0.00    +0.118 C 
ATOM      3  C   LIG A   1      -4.308   5.746 131.263  0.00  0.00    +0.042 C 
ATOM      4  C   LIG A   1      -4.360   7.278 131.044  0.00  0.00    +0.018 C 
ATOM      5  C   LIG A   1      -2.829   5.219 131.178  0.00  0.00    +0.218 C 
ATOM      6  O   LIG A   1      -2.282   5.295 129.851  0.00  0.00    -0.456 OA
ATOM      7  C   LIG A   1      -2.961   4.712 128.845  0.00  0.00    +0.311 C 
ATOM      8  O   LIG A   1      -2.388   4.152 127.920  0.00  0.00    -0.251 OA
ATOM      9  C   LIG A   1      -4.408   5.063 128.785  0.00  0.00    +0.159 C 
ATOM     10  C   LIG A   1      -4.867   5.481 132.719  0.00  0.00    +0.014 C 
ATOM     11  C   LIG A   1      -5.421   4.076 133.001  0.00  0.00    +0.008 C 
ATOM     12  C   LIG A   1      -6.412   3.819 131.888  0.00  0.00    +0.034 C 
ATOM     13  C   LIG A   1      -7.545   2.760 131.906  0.00  0.00    +0.020 C 
ATOM     14  C   LIG A   1      -7.554   2.214 130.423  0.00  0.00    +0.128 C 
ATOM     15  C   LIG A   1      -6.712   3.246 129.627  0.00  0.00    +0.100 C 
ATOM     16  C   LIG A   1      -7.349   4.613 129.312  0.00  0.00    +0.158 C 
ATOM     17  O   LIG A   1      -6.442   5.657 129.832  0.00  0.00    -0.363 OA
ATOM     18  C   LIG A   1      -8.772   4.866 129.867  0.00  0.00    +0.150 C 
ATOM     19  C   LIG A   1      -9.466   3.631 130.517  0.00  0.00    +0.006 C 
ATOM     20  C   LIG A   1      -9.012   3.378 132.013  0.00  0.00    +0.047 C 
ATOM     21  C   LIG A   1      -8.967   2.329 129.866  0.00  0.00    +0.058 C 
ATOM     22  C   LIG A   1     -10.994   3.670 130.335  0.00  0.00    +0.014 C 
ATOM     23  C   LIG A   1      -7.299   1.730 133.013  0.00  0.00    +0.016 C 
ENDROOT
BRANCH   5  24
ATOM     24  C   LIG A   1      -1.857   5.913 132.106  0.00  0.00    +0.031 A 
ATOM     25  C   LIG A   1      -0.804   6.813 131.754  0.00  0.00    +0.048 A 
ATOM     26  C   LIG A   1      -0.186   7.178 132.925  0.00  0.00    +0.195 A 
ATOM     27  O   LIG A   1      -0.769   6.555 133.979  0.00  0.00    -0.471 OA
ATOM     28  C   LIG A   1      -1.761   5.779 133.479  0.00  0.00    +0.202 A 
ENDBRANCH   5  24
BRANCH   1  29
ATOM     29  O   LIG A   1      -4.582   2.694 130.638  0.00  0.00    -0.385 OA
ATOM     30  H   LIG A   1      -4.256   2.521 129.733  0.00  0.00    +0.210 HD
ENDBRANCH   1  29
BRANCH  18  31
ATOM     31  O   LIG A   1      -9.568   5.354 128.777  0.00  0.00    -0.389 OA
ATOM     32  H   LIG A   1      -9.325   6.289 128.639  0.00  0.00    +0.210 HD
ENDBRANCH  18  31
BRANCH  20  33
ATOM     33  C   LIG A   1      -9.195   4.525 133.042  0.00  0.00    +0.227 C 
BRANCH  33  34
ATOM     34  C   LIG A   1      -9.655   5.825 132.368  0.00  0.00    +0.336 C 
ATOM     35  O   LIG A   1      -8.930   6.632 131.809  0.00  0.00    -0.248 OA
BRANCH  34  36
ATOM     36  O   LIG A   1     -11.004   5.936 132.532  0.00  0.00    -0.466 OA
ATOM     37  C   LIG A   1     -11.703   6.755 131.594  0.00  0.00    +0.280 C 
ENDBRANCH  34  36
ENDBRANCH  33  34
BRANCH  33  38
ATOM     38  O   LIG A   1     -10.133   4.114 134.034  0.00  0.00    -0.380 OA
ATOM     39  H   LIG A   1      -9.878   3.225 134.337  0.00  0.00    +0.210 HD
ENDBRANCH  33  38
ENDBRANCH  20  33
BRANCH  14  40
ATOM     40  O   LIG A   1      -6.885   0.934 130.338  0.00  0.00    -0.457 OA
BRANCH  40  41
ATOM     41  C   LIG A   1      -7.476  -0.116 129.691  0.00  0.00    +0.304 C 
ATOM     42  O   LIG A   1      -7.570  -0.271 128.489  0.00  0.00    -0.251 OA
ATOM     43  C   LIG A   1      -8.110  -1.055 130.676  0.00  0.00    +0.136 C 
ENDBRANCH  40  41
ENDBRANCH  14  40
TORSDOF 9
ENDMDL
MODEL 2
REMARK VINA RESULT:      -8.4      2.016      6.995
REMARK  Name = NuBBE_2011
REMARK  14 active torsions:
REMARK  status: ('A' for Active; 'I' for Inactive)
REMARK    1  A    between atoms: O_1  and  C_2
REMARK    2  A    between atoms: C_4  and  C_5
REMARK    3  A    between atoms: C_6  and  C_12
REMARK    4  A    between atoms: C_21  and  C_46
REMARK    5  A    between atoms: C_22  and  O_42
REMARK    6  A    between atoms: C_27  and  O_29
REMARK    7  A    between atoms: C_30  and  C_41
REMARK    8  A    between atoms: C_31  and  C_33
REMARK    9  A    between atoms: C_33  and  C_35
REMARK   10  A    between atoms: C_33  and  O_39
REMARK   11  A    between atoms: C_35  and  O_37
REMARK   12  A    between atoms: O_37  and  C_38
REMARK   13  A    between atoms: O_42  and  C_43
REMARK   14  A    between atoms: C_43  and  C_45
REMARK                            x       y       z     vdW  Elec       q    Type
REMARK                         _______ _______ _______ _____ _____    ______ ____
ROOT
ATOM      1  C   LIG A   1      -6.282   4.757 130.066  0.00  0.00    +0.108 C 
ATOM      2  C   LIG A   1      -7.379   4.332 131.043  0.00  0.00    +0.118 C 
ATOM      3  C   LIG A   1      -8.411   5.511 131.293  0.00  0.00    +0.042 C 
ATOM      4  C   LIG A   1      -9.110   5.292 132.657  0.00  0.00    +0.018 C 
ATOM      5  C   LIG A   1      -9.457   5.496 130.119  0.00  0.00    +0.218 C 
ATOM      6  O   LIG A   1     -10.029   4.196 129.895  0.00  0.00    -0.456 OA
ATOM      7  C   LIG A   1      -9.196   3.159 129.687  0.00  0.00    +0.311 C 
ATOM      8  O   LIG A   1      -9.468   2.260 128.902  0.00  0.00    -0.251 OA
ATOM      9  C   LIG A   1      -8.099   3.030 130.689  0.00  0.00    +0.159 C 
ATOM     10  C   LIG A   1      -7.733   6.939 131.361  0.00  0.00    +0.014 C 
ATOM     11  C   LIG A   1      -6.560   7.193 130.400  0.00  0.00    +0.008 C 
ATOM     12  C   LIG A   1      -5.616   6.034 130.626  0.00  0.00    +0.034 C 
ATOM     13  C   LIG A   1      -4.114   5.997 130.242  0.00  0.00    +0.020 C 
ATOM     14  C   LIG A   1      -3.906   4.515 129.735  0.00  0.00    +0.128 C 
ATOM     15  C   LIG A   1      -5.173   3.761 130.219  0.00  0.00    +0.100 C 
ATOM     16  C   LIG A   1      -5.284   3.418 131.717  0.00  0.00    +0.158 C 
ATOM     17  O   LIG A   1      -6.559   3.981 132.208  0.00  0.00    -0.363 OA
ATOM     18  C   LIG A   1      -4.136   3.905 132.634  0.00  0.00    +0.150 C 
ATOM     19  C   LIG A   1      -2.907   4.520 131.898  0.00  0.00    +0.006 C 
ATOM     20  C   LIG A   1      -3.121   6.036 131.490  0.00  0.00    +0.047 C 
ATOM     21  C   LIG A   1      -2.746   3.892 130.502  0.00  0.00    +0.058 C 
ATOM     22  C   LIG A   1      -1.595   4.266 132.662  0.00  0.00    +0.014 C 
ATOM     23  C   LIG A   1      -3.788   7.114 129.244  0.00  0.00    +0.016 C 
ENDROOT
BRANCH   5  24
ATOM     24  C   LIG A   1     -10.603   6.469 130.281  0.00  0.00    +0.031 A 
ATOM     25  C   LIG A   1     -11.765   6.323 131.101  0.00  0.00    +0.048 A 
ATOM     26  C   LIG A   1     -12.525   7.451 130.917  0.00  0.00    +0.195 A 
ATOM     27  O   LIG A   1     -11.928   8.282 130.027  0.00  0.00    -0.471 OA
ATOM     28  C   LIG A   1     -10.781   7.677 129.632  0.00  0.00    +0.202 A 
ENDBRANCH   5  24
BRANCH   1  29
ATOM     29  O   LIG A   1      -6.730   4.871 128.734  0.00  0.00    -0.385 OA
ATOM     30  H   LIG A   1      -6.507   4.048 128.257  0.00  0.00    +0.210 HD
ENDBRANCH   1  29
BRANCH  18  31
ATOM     31  O   LIG A   1      -3.719   2.779 133.421  0.00  0.00    -0.389 OA
ATOM     32  H   LIG A   1      -4.206   2.001 133.090  0.00  0.00    +0.210 HD
ENDBRANCH  18  31
BRANCH  20  33
ATOM     33  C   LIG A   1      -3.469   7.057 132.606  0.00  0.00    +0.227 C 
BRANCH  33  34
ATOM     34  C   LIG A   1      -2.520   6.931 133.806  0.00  0.00    +0.336 C 
ATOM     35  O   LIG A   1      -2.790   6.406 134.875  0.00  0.00    -0.248 OA
BRANCH  34  36
ATOM     36  O   LIG A   1      -1.341   7.535 133.483  0.00  0.00    -0.466 OA
ATOM     37  C   LIG A   1      -0.215   7.237 134.309  0.00  0.00    +0.280 C 
ENDBRANCH  34  36
ENDBRANCH  33  34
BRANCH  33  38
ATOM     38  O   LIG A   1      -3.419   8.373 132.062  0.00  0.00    -0.380 OA
ATOM     39  H   LIG A   1      -3.010   8.956 132.725  0.00  0.00    +0.210 HD
ENDBRANCH  33  38
ENDBRANCH  20  33
BRANCH  14  40
ATOM     40  O   LIG A   1      -3.881   4.460 128.290  0.00  0.00    -0.457 OA
BRANCH  40  41
ATOM     41  C   LIG A   1      -3.507   3.312 127.646  0.00  0.00    +0.304 C 
ATOM     42  O   LIG A   1      -4.119   2.262 127.615  0.00  0.00    -0.251 OA
ATOM     43  C   LIG A   1      -2.146   3.469 127.032  0.00  0.00    +0.136 C 
ENDBRANCH  40  41
ENDBRANCH  14  40
TORSDOF 9
ENDMDL
MODEL 3
REMARK VINA RESULT:      -8.2      3.080      7.012
REMARK  Name = NuBBE_2011
REMARK  14 active torsions:
REMARK  status: ('A' for Active; 'I' for Inactive)
REMARK    1  A    between atoms: O_1  and  C_2
REMARK    2  A    between atoms: C_4  and  C_5
REMARK    3  A    between atoms: C_6  and  C_12
REMARK    4  A    between atoms: C_21  and  C_46
REMARK    5  A    between atoms: C_22  and  O_42
REMARK    6  A    between atoms: C_27  and  O_29
REMARK    7  A    between atoms: C_30  and  C_41
REMARK    8  A    between atoms: C_31  and  C_33
REMARK    9  A    between atoms: C_33  and  C_35
REMARK   10  A    between atoms: C_33  and  O_39
REMARK   11  A    between atoms: C_35  and  O_37
REMARK   12  A    between atoms: O_37  and  C_38
REMARK   13  A    between atoms: O_42  and  C_43
REMARK   14  A    between atoms: C_43  and  C_45
REMARK                            x       y       z     vdW  Elec       q    Type
REMARK                         _______ _______ _______ _____ _____    ______ ____
ROOT
ATOM      1  C   LIG A   1      -5.979   0.386 129.197  0.00  0.00    +0.108 C 
ATOM      2  C   LIG A   1      -6.737  -0.863 128.748  0.00  0.00    +0.118 C 
ATOM      3  C   LIG A   1      -7.022  -0.830 127.187  0.00  0.00    +0.042 C 
ATOM      4  C   LIG A   1      -8.240  -1.733 126.875  0.00  0.00    +0.018 C 
ATOM      5  C   LIG A   1      -5.735  -1.353 126.449  0.00  0.00    +0.218 C 
ATOM      6  O   LIG A   1      -5.255  -2.602 126.976  0.00  0.00    -0.456 OA
ATOM      7  C   LIG A   1      -5.008  -2.686 128.297  0.00  0.00    +0.311 C 
ATOM      8  O   LIG A   1      -4.073  -3.341 128.738  0.00  0.00    -0.251 OA
ATOM      9  C   LIG A   1      -6.112  -2.193 129.170  0.00  0.00    +0.159 C 
ATOM     10  C   LIG A   1      -7.379   0.611 126.641  0.00  0.00    +0.014 C 
ATOM     11  C   LIG A   1      -6.622   1.794 127.265  0.00  0.00    +0.008 C 
ATOM     12  C   LIG A   1      -6.797   1.622 128.758  0.00  0.00    +0.034 C 
ATOM     13  C   LIG A   1      -6.604   2.727 129.828  0.00  0.00    +0.020 C 
ATOM     14  C   LIG A   1      -5.920   1.957 131.025  0.00  0.00    +0.128 C 
ATOM     15  C   LIG A   1      -6.126   0.457 130.686  0.00  0.00    +0.100 C 
ATOM     16  C   LIG A   1      -7.533  -0.143 130.875  0.00  0.00    +0.158 C 
ATOM     17  O   LIG A   1      -7.935  -0.749 129.589  0.00  0.00    -0.363 OA
ATOM     18  C   LIG A   1      -8.648   0.823 131.343  0.00  0.00    +0.150 C 
ATOM     19  C   LIG A   1      -8.170   2.250 131.751  0.00  0.00    +0.006 C 
ATOM     20  C   LIG A   1      -7.961   3.214 130.513  0.00  0.00    +0.047 C 
ATOM     21  C   LIG A   1      -6.730   2.200 132.293  0.00  0.00    +0.058 C 
ATOM     22  C   LIG A   1      -9.049   2.853 132.861  0.00  0.00    +0.014 C 
ATOM     23  C   LIG A   1      -5.827   3.911 129.243  0.00  0.00    +0.016 C 
ENDROOT
BRANCH   5  24
ATOM     24  C   LIG A   1      -5.889  -1.524 124.955  0.00  0.00    +0.031 A 
ATOM     25  C   LIG A   1      -5.468  -2.631 124.154  0.00  0.00    +0.048 A 
ATOM     26  C   LIG A   1      -5.811  -2.335 122.858  0.00  0.00    +0.195 A 
ATOM     27  O   LIG A   1      -6.400  -1.116 122.792  0.00  0.00    -0.471 OA
ATOM     28  C   LIG A   1      -6.426  -0.622 124.055  0.00  0.00    +0.202 A 
ENDBRANCH   5  24
BRANCH   1  29
ATOM     29  O   LIG A   1      -4.631   0.403 128.782  0.00  0.00    -0.385 OA
ATOM     30  H   LIG A   1      -4.555  -0.092 127.943  0.00  0.00    +0.210 HD
ENDBRANCH   1  29
BRANCH  18  31
ATOM     31  O   LIG A   1      -9.311   0.196 132.451  0.00  0.00    -0.389 OA
ATOM     32  H   LIG A   1     -10.269   0.227 132.268  0.00  0.00    +0.210 HD
ENDBRANCH  18  31
BRANCH  20  33
ATOM     33  C   LIG A   1      -9.159   3.455 129.556  0.00  0.00    +0.227 C 
BRANCH  33  34
ATOM     34  C   LIG A   1     -10.341   4.111 130.281  0.00  0.00    +0.336 C 
ATOM     35  O   LIG A   1     -11.470   3.651 130.364  0.00  0.00    -0.248 OA
BRANCH  34  36
ATOM     36  O   LIG A   1      -9.923   5.307 130.784  0.00  0.00    -0.466 OA
ATOM     37  C   LIG A   1     -10.847   6.019 131.608  0.00  0.00    +0.280 C 
ENDBRANCH  34  36
ENDBRANCH  33  34
BRANCH  33  38
ATOM     38  O   LIG A   1      -8.726   4.264 128.465  0.00  0.00    -0.380 OA
ATOM     39  H   LIG A   1      -9.098   3.889 127.648  0.00  0.00    +0.210 HD
ENDBRANCH  33  38
ENDBRANCH  20  33
BRANCH  14  40
ATOM     40  O   LIG A   1      -4.496   2.213 131.061  0.00  0.00    -0.457 OA
BRANCH  40  41
ATOM     41  C   LIG A   1      -3.935   2.859 132.128  0.00  0.00    +0.304 C 
ATOM     42  O   LIG A   1      -3.942   4.057 132.339  0.00  0.00    -0.251 OA
ATOM     43  C   LIG A   1      -3.193   1.891 133.003  0.00  0.00    +0.136 C 
ENDBRANCH  40  41
ENDBRANCH  14  40
TORSDOF 9
ENDMDL
MODEL 4
REMARK VINA RESULT:      -8.2      2.433      6.412
REMARK  Name = NuBBE_2011
REMARK  14 active torsions:
REMARK  status: ('A' for Active; 'I' for Inactive)
REMARK    1  A    between atoms: O_1  and  C_2
REMARK    2  A    between atoms: C_4  and  C_5
REMARK    3  A    between atoms: C_6  and  C_12
REMARK    4  A    between atoms: C_21  and  C_46
REMARK    5  A    between atoms: C_22  and  O_42
REMARK    6  A    between atoms: C_27  and  O_29
REMARK    7  A    between atoms: C_30  and  C_41
REMARK    8  A    between atoms: C_31  and  C_33
REMARK    9  A    between atoms: C_33  and  C_35
REMARK   10  A    between atoms: C_33  and  O_39
REMARK   11  A    between atoms: C_35  and  O_37
REMARK   12  A    between atoms: O_37  and  C_38
REMARK   13  A    between atoms: O_42  and  C_43
REMARK   14  A    between atoms: C_43  and  C_45
REMARK                            x       y       z     vdW  Elec       q    Type
REMARK                         _______ _______ _______ _____ _____    ______ ____
ROOT
ATOM      1  C   LIG A   1      -5.949   2.158 132.345  0.00  0.00    +0.108 C 
ATOM      2  C   LIG A   1      -6.608   0.930 132.973  0.00  0.00    +0.118 C 
ATOM      3  C   LIG A   1      -6.645  -0.285 131.951  0.00  0.00    +0.042 C 
ATOM      4  C   LIG A   1      -7.785  -1.252 132.354  0.00  0.00    +0.018 C 
ATOM      5  C   LIG A   1      -5.250  -1.009 132.011  0.00  0.00    +0.218 C 
ATOM      6  O   LIG A   1      -4.840  -1.326 133.352  0.00  0.00    -0.456 OA
ATOM      7  C   LIG A   1      -4.802  -0.333 134.261  0.00  0.00    +0.311 C 
ATOM      8  O   LIG A   1      -3.938  -0.283 135.126  0.00  0.00    -0.251 OA
ATOM      9  C   LIG A   1      -6.036   0.501 134.324  0.00  0.00    +0.159 C 
ATOM     10  C   LIG A   1      -6.934   0.154 130.459  0.00  0.00    +0.014 C 
ATOM     11  C   LIG A   1      -6.302   1.475 129.992  0.00  0.00    +0.008 C 
ATOM     12  C   LIG A   1      -6.706   2.489 131.039  0.00  0.00    +0.034 C 
ATOM     13  C   LIG A   1      -6.701   4.030 130.861  0.00  0.00    +0.020 C 
ATOM     14  C   LIG A   1      -6.202   4.555 132.265  0.00  0.00    +0.128 C 
ATOM     15  C   LIG A   1      -6.328   3.326 133.204  0.00  0.00    +0.100 C 
ATOM     16  C   LIG A   1      -7.738   2.909 133.666  0.00  0.00    +0.158 C 
ATOM     17  O   LIG A   1      -7.924   1.489 133.302  0.00  0.00    -0.363 OA
ATOM     18  C   LIG A   1      -8.928   3.728 133.108  0.00  0.00    +0.150 C 
ATOM     19  C   LIG A   1      -8.542   4.999 132.293  0.00  0.00    +0.006 C 
ATOM     20  C   LIG A   1      -8.156   4.682 130.791  0.00  0.00    +0.047 C 
ATOM     21  C   LIG A   1      -7.204   5.573 132.793  0.00  0.00    +0.058 C 
ATOM     22  C   LIG A   1      -9.593   6.114 132.438  0.00  0.00    +0.014 C 
ATOM     23  C   LIG A   1      -5.859   4.427 129.644  0.00  0.00    +0.016 C 
ENDROOT
BRANCH   5  24
ATOM     24  C   LIG A   1      -5.166  -2.283 131.202  0.00  0.00    +0.031 A 
ATOM     25  C   LIG A   1      -5.522  -3.606 131.613  0.00  0.00    +0.048 A 
ATOM     26  C   LIG A   1      -5.265  -4.435 130.549  0.00  0.00    +0.195 A 
ATOM     27  O   LIG A   1      -4.757  -3.726 129.511  0.00  0.00    -0.471 OA
ATOM     28  C   LIG A   1      -4.680  -2.434 129.916  0.00  0.00    +0.202 A 
ENDBRANCH   5  24
BRANCH   1  29
ATOM     29  O   LIG A   1      -4.553   2.028 132.191  0.00  0.00    -0.385 OA
ATOM     30  H   LIG A   1      -4.180   2.901 131.959  0.00  0.00    +0.210 HD
ENDBRANCH   1  29
BRANCH  18  31
ATOM     31  O   LIG A   1      -9.747   4.097 134.228  0.00  0.00    -0.389 OA
ATOM     32  H   LIG A   1     -10.535   3.521 134.210  0.00  0.00    +0.210 HD
ENDBRANCH  18  31
BRANCH  20  33
ATOM     33  C   LIG A   1      -9.192   3.941 129.904  0.00  0.00    +0.227 C 
BRANCH  33  34
ATOM     34  C   LIG A   1     -10.487   4.750 129.749  0.00  0.00    +0.336 C 
ATOM     35  O   LIG A   1     -11.585   4.423 130.174  0.00  0.00    -0.248 OA
BRANCH  34  36
ATOM     36  O   LIG A   1     -10.206   5.873 129.030  0.00  0.00    -0.466 OA
ATOM     37  C   LIG A   1     -11.124   6.961 129.145  0.00  0.00    +0.280 C 
ENDBRANCH  34  36
ENDBRANCH  33  34
BRANCH  33  38
ATOM     38  O   LIG A   1      -8.609   3.678 128.630  0.00  0.00    -0.380 OA
ATOM     39  H   LIG A   1      -7.666   3.915 128.678  0.00  0.00    +0.210 HD
ENDBRANCH  33  38
ENDBRANCH  20  33
BRANCH  14  40
ATOM     40  O   LIG A   1      -4.805   4.930 132.212  0.00  0.00    -0.457 OA
BRANCH  40  41
ATOM     41  C   LIG A   1      -4.391   6.134 132.714  0.00  0.00    +0.304 C 
ATOM     42  O   LIG A   1      -4.296   6.439 133.887  0.00  0.00    -0.251 OA
ATOM     43  C   LIG A   1      -4.146   7.114 131.604  0.00  0.00    +0.136 C 
ENDBRANCH  40  41
ENDBRANCH  14  40
TORSDOF 9
ENDMDL
MODEL 5
REMARK VINA RESULT:      -8.2      2.538      6.784
REMARK  Name = NuBBE_2011
REMARK  14 active torsions:
REMARK  status: ('A' for Active; 'I' for Inactive)
REMARK    1  A    between atoms: O_1  and  C_2
REMARK    2  A    between atoms: C_4  and  C_5
REMARK    3  A    between atoms: C_6  and  C_12
REMARK    4  A    between atoms: C_21  and  C_46
REMARK    5  A    between atoms: C_22  and  O_42
REMARK    6  A    between atoms: C_27  and  O_29
REMARK    7  A    between atoms: C_30  and  C_41
REMARK    8  A    between atoms: C_31  and  C_33
REMARK    9  A    between atoms: C_33  and  C_35
REMARK   10  A    between atoms: C_33  and  O_39
REMARK   11  A    between atoms: C_35  and  O_37
REMARK   12  A    between atoms: O_37  and  C_38
REMARK   13  A    between atoms: O_42  and  C_43
REMARK   14  A    between atoms: C_43  and  C_45
REMARK                            x       y       z     vdW  Elec       q    Type
REMARK                         _______ _______ _______ _____ _____    ______ ____
ROOT
ATOM      1  C   LIG A   1      -8.095   3.303 129.467  0.00  0.00    +0.108 C 
ATOM      2  C   LIG A   1      -7.006   3.002 128.437  0.00  0.00    +0.118 C 
ATOM      3  C   LIG A   1      -6.919   1.446 128.135  0.00  0.00    +0.042 C 
ATOM      4  C   LIG A   1      -5.506   1.112 127.598  0.00  0.00    +0.018 C 
ATOM      5  C   LIG A   1      -8.020   1.098 127.066  0.00  0.00    +0.218 C 
ATOM      6  O   LIG A   1      -7.982   1.966 125.920  0.00  0.00    -0.456 OA
ATOM      7  C   LIG A   1      -8.042   3.296 126.123  0.00  0.00    +0.311 C 
ATOM      8  O   LIG A   1      -8.642   4.038 125.357  0.00  0.00    -0.251 OA
ATOM      9  C   LIG A   1      -7.088   3.814 127.144  0.00  0.00    +0.159 C 
ATOM     10  C   LIG A   1      -7.139   0.541 129.414  0.00  0.00    +0.014 C 
ATOM     11  C   LIG A   1      -8.186   1.025 130.430  0.00  0.00    +0.008 C 
ATOM     12  C   LIG A   1      -7.804   2.458 130.728  0.00  0.00    +0.034 C 
ATOM     13  C   LIG A   1      -8.248   3.278 131.966  0.00  0.00    +0.020 C 
ATOM     14  C   LIG A   1      -8.493   4.722 131.375  0.00  0.00    +0.128 C 
ATOM     15  C   LIG A   1      -7.823   4.685 129.977  0.00  0.00    +0.100 C 
ATOM     16  C   LIG A   1      -6.284   4.730 129.909  0.00  0.00    +0.158 C 
ATOM     17  O   LIG A   1      -5.839   3.554 129.133  0.00  0.00    -0.363 OA
ATOM     18  C   LIG A   1      -5.525   4.755 131.258  0.00  0.00    +0.150 C 
ATOM     19  C   LIG A   1      -6.417   4.925 132.525  0.00  0.00    +0.006 C 
ATOM     20  C   LIG A   1      -7.076   3.570 133.010  0.00  0.00    +0.047 C 
ATOM     21  C   LIG A   1      -7.686   5.728 132.186  0.00  0.00    +0.058 C 
ATOM     22  C   LIG A   1      -5.685   5.690 133.643  0.00  0.00    +0.014 C 
ATOM     23  C   LIG A   1      -9.443   2.608 132.654  0.00  0.00    +0.016 C 
ENDROOT
BRANCH   5  24
ATOM     24  C   LIG A   1      -7.977  -0.324 126.555  0.00  0.00    +0.031 A 
ATOM     25  C   LIG A   1      -8.141  -1.529 127.307  0.00  0.00    +0.048 A 
ATOM     26  C   LIG A   1      -8.012  -2.570 126.422  0.00  0.00    +0.195 A 
ATOM     27  O   LIG A   1      -7.761  -2.100 125.175  0.00  0.00    -0.471 OA
ATOM     28  C   LIG A   1      -7.720  -0.748 125.264  0.00  0.00    +0.202 A 
ENDBRANCH   5  24
BRANCH   1  29
ATOM     29  O   LIG A   1      -9.403   3.159 128.960  0.00  0.00    -0.385 OA
ATOM     30  H   LIG A   1     -10.035   3.503 129.620  0.00  0.00    +0.210 HD
ENDBRANCH   1  29
BRANCH  18  31
ATOM     31  O   LIG A   1      -4.572   5.826 131.186  0.00  0.00    -0.389 OA
ATOM     32  H   LIG A   1      -4.546   6.125 130.257  0.00  0.00    +0.210 HD
ENDBRANCH  18  31
BRANCH  20  33
ATOM     33  C   LIG A   1      -6.144   2.374 133.338  0.00  0.00    +0.227 C 
BRANCH  33  34
ATOM     34  C   LIG A   1      -5.122   2.732 134.426  0.00  0.00    +0.336 C 
ATOM     35  O   LIG A   1      -5.379   2.946 135.601  0.00  0.00    -0.248 OA
BRANCH  34  36
ATOM     36  O   LIG A   1      -3.890   2.803 133.848  0.00  0.00    -0.466 OA
ATOM     37  C   LIG A   1      -3.627   1.899 132.774  0.00  0.00    +0.280 C 
ENDBRANCH  34  36
ENDBRANCH  33  34
BRANCH  33  38
ATOM     38  O   LIG A   1      -6.940   1.262 133.743  0.00  0.00    -0.380 OA
ATOM     39  H   LIG A   1      -7.319   0.858 132.943  0.00  0.00    +0.210 HD
ENDBRANCH  33  38
ENDBRANCH  20  33
BRANCH  14  40
ATOM     40  O   LIG A   1      -9.906   4.972 131.184  0.00  0.00    -0.457 OA
BRANCH  40  41
ATOM     41  C   LIG A   1     -10.443   6.192 131.493  0.00  0.00    +0.304 C 
ATOM     42  O   LIG A   1     -10.848   6.554 132.580  0.00  0.00    -0.251 OA
ATOM     43  C   LIG A   1     -10.568   7.041 130.262  0.00  0.00    +0.136 C 
ENDBRANCH  40  41
ENDBRANCH  14  40
TORSDOF 9
ENDMDL
MODEL 6
REMARK VINA RESULT:      -8.1      2.399      7.039
REMARK  Name = NuBBE_2011
REMARK  14 active torsions:
REMARK  status: ('A' for Active; 'I' for Inactive)
REMARK    1  A    between atoms: O_1  and  C_2
REMARK    2  A    between atoms: C_4  and  C_5
REMARK    3  A    between atoms: C_6  and  C_12
REMARK    4  A    between atoms: C_21  and  C_46
REMARK    5  A    between atoms: C_22  and  O_42
REMARK    6  A    between atoms: C_27  and  O_29
REMARK    7  A    between atoms: C_30  and  C_41
REMARK    8  A    between atoms: C_31  and  C_33
REMARK    9  A    between atoms: C_33  and  C_35
REMARK   10  A    between atoms: C_33  and  O_39
REMARK   11  A    between atoms: C_35  and  O_37
REMARK   12  A    between atoms: O_37  and  C_38
REMARK   13  A    between atoms: O_42  and  C_43
REMARK   14  A    between atoms: C_43  and  C_45
REMARK                            x       y       z     vdW  Elec       q    Type
REMARK                         _______ _______ _______ _____ _____    ______ ____
ROOT
ATOM      1  C   LIG A   1      -5.436   1.361 128.832  0.00  0.00    +0.108 C 
ATOM      2  C   LIG A   1      -5.829   0.319 129.880  0.00  0.00    +0.118 C 
ATOM      3  C   LIG A   1      -7.128  -0.477 129.435  0.00  0.00    +0.042 C 
ATOM      4  C   LIG A   1      -7.824  -1.055 130.692  0.00  0.00    +0.018 C 
ATOM      5  C   LIG A   1      -6.679  -1.630 128.464  0.00  0.00    +0.218 C 
ATOM      6  O   LIG A   1      -5.605  -2.424 128.995  0.00  0.00    -0.456 OA
ATOM      7  C   LIG A   1      -4.484  -1.795 129.397  0.00  0.00    +0.311 C 
ATOM      8  O   LIG A   1      -3.376  -2.289 129.239  0.00  0.00    -0.251 OA
ATOM      9  C   LIG A   1      -4.712  -0.634 130.304  0.00  0.00    +0.159 C 
ATOM     10  C   LIG A   1      -8.202   0.425 128.702  0.00  0.00    +0.014 C 
ATOM     11  C   LIG A   1      -7.662   1.515 127.762  0.00  0.00    +0.008 C 
ATOM     12  C   LIG A   1      -6.656   2.280 128.593  0.00  0.00    +0.034 C 
ATOM     13  C   LIG A   1      -6.128   3.707 128.295  0.00  0.00    +0.020 C 
ATOM     14  C   LIG A   1      -4.602   3.619 128.693  0.00  0.00    +0.128 C 
ATOM     15  C   LIG A   1      -4.491   2.306 129.511  0.00  0.00    +0.100 C 
ATOM     16  C   LIG A   1      -5.046   2.299 130.949  0.00  0.00    +0.158 C 
ATOM     17  O   LIG A   1      -6.018   1.190 131.046  0.00  0.00    -0.363 OA
ATOM     18  C   LIG A   1      -5.721   3.601 131.445  0.00  0.00    +0.150 C 
ATOM     19  C   LIG A   1      -5.588   4.828 130.493  0.00  0.00    +0.006 C 
ATOM     20  C   LIG A   1      -6.647   4.819 129.315  0.00  0.00    +0.047 C 
ATOM     21  C   LIG A   1      -4.286   4.738 129.678  0.00  0.00    +0.058 C 
ATOM     22  C   LIG A   1      -5.543   6.155 131.271  0.00  0.00    +0.014 C 
ATOM     23  C   LIG A   1      -6.436   4.101 126.847  0.00  0.00    +0.016 C 
ENDROOT
BRANCH   5  24
ATOM     24  C   LIG A   1      -7.784  -2.581 128.060  0.00  0.00    +0.031 A 
ATOM     25  C   LIG A   1      -8.500  -2.614 126.823  0.00  0.00    +0.048 A 
ATOM     26  C   LIG A   1      -9.410  -3.638 126.919  0.00  0.00    +0.195 A 
ATOM     27  O   LIG A   1      -9.324  -4.232 128.134  0.00  0.00    -0.471 OA
ATOM     28  C   LIG A   1      -8.358  -3.579 128.825  0.00  0.00    +0.202 A 
ENDBRANCH   5  24
BRANCH   1  29
ATOM     29  O   LIG A   1      -4.892   0.799 127.659  0.00  0.00    -0.385 OA
ATOM     30  H   LIG A   1      -5.620   0.432 127.121  0.00  0.00    +0.210 HD
ENDBRANCH   1  29
BRANCH  18  31
ATOM     31  O   LIG A   1      -5.148   3.912 132.724  0.00  0.00    -0.389 OA
ATOM     32  H   LIG A   1      -4.752   3.090 133.069  0.00  0.00    +0.210 HD
ENDBRANCH  18  31
BRANCH  20  33
ATOM     33  C   LIG A   1      -8.154   4.760 129.679  0.00  0.00    +0.227 C 
BRANCH  33  34
ATOM     34  C   LIG A   1      -8.569   5.937 130.572  0.00  0.00    +0.336 C 
ATOM     35  O   LIG A   1      -8.558   7.115 130.248  0.00  0.00    -0.248 OA
BRANCH  34  36
ATOM     36  O   LIG A   1      -8.919   5.444 131.794  0.00  0.00    -0.466 OA
ATOM     37  C   LIG A   1     -10.080   6.004 132.408  0.00  0.00    +0.280 C 
ENDBRANCH  34  36
ENDBRANCH  33  34
BRANCH  33  38
ATOM     38  O   LIG A   1      -8.921   4.745 128.478  0.00  0.00    -0.380 OA
ATOM     39  H   LIG A   1      -9.546   4.000 128.530  0.00  0.00    +0.210 HD
ENDBRANCH  33  38
ENDBRANCH  20  33
BRANCH  14  40
ATOM     40  O   LIG A   1      -3.767   3.482 127.519  0.00  0.00    -0.457 OA
BRANCH  40  41
ATOM     41  C   LIG A   1      -2.505   4.011 127.501  0.00  0.00    +0.304 C 
ATOM     42  O   LIG A   1      -2.179   5.130 127.846  0.00  0.00    -0.251 OA
ATOM     43  C   LIG A   1      -1.535   3.042 126.890  0.00  0.00    +0.136 C 
ENDBRANCH  40  41
ENDBRANCH  14  40
TORSDOF 9
ENDMDL
MODEL 7
REMARK VINA RESULT:      -8.0      2.158      6.774
REMARK  Name = NuBBE_2011
REMARK  14 active torsions:
REMARK  status: ('A' for Active; 'I' for Inactive)
REMARK    1  A    between atoms: O_1  and  C_2
REMARK    2  A    between atoms: C_4  and  C_5
REMARK    3  A    between atoms: C_6  and  C_12
REMARK    4  A    between atoms: C_21  and  C_46
REMARK    5  A    between atoms: C_22  and  O_42
REMARK    6  A    between atoms: C_27  and  O_29
REMARK    7  A    between atoms: C_30  and  C_41
REMARK    8  A    between atoms: C_31  and  C_33
REMARK    9  A    between atoms: C_33  and  C_35
REMARK   10  A    between atoms: C_33  and  O_39
REMARK   11  A    between atoms: C_35  and  O_37
REMARK   12  A    between atoms: O_37  and  C_38
REMARK   13  A    between atoms: O_42  and  C_43
REMARK   14  A    between atoms: C_43  and  C_45
REMARK                            x       y       z     vdW  Elec       q    Type
REMARK                         _______ _______ _______ _____ _____    ______ ____
ROOT
ATOM      1  C   LIG A   1      -6.705   4.845 130.686  0.00  0.00    +0.108 C 
ATOM      2  C   LIG A   1      -7.900   4.021 130.207  0.00  0.00    +0.118 C 
ATOM      3  C   LIG A   1      -9.251   4.538 130.861  0.00  0.00    +0.042 C 
ATOM      4  C   LIG A   1     -10.290   3.391 130.853  0.00  0.00    +0.018 C 
ATOM      5  C   LIG A   1      -9.761   5.762 130.015  0.00  0.00    +0.218 C 
ATOM      6  O   LIG A   1      -9.810   5.486 128.605  0.00  0.00    -0.456 OA
ATOM      7  C   LIG A   1      -8.693   5.035 128.003  0.00  0.00    +0.311 C 
ATOM      8  O   LIG A   1      -8.395   5.370 126.864  0.00  0.00    -0.251 OA
ATOM      9  C   LIG A   1      -8.035   3.888 128.690  0.00  0.00    +0.159 C 
ATOM     10  C   LIG A   1      -9.089   4.987 132.370  0.00  0.00    +0.014 C 
ATOM     11  C   LIG A   1      -7.782   5.705 132.741  0.00  0.00    +0.008 C 
ATOM     12  C   LIG A   1      -6.684   4.799 132.230  0.00  0.00    +0.034 C 
ATOM     13  C   LIG A   1      -5.203   4.820 132.689  0.00  0.00    +0.020 C 
ATOM     14  C   LIG A   1      -4.406   4.554 131.351  0.00  0.00    +0.128 C 
ATOM     15  C   LIG A   1      -5.482   4.045 130.356  0.00  0.00    +0.100 C 
ATOM     16  C   LIG A   1      -6.010   2.608 130.532  0.00  0.00    +0.158 C 
ATOM     17  O   LIG A   1      -7.481   2.686 130.648  0.00  0.00    -0.363 OA
ATOM     18  C   LIG A   1      -5.456   1.800 131.731  0.00  0.00    +0.150 C 
ATOM     19  C   LIG A   1      -4.284   2.474 132.507  0.00  0.00    +0.006 C 
ATOM     20  C   LIG A   1      -4.773   3.553 133.558  0.00  0.00    +0.047 C 
ATOM     21  C   LIG A   1      -3.464   3.376 131.567  0.00  0.00    +0.058 C 
ATOM     22  C   LIG A   1      -3.313   1.434 133.095  0.00  0.00    +0.014 C 
ATOM     23  C   LIG A   1      -4.887   6.126 133.426  0.00  0.00    +0.016 C 
ENDROOT
BRANCH   5  24
ATOM     24  C   LIG A   1     -11.121   6.285 130.418  0.00  0.00    +0.031 A 
ATOM     25  C   LIG A   1     -12.206   6.652 129.563  0.00  0.00    +0.048 A 
ATOM     26  C   LIG A   1     -13.227   7.077 130.377  0.00  0.00    +0.195 A 
ATOM     27  O   LIG A   1     -12.849   7.018 131.677  0.00  0.00    -0.471 OA
ATOM     28  C   LIG A   1     -11.573   6.560 131.696  0.00  0.00    +0.202 A 
ENDBRANCH   5  24
BRANCH   1  29
ATOM     29  O   LIG A   1      -6.666   6.146 130.142  0.00  0.00    -0.385 OA
ATOM     30  H   LIG A   1      -7.438   6.646 130.471  0.00  0.00    +0.210 HD
ENDBRANCH   1  29
BRANCH  18  31
ATOM     31  O   LIG A   1      -5.034   0.527 131.221  0.00  0.00    -0.389 OA
ATOM     32  H   LIG A   1      -5.404   0.439 130.323  0.00  0.00    +0.210 HD
ENDBRANCH  18  31
BRANCH  20  33
ATOM     33  C   LIG A   1      -5.774   3.109 134.657  0.00  0.00    +0.227 C 
BRANCH  33  34
ATOM     34  C   LIG A   1      -5.255   1.897 135.443  0.00  0.00    +0.336 C 
ATOM     35  O   LIG A   1      -4.315   1.903 136.222  0.00  0.00    -0.248 OA
BRANCH  34  36
ATOM     36  O   LIG A   1      -6.002   0.811 135.095  0.00  0.00    -0.466 OA
ATOM     37  C   LIG A   1      -5.611  -0.446 135.648  0.00  0.00    +0.280 C 
ENDBRANCH  34  36
ENDBRANCH  33  34
BRANCH  33  38
ATOM     38  O   LIG A   1      -6.019   4.207 135.533  0.00  0.00    -0.380 OA
ATOM     39  H   LIG A   1      -5.605   4.998 135.145  0.00  0.00    +0.210 HD
ENDBRANCH  33  38
ENDBRANCH  20  33
BRANCH  14  40
ATOM     40  O   LIG A   1      -3.857   5.783 130.821  0.00  0.00    -0.457 OA
BRANCH  40  41
ATOM     41  C   LIG A   1      -2.659   5.779 130.159  0.00  0.00    +0.304 C 
ATOM     42  O   LIG A   1      -2.440   5.323 129.053  0.00  0.00    -0.251 OA
ATOM     43  C   LIG A   1      -1.572   6.342 131.028  0.00  0.00    +0.136 C 
ENDBRANCH  40  41
ENDBRANCH  14  40
TORSDOF 9
ENDMDL
MODEL 8
REMARK VINA RESULT:      -7.9      4.591      7.841
REMARK  Name = NuBBE_2011
REMARK  14 active torsions:
REMARK  status: ('A' for Active; 'I' for Inactive)
REMARK    1  A    between atoms: O_1  and  C_2
REMARK    2  A    between atoms: C_4  and  C_5
REMARK    3  A    between atoms: C_6  and  C_12
REMARK    4  A    between atoms: C_21  and  C_46
REMARK    5  A    between atoms: C_22  and  O_42
REMARK    6  A    between atoms: C_27  and  O_29
REMARK    7  A    between atoms: C_30  and  C_41
REMARK    8  A    between atoms: C_31  and  C_33
REMARK    9  A    between atoms: C_33  and  C_35
REMARK   10  A    between atoms: C_33  and  O_39
REMARK   11  A    between atoms: C_35  and  O_37
REMARK   12  A    between atoms: O_37  and  C_38
REMARK   13  A    between atoms: O_42  and  C_43
REMARK   14  A    between atoms: C_43  and  C_45
REMARK                            x       y       z     vdW  Elec       q    Type
REMARK                         _______ _______ _______ _____ _____    ______ ____
ROOT
ATOM      1  C   LIG A   1      -6.177  -1.013 126.984  0.00  0.00    +0.108 C 
ATOM      2  C   LIG A   1      -7.371  -1.165 126.041  0.00  0.00    +0.118 C 
ATOM      3  C   LIG A   1      -7.793   0.234 125.421  0.00  0.00    +0.042 C 
ATOM      4  C   LIG A   1      -9.277   0.169 124.986  0.00  0.00    +0.018 C 
ATOM      5  C   LIG A   1      -6.860   0.517 124.186  0.00  0.00    +0.218 C 
ATOM      6  O   LIG A   1      -6.798  -0.587 123.267  0.00  0.00    -0.456 OA
ATOM      7  C   LIG A   1      -6.455  -1.798 123.745  0.00  0.00    +0.311 C 
ATOM      8  O   LIG A   1      -5.770  -2.577 123.095  0.00  0.00    -0.251 OA
ATOM      9  C   LIG A   1      -7.213  -2.228 124.954  0.00  0.00    +0.159 C 
ATOM     10  C   LIG A   1      -7.676   1.438 126.441  0.00  0.00    +0.014 C 
ATOM     11  C   LIG A   1      -6.487   1.405 127.415  0.00  0.00    +0.008 C 
ATOM     12  C   LIG A   1      -6.549   0.036 128.056  0.00  0.00    +0.034 C 
ATOM     13  C   LIG A   1      -5.865  -0.376 129.385  0.00  0.00    +0.020 C 
ATOM     14  C   LIG A   1      -5.372  -1.849 129.097  0.00  0.00    +0.128 C 
ATOM     15  C   LIG A   1      -6.128  -2.263 127.808  0.00  0.00    +0.100 C 
ATOM     16  C   LIG A   1      -7.627  -2.602 127.924  0.00  0.00    +0.158 C 
ATOM     17  O   LIG A   1      -8.353  -1.742 126.966  0.00  0.00    -0.363 OA
ATOM     18  C   LIG A   1      -8.273  -2.449 129.322  0.00  0.00    +0.150 C 
ATOM     19  C   LIG A   1      -7.282  -2.152 130.488  0.00  0.00    +0.006 C 
ATOM     20  C   LIG A   1      -6.881  -0.624 130.591  0.00  0.00    +0.047 C 
ATOM     21  C   LIG A   1      -5.902  -2.767 130.191  0.00  0.00    +0.058 C 
ATOM     22  C   LIG A   1      -7.766  -2.754 131.820  0.00  0.00    +0.014 C 
ATOM     23  C   LIG A   1      -4.788   0.643 129.773  0.00  0.00    +0.016 C 
ENDROOT
BRANCH   5  24
ATOM     24  C   LIG A   1      -7.225   1.747 123.388  0.00  0.00    +0.031 A 
ATOM     25  C   LIG A   1      -8.432   1.992 122.660  0.00  0.00    +0.048 A 
ATOM     26  C   LIG A   1      -8.306   3.234 122.090  0.00  0.00    +0.195 A 
ATOM     27  O   LIG A   1      -7.101   3.773 122.395  0.00  0.00    -0.471 OA
ATOM     28  C   LIG A   1      -6.445   2.866 123.159  0.00  0.00    +0.202 A 
ENDBRANCH   5  24
BRANCH   1  29
ATOM     29  O   LIG A   1      -4.964  -0.755 126.315  0.00  0.00    -0.385 OA
ATOM     30  H   LIG A   1      -5.079   0.032 125.747  0.00  0.00    +0.210 HD
ENDBRANCH   1  29
BRANCH  18  31
ATOM     31  O   LIG A   1      -8.991  -3.663 129.590  0.00  0.00    -0.389 OA
ATOM     32  H   LIG A   1      -9.638  -3.465 130.293  0.00  0.00    +0.210 HD
ENDBRANCH  18  31
BRANCH  20  33
ATOM     33  C   LIG A   1      -8.013   0.425 130.755  0.00  0.00    +0.227 C 
BRANCH  33  34
ATOM     34  C   LIG A   1      -8.315   0.708 132.233  0.00  0.00    +0.336 C 
ATOM     35  O   LIG A   1      -7.639   0.339 133.181  0.00  0.00    -0.248 OA
BRANCH  34  36
ATOM     36  O   LIG A   1      -9.481   1.410 132.303  0.00  0.00    -0.466 OA
ATOM     37  C   LIG A   1      -9.433   2.678 132.958  0.00  0.00    +0.280 C 
ENDBRANCH  34  36
ENDBRANCH  33  34
BRANCH  33  38
ATOM     38  O   LIG A   1      -7.636   1.623 130.081  0.00  0.00    -0.380 OA
ATOM     39  H   LIG A   1      -8.164   2.353 130.450  0.00  0.00    +0.210 HD
ENDBRANCH  33  38
ENDBRANCH  20  33
BRANCH  14  40
ATOM     40  O   LIG A   1      -3.954  -1.874 128.808  0.00  0.00    -0.457 OA
BRANCH  40  41
ATOM     41  C   LIG A   1      -3.101  -2.607 129.586  0.00  0.00    +0.304 C 
ATOM     42  O   LIG A   1      -2.562  -2.245 130.614  0.00  0.00    -0.251 OA
ATOM     43  C   LIG A   1      -2.816  -3.937 128.952  0.00  0.00    +0.136 C 
ENDBRANCH  40  41
ENDBRANCH  14  40
TORSDOF 9
ENDMDL
MODEL 9
REMARK VINA RESULT:      -7.9      3.436      6.870
REMARK  Name = NuBBE_2011
REMARK  14 active torsions:
REMARK  status: ('A' for Active; 'I' for Inactive)
REMARK    1  A    between atoms: O_1  and  C_2
REMARK    2  A    between atoms: C_4  and  C_5
REMARK    3  A    between atoms: C_6  and  C_12
REMARK    4  A    between atoms: C_21  and  C_46
REMARK    5  A    between atoms: C_22  and  O_42
REMARK    6  A    between atoms: C_27  and  O_29
REMARK    7  A    between atoms: C_30  and  C_41
REMARK    8  A    between atoms: C_31  and  C_33
REMARK    9  A    between atoms: C_33  and  C_35
REMARK   10  A    between atoms: C_33  and  O_39
REMARK   11  A    between atoms: C_35  and  O_37
REMARK   12  A    between atoms: O_37  and  C_38
REMARK   13  A    between atoms: O_42  and  C_43
REMARK   14  A    between atoms: C_43  and  C_45
REMARK                            x       y       z     vdW  Elec       q    Type
REMARK                         _______ _______ _______ _____ _____    ______ ____
ROOT
ATOM      1  C   LIG A   1      -6.703   0.242 130.656  0.00  0.00    +0.108 C 
ATOM      2  C   LIG A   1      -7.249   1.278 131.639  0.00  0.00    +0.118 C 
ATOM      3  C   LIG A   1      -6.251   2.503 131.792  0.00  0.00    +0.042 C 
ATOM      4  C   LIG A   1      -6.502   3.194 133.155  0.00  0.00    +0.018 C 
ATOM      5  C   LIG A   1      -6.519   3.497 130.603  0.00  0.00    +0.218 C 
ATOM      6  O   LIG A   1      -7.909   3.832 130.456  0.00  0.00    -0.456 OA
ATOM      7  C   LIG A   1      -8.799   2.829 130.332  0.00  0.00    +0.311 C 
ATOM      8  O   LIG A   1      -9.777   2.921 129.603  0.00  0.00    -0.251 OA
ATOM      9  C   LIG A   1      -8.674   1.756 131.359  0.00  0.00    +0.159 C 
ATOM     10  C   LIG A   1      -4.726   2.081 131.777  0.00  0.00    +0.014 C 
ATOM     11  C   LIG A   1      -4.334   0.942 130.823  0.00  0.00    +0.008 C 
ATOM     12  C   LIG A   1      -5.298  -0.180 131.142  0.00  0.00    +0.034 C 
ATOM     13  C   LIG A   1      -5.099  -1.676 130.787  0.00  0.00    +0.020 C 
ATOM     14  C   LIG A   1      -6.551  -2.149 130.384  0.00  0.00    +0.128 C 
ATOM     15  C   LIG A   1      -7.481  -1.016 130.893  0.00  0.00    +0.100 C 
ATOM     16  C   LIG A   1      -7.745  -0.921 132.409  0.00  0.00    +0.158 C 
ATOM     17  O   LIG A   1      -7.380   0.445 132.839  0.00  0.00    -0.363 OA
ATOM     18  C   LIG A   1      -7.011  -1.942 133.312  0.00  0.00    +0.150 C 
ATOM     19  C   LIG A   1      -6.240  -3.069 132.559  0.00  0.00    +0.006 C 
ATOM     20  C   LIG A   1      -4.813  -2.612 132.048  0.00  0.00    +0.047 C 
ATOM     21  C   LIG A   1      -6.917  -3.375 131.211  0.00  0.00    +0.058 C 
ATOM     22  C   LIG A   1      -6.217  -4.383 133.361  0.00  0.00    +0.014 C 
ATOM     23  C   LIG A   1      -4.007  -1.836 129.724  0.00  0.00    +0.016 C 
ENDROOT
BRANCH   5  24
ATOM     24  C   LIG A   1      -5.749   4.796 130.681  0.00  0.00    +0.031 A 
ATOM     25  C   LIG A   1      -6.196   6.047 131.211  0.00  0.00    +0.048 A 
ATOM     26  C   LIG A   1      -5.160   6.935 131.057  0.00  0.00    +0.195 A 
ATOM     27  O   LIG A   1      -4.107   6.332 130.453  0.00  0.00    -0.471 OA
ATOM     28  C   LIG A   1      -4.474   5.050 130.210  0.00  0.00    +0.202 A 
ENDBRANCH   5  24
BRANCH   1  29
ATOM     29  O   LIG A   1      -6.751   0.665 129.312  0.00  0.00    -0.385 OA
ATOM     30  H   LIG A   1      -5.841   0.681 128.955  0.00  0.00    +0.210 HD
ENDBRANCH   1  29
BRANCH  18  31
ATOM     31  O   LIG A   1      -7.997  -2.522 134.178  0.00  0.00    -0.389 OA
ATOM     32  H   LIG A   1      -7.710  -3.435 134.372  0.00  0.00    +0.210 HD
ENDBRANCH  18  31
BRANCH  20  33
ATOM     33  C   LIG A   1      -3.800  -2.063 133.087  0.00  0.00    +0.227 C 
BRANCH  33  34
ATOM     34  C   LIG A   1      -3.417  -3.128 134.124  0.00  0.00    +0.336 C 
ATOM     35  O   LIG A   1      -3.722  -3.112 135.307  0.00  0.00    -0.248 OA
BRANCH  34  36
ATOM     36  O   LIG A   1      -2.652  -4.072 133.505  0.00  0.00    -0.466 OA
ATOM     37  C   LIG A   1      -2.613  -5.366 134.105  0.00  0.00    +0.280 C 
ENDBRANCH  34  36
ENDBRANCH  33  34
BRANCH  33  38
ATOM     38  O   LIG A   1      -2.642  -1.590 132.402  0.00  0.00    -0.380 OA
ATOM     39  H   LIG A   1      -1.908  -2.198 132.599  0.00  0.00    +0.210 HD
ENDBRANCH  33  38
ENDBRANCH  20  33
BRANCH  14  40
ATOM     40  O   LIG A   1      -6.692  -2.224 128.946  0.00  0.00    -0.457 OA
BRANCH  40  41
ATOM     41  C   LIG A   1      -7.900  -2.532 128.382  0.00  0.00    +0.304 C 
ATOM     42  O   LIG A   1      -8.676  -3.392 128.749  0.00  0.00    -0.251 OA
ATOM     43  C   LIG A   1      -8.129  -1.714 127.144  0.00  0.00    +0.136 C 
ENDBRANCH  40  41
ENDBRANCH  14  40
TORSDOF 9
ENDMDL
