MODEL 1
REMARK VINA RESULT:      -6.7      0.000      0.000
REMARK  Name = NuBBE_2290
REMARK  4 active torsions:
REMARK  status: ('A' for Active; 'I' for Inactive)
REMARK    1  A    between atoms: C_1  and  C_2
REMARK    2  A    between atoms: C_7  and  C_8
REMARK    3  A    between atoms: C_7  and  C_9
REMARK    4  A    between atoms: C_11  and  C_13
REMARK                            x       y       z     vdW  Elec       q    Type
REMARK                         _______ _______ _______ _____ _____    ______ ____
ROOT
ATOM      1  C   LIG A   1     -10.067   0.758 122.452  0.00  0.00    +0.039 C 
ATOM      2  C   LIG A   1      -9.213   0.127 123.512  0.00  0.00    -0.073 C 
ATOM      3  C   LIG A   1      -8.960  -1.113 123.882  0.00  0.00    -0.063 C 
ATOM      4  C   LIG A   1      -9.206  -2.444 123.141  0.00  0.00    +0.035 C 
ATOM      5  C   LIG A   1      -8.206  -3.314 123.952  0.00  0.00    -0.000 C 
ATOM      6  C   LIG A   1      -6.990  -2.188 124.022  0.00  0.00    -0.022 C 
ATOM      7  C   LIG A   1      -6.581  -1.596 122.603  0.00  0.00    +0.012 C 
ATOM      8  C   LIG A   1      -5.637  -2.852 124.385  0.00  0.00    +0.012 C 
ATOM      9  C   LIG A   1      -7.773  -1.250 125.017  0.00  0.00    +0.000 C 
ATOM     10  C   LIG A   1      -7.710  -1.960 126.470  0.00  0.00    -0.003 C 
ATOM     11  C   LIG A   1      -6.287  -2.031 127.103  0.00  0.00    +0.008 C 
ATOM     12  C   LIG A   1      -8.420  -3.302 126.541  0.00  0.00    +0.004 C 
ATOM     13  C   LIG A   1      -8.171  -4.183 125.281  0.00  0.00    +0.005 C 
ATOM     14  C   LIG A   1      -8.149   0.171 125.486  0.00  0.00    +0.016 C 
ATOM     15  C   LIG A   1      -8.432   1.094 124.349  0.00  0.00    +0.031 C 
ENDROOT
TORSDOF 0
ENDMDL
MODEL 2
REMARK VINA RESULT:      -6.5      1.214      3.209
REMARK  Name = NuBBE_2290
REMARK  4 active torsions:
REMARK  status: ('A' for Active; 'I' for Inactive)
REMARK    1  A    between atoms: C_1  and  C_2
REMARK    2  A    between atoms: C_7  and  C_8
REMARK    3  A    between atoms: C_7  and  C_9
REMARK    4  A    between atoms: C_11  and  C_13
REMARK                            x       y       z     vdW  Elec       q    Type
REMARK                         _______ _______ _______ _____ _____    ______ ____
ROOT
ATOM      1  C   LIG A   1      -8.650   2.927 122.675  0.00  0.00    +0.039 C 
ATOM      2  C   LIG A   1      -8.767   1.463 122.988  0.00  0.00    -0.073 C 
ATOM      3  C   LIG A   1      -7.990   0.576 123.577  0.00  0.00    -0.063 C 
ATOM      4  C   LIG A   1      -6.757   0.777 124.482  0.00  0.00    +0.035 C 
ATOM      5  C   LIG A   1      -6.765  -0.627 125.148  0.00  0.00    -0.000 C 
ATOM      6  C   LIG A   1      -8.406  -0.725 125.364  0.00  0.00    -0.022 C 
ATOM      7  C   LIG A   1      -9.031   0.531 126.115  0.00  0.00    +0.012 C 
ATOM      8  C   LIG A   1      -8.766  -1.812 126.407  0.00  0.00    +0.012 C 
ATOM      9  C   LIG A   1      -8.704  -0.888 123.825  0.00  0.00    +0.000 C 
ATOM     10  C   LIG A   1      -8.287  -2.402 123.430  0.00  0.00    -0.003 C 
ATOM     11  C   LIG A   1      -9.169  -3.513 124.077  0.00  0.00    +0.008 C 
ATOM     12  C   LIG A   1      -6.805  -2.702 123.587  0.00  0.00    +0.004 C 
ATOM     13  C   LIG A   1      -6.199  -2.087 124.882  0.00  0.00    +0.005 C 
ATOM     14  C   LIG A   1      -9.597  -0.585 122.604  0.00  0.00    +0.016 C 
ATOM     15  C   LIG A   1     -10.061   0.833 122.572  0.00  0.00    +0.031 C 
ENDROOT
TORSDOF 0
ENDMDL
MODEL 3
REMARK VINA RESULT:      -6.4      1.239      4.178
REMARK  Name = NuBBE_2290
REMARK  4 active torsions:
REMARK  status: ('A' for Active; 'I' for Inactive)
REMARK    1  A    between atoms: C_1  and  C_2
REMARK    2  A    between atoms: C_7  and  C_8
REMARK    3  A    between atoms: C_7  and  C_9
REMARK    4  A    between atoms: C_11  and  C_13
REMARK                            x       y       z     vdW  Elec       q    Type
REMARK                         _______ _______ _______ _____ _____    ______ ____
ROOT
ATOM      1  C   LIG A   1      -3.980  -4.797 123.734  0.00  0.00    +0.039 C 
ATOM      2  C   LIG A   1      -5.083  -3.786 123.616  0.00  0.00    -0.073 C 
ATOM      3  C   LIG A   1      -6.352  -3.752 123.973  0.00  0.00    -0.063 C 
ATOM      4  C   LIG A   1      -7.132  -4.641 124.962  0.00  0.00    +0.035 C 
ATOM      5  C   LIG A   1      -8.324  -3.674 125.205  0.00  0.00    -0.000 C 
ATOM      6  C   LIG A   1      -7.424  -2.284 125.297  0.00  0.00    -0.022 C 
ATOM      7  C   LIG A   1      -6.223  -2.364 126.336  0.00  0.00    +0.012 C 
ATOM      8  C   LIG A   1      -8.229  -1.145 125.972  0.00  0.00    +0.012 C 
ATOM      9  C   LIG A   1      -7.073  -2.286 123.760  0.00  0.00    +0.000 C 
ATOM     10  C   LIG A   1      -8.411  -1.816 122.979  0.00  0.00    -0.003 C 
ATOM     11  C   LIG A   1      -8.836  -0.339 123.239  0.00  0.00    +0.008 C 
ATOM     12  C   LIG A   1      -9.587  -2.769 123.123  0.00  0.00    +0.004 C 
ATOM     13  C   LIG A   1      -9.738  -3.325 124.570  0.00  0.00    +0.005 C 
ATOM     14  C   LIG A   1      -6.059  -2.024 122.628  0.00  0.00    +0.016 C 
ATOM     15  C   LIG A   1      -4.685  -2.493 122.971  0.00  0.00    +0.031 C 
ENDROOT
TORSDOF 0
ENDMDL
MODEL 4
REMARK VINA RESULT:      -6.4      1.216      2.030
REMARK  Name = NuBBE_2290
REMARK  4 active torsions:
REMARK  status: ('A' for Active; 'I' for Inactive)
REMARK    1  A    between atoms: C_1  and  C_2
REMARK    2  A    between atoms: C_7  and  C_8
REMARK    3  A    between atoms: C_7  and  C_9
REMARK    4  A    between atoms: C_11  and  C_13
REMARK                            x       y       z     vdW  Elec       q    Type
REMARK                         _______ _______ _______ _____ _____    ______ ____
ROOT
ATOM      1  C   LIG A   1      -8.347   2.079 123.228  0.00  0.00    +0.039 C 
ATOM      2  C   LIG A   1      -8.394   0.881 124.131  0.00  0.00    -0.073 C 
ATOM      3  C   LIG A   1      -7.885  -0.334 124.087  0.00  0.00    -0.063 C 
ATOM      4  C   LIG A   1      -6.750  -0.907 123.213  0.00  0.00    +0.035 C 
ATOM      5  C   LIG A   1      -6.425  -2.146 124.093  0.00  0.00    -0.000 C 
ATOM      6  C   LIG A   1      -6.538  -1.374 125.557  0.00  0.00    -0.022 C 
ATOM      7  C   LIG A   1      -5.653  -0.056 125.658  0.00  0.00    +0.012 C 
ATOM      8  C   LIG A   1      -5.845  -2.195 126.673  0.00  0.00    +0.012 C 
ATOM      9  C   LIG A   1      -8.103  -1.208 125.466  0.00  0.00    +0.000 C 
ATOM     10  C   LIG A   1      -8.741  -2.666 125.761  0.00  0.00    -0.003 C 
ATOM     11  C   LIG A   1      -8.529  -3.192 127.213  0.00  0.00    +0.008 C 
ATOM     12  C   LIG A   1      -8.389  -3.724 124.727  0.00  0.00    +0.004 C 
ATOM     13  C   LIG A   1      -6.901  -3.651 124.273  0.00  0.00    +0.005 C 
ATOM     14  C   LIG A   1      -9.367  -0.363 125.724  0.00  0.00    +0.016 C 
ATOM     15  C   LIG A   1      -9.167   1.080 125.399  0.00  0.00    +0.031 C 
ENDROOT
TORSDOF 0
ENDMDL
MODEL 5
REMARK VINA RESULT:      -6.4      1.379      3.847
REMARK  Name = NuBBE_2290
REMARK  4 active torsions:
REMARK  status: ('A' for Active; 'I' for Inactive)
REMARK    1  A    between atoms: C_1  and  C_2
REMARK    2  A    between atoms: C_7  and  C_8
REMARK    3  A    between atoms: C_7  and  C_9
REMARK    4  A    between atoms: C_11  and  C_13
REMARK                            x       y       z     vdW  Elec       q    Type
REMARK                         _______ _______ _______ _____ _____    ______ ____
ROOT
ATOM      1  C   LIG A   1      -9.642  -4.262 128.131  0.00  0.00    +0.039 C 
ATOM      2  C   LIG A   1      -8.595  -3.350 127.563  0.00  0.00    -0.073 C 
ATOM      3  C   LIG A   1      -8.143  -3.098 126.351  0.00  0.00    -0.063 C 
ATOM      4  C   LIG A   1      -8.755  -3.423 124.972  0.00  0.00    +0.035 C 
ATOM      5  C   LIG A   1      -7.945  -2.387 124.143  0.00  0.00    -0.000 C 
ATOM      6  C   LIG A   1      -8.049  -1.146 125.238  0.00  0.00    -0.022 C 
ATOM      7  C   LIG A   1      -9.536  -0.824 125.705  0.00  0.00    +0.012 C 
ATOM      8  C   LIG A   1      -7.726   0.214 124.569  0.00  0.00    +0.012 C 
ATOM      9  C   LIG A   1      -7.083  -1.838 126.274  0.00  0.00    +0.000 C 
ATOM     10  C   LIG A   1      -5.585  -1.690 125.679  0.00  0.00    -0.003 C 
ATOM     11  C   LIG A   1      -5.045  -0.228 125.622  0.00  0.00    +0.008 C 
ATOM     12  C   LIG A   1      -5.358  -2.422 124.366  0.00  0.00    +0.004 C 
ATOM     13  C   LIG A   1      -6.556  -2.279 123.382  0.00  0.00    +0.005 C 
ATOM     14  C   LIG A   1      -6.706  -2.151 127.736  0.00  0.00    +0.016 C 
ATOM     15  C   LIG A   1      -7.893  -2.493 128.573  0.00  0.00    +0.031 C 
ENDROOT
TORSDOF 0
ENDMDL
MODEL 6
REMARK VINA RESULT:      -6.3      1.827      4.696
REMARK  Name = NuBBE_2290
REMARK  4 active torsions:
REMARK  status: ('A' for Active; 'I' for Inactive)
REMARK    1  A    between atoms: C_1  and  C_2
REMARK    2  A    between atoms: C_7  and  C_8
REMARK    3  A    between atoms: C_7  and  C_9
REMARK    4  A    between atoms: C_11  and  C_13
REMARK                            x       y       z     vdW  Elec       q    Type
REMARK                         _______ _______ _______ _____ _____    ______ ____
ROOT
ATOM      1  C   LIG A   1      -7.707  -1.665 130.807  0.00  0.00    +0.039 C 
ATOM      2  C   LIG A   1      -7.849  -2.132 129.387  0.00  0.00    -0.073 C 
ATOM      3  C   LIG A   1      -7.731  -1.557 128.206  0.00  0.00    -0.063 C 
ATOM      4  C   LIG A   1      -7.072  -0.220 127.810  0.00  0.00    +0.035 C 
ATOM      5  C   LIG A   1      -6.889  -0.526 126.298  0.00  0.00    -0.000 C 
ATOM      6  C   LIG A   1      -6.394  -2.098 126.482  0.00  0.00    -0.022 C 
ATOM      7  C   LIG A   1      -5.181  -2.275 127.495  0.00  0.00    +0.012 C 
ATOM      8  C   LIG A   1      -5.691  -2.613 125.200  0.00  0.00    +0.012 C 
ATOM      9  C   LIG A   1      -7.816  -2.603 126.936  0.00  0.00    +0.000 C 
ATOM     10  C   LIG A   1      -8.736  -2.653 125.605  0.00  0.00    -0.003 C 
ATOM     11  C   LIG A   1      -8.307  -3.718 124.552  0.00  0.00    +0.008 C 
ATOM     12  C   LIG A   1      -8.978  -1.297 124.961  0.00  0.00    +0.004 C 
ATOM     13  C   LIG A   1      -7.703  -0.404 124.939  0.00  0.00    +0.005 C 
ATOM     14  C   LIG A   1      -8.679  -3.517 127.830  0.00  0.00    +0.016 C 
ATOM     15  C   LIG A   1      -8.176  -3.586 129.232  0.00  0.00    +0.031 C 
ENDROOT
TORSDOF 0
ENDMDL
MODEL 7
REMARK VINA RESULT:      -6.2      1.182      3.591
REMARK  Name = NuBBE_2290
REMARK  4 active torsions:
REMARK  status: ('A' for Active; 'I' for Inactive)
REMARK    1  A    between atoms: C_1  and  C_2
REMARK    2  A    between atoms: C_7  and  C_8
REMARK    3  A    between atoms: C_7  and  C_9
REMARK    4  A    between atoms: C_11  and  C_13
REMARK                            x       y       z     vdW  Elec       q    Type
REMARK                         _______ _______ _______ _____ _____    ______ ____
ROOT
ATOM      1  C   LIG A   1      -7.783   1.179 127.936  0.00  0.00    +0.039 C 
ATOM      2  C   LIG A   1      -8.005   0.369 126.692  0.00  0.00    -0.073 C 
ATOM      3  C   LIG A   1      -7.290  -0.510 126.018  0.00  0.00    -0.063 C 
ATOM      4  C   LIG A   1      -6.036  -1.305 126.437  0.00  0.00    +0.035 C 
ATOM      5  C   LIG A   1      -6.141  -2.426 125.366  0.00  0.00    -0.000 C 
ATOM      6  C   LIG A   1      -7.783  -2.635 125.471  0.00  0.00    -0.022 C 
ATOM      7  C   LIG A   1      -8.306  -2.881 126.953  0.00  0.00    +0.012 C 
ATOM      8  C   LIG A   1      -8.212  -3.990 124.855  0.00  0.00    +0.012 C 
ATOM      9  C   LIG A   1      -8.108  -1.249 124.794  0.00  0.00    +0.000 C 
ATOM     10  C   LIG A   1      -7.808  -1.425 123.212  0.00  0.00    -0.003 C 
ATOM     11  C   LIG A   1      -8.763  -2.409 122.471  0.00  0.00    +0.008 C 
ATOM     12  C   LIG A   1      -6.351  -1.703 122.880  0.00  0.00    +0.004 C 
ATOM     13  C   LIG A   1      -5.687  -2.706 123.870  0.00  0.00    +0.005 C 
ATOM     14  C   LIG A   1      -8.988   0.014 124.707  0.00  0.00    +0.016 C 
ATOM     15  C   LIG A   1      -9.346   0.556 126.051  0.00  0.00    +0.031 C 
ENDROOT
TORSDOF 0
ENDMDL
MODEL 8
REMARK VINA RESULT:      -6.2     17.107     19.063
REMARK  Name = NuBBE_2290
REMARK  4 active torsions:
REMARK  status: ('A' for Active; 'I' for Inactive)
REMARK    1  A    between atoms: C_1  and  C_2
REMARK    2  A    between atoms: C_7  and  C_8
REMARK    3  A    between atoms: C_7  and  C_9
REMARK    4  A    between atoms: C_11  and  C_13
REMARK                            x       y       z     vdW  Elec       q    Type
REMARK                         _______ _______ _______ _____ _____    ______ ____
ROOT
ATOM      1  C   LIG A   1      -8.215   6.726 137.302  0.00  0.00    +0.039 C 
ATOM      2  C   LIG A   1      -8.604   8.030 137.935  0.00  0.00    -0.073 C 
ATOM      3  C   LIG A   1      -8.277   8.655 139.049  0.00  0.00    -0.063 C 
ATOM      4  C   LIG A   1      -7.091   8.424 140.009  0.00  0.00    +0.035 C 
ATOM      5  C   LIG A   1      -7.121   9.814 140.703  0.00  0.00    -0.000 C 
ATOM      6  C   LIG A   1      -7.398  10.705 139.332  0.00  0.00    -0.022 C 
ATOM      7  C   LIG A   1      -6.367  10.411 138.156  0.00  0.00    +0.012 C 
ATOM      8  C   LIG A   1      -7.055  12.199 139.562  0.00  0.00    +0.012 C 
ATOM      9  C   LIG A   1      -8.876  10.185 139.166  0.00  0.00    +0.000 C 
ATOM     10  C   LIG A   1      -9.762  10.942 140.291  0.00  0.00    -0.003 C 
ATOM     11  C   LIG A   1      -9.907  12.480 140.084  0.00  0.00    +0.008 C 
ATOM     12  C   LIG A   1      -9.376  10.605 141.722  0.00  0.00    +0.004 C 
ATOM     13  C   LIG A   1      -7.834  10.530 141.929  0.00  0.00    +0.005 C 
ATOM     14  C   LIG A   1     -10.031   9.733 138.250  0.00  0.00    +0.016 C 
ATOM     15  C   LIG A   1      -9.567   8.855 137.136  0.00  0.00    +0.031 C 
ENDROOT
TORSDOF 0
ENDMDL
MODEL 9
REMARK VINA RESULT:      -6.2      2.161      4.411
REMARK  Name = NuBBE_2290
REMARK  4 active torsions:
REMARK  status: ('A' for Active; 'I' for Inactive)
REMARK    1  A    between atoms: C_1  and  C_2
REMARK    2  A    between atoms: C_7  and  C_8
REMARK    3  A    between atoms: C_7  and  C_9
REMARK    4  A    between atoms: C_11  and  C_13
REMARK                            x       y       z     vdW  Elec       q    Type
REMARK                         _______ _______ _______ _____ _____    ______ ____
ROOT
ATOM      1  C   LIG A   1      -8.156  -3.027 124.033  0.00  0.00    +0.039 C 
ATOM      2  C   LIG A   1      -8.057  -2.968 125.530  0.00  0.00    -0.073 C 
ATOM      3  C   LIG A   1      -7.119  -2.606 126.383  0.00  0.00    -0.063 C 
ATOM      4  C   LIG A   1      -5.835  -1.780 126.161  0.00  0.00    +0.035 C 
ATOM      5  C   LIG A   1      -5.600  -1.372 127.642  0.00  0.00    -0.000 C 
ATOM      6  C   LIG A   1      -7.186  -1.048 128.003  0.00  0.00    -0.022 C 
ATOM      7  C   LIG A   1      -7.883  -0.041 126.988  0.00  0.00    +0.012 C 
ATOM      8  C   LIG A   1      -7.299  -0.186 129.286  0.00  0.00    +0.012 C 
ATOM      9  C   LIG A   1      -7.616  -2.563 127.954  0.00  0.00    +0.000 C 
ATOM     10  C   LIG A   1      -7.055  -3.248 129.309  0.00  0.00    -0.003 C 
ATOM     11  C   LIG A   1      -7.720  -2.739 130.623  0.00  0.00    +0.008 C 
ATOM     12  C   LIG A   1      -5.539  -3.264 129.420  0.00  0.00    +0.004 C 
ATOM     13  C   LIG A   1      -4.886  -1.933 128.945  0.00  0.00    +0.005 C 
ATOM     14  C   LIG A   1      -8.659  -3.638 127.584  0.00  0.00    +0.016 C 
ATOM     15  C   LIG A   1      -9.297  -3.384 126.260  0.00  0.00    +0.031 C 
ENDROOT
TORSDOF 0
ENDMDL
