MODEL 1
REMARK VINA RESULT:      -6.3      0.000      0.000
REMARK  Name = NuBBE_2167
REMARK  18 active torsions:
REMARK  status: ('A' for Active; 'I' for Inactive)
REMARK    1  A    between atoms: C_2  and  C_3
REMARK    2  A    between atoms: C_2  and  C_17
REMARK    3  A    between atoms: C_4  and  O_5
REMARK    4  A    between atoms: O_5  and  C_6
REMARK    5  A    between atoms: C_6  and  C_7
REMARK    6  A    between atoms: C_12  and  O_13
REMARK    7  A    between atoms: O_13  and  C_14
REMARK    8  A    between atoms: C_14  and  C_15
REMARK    9  A    between atoms: C_17  and  C_18
REMARK   10  A    between atoms: C_18  and  C_19
REMARK   11  A    between atoms: C_19  and  C_20
REMARK   12  A    between atoms: C_20  and  C_21
REMARK   13  A    between atoms: C_21  and  C_22
REMARK   14  A    between atoms: C_22  and  C_23
REMARK   15  A    between atoms: C_23  and  C_24
REMARK   16  A    between atoms: C_24  and  C_25
REMARK   17  A    between atoms: C_25  and  C_26
REMARK   18  A    between atoms: C_26  and  C_27
REMARK                            x       y       z     vdW  Elec       q    Type
REMARK                         _______ _______ _______ _____ _____    ______ ____
ROOT
ATOM      1  O   LIG A   1      -9.099   3.367 124.706  0.00  0.00    -0.292 OA
ATOM      2  C   LIG A   1      -8.358   2.627 125.355  0.00  0.00    +0.170 C 
ENDROOT
BRANCH   2   3
ATOM      3  C   LIG A   1      -7.108   3.189 125.974  0.00  0.00    +0.102 A 
ATOM      4  C   LIG A   1      -7.111   3.601 127.323  0.00  0.00    +0.146 A 
ATOM      5  C   LIG A   1      -5.916   3.920 127.983  0.00  0.00    +0.047 A 
ATOM      6  C   LIG A   1      -4.709   3.884 127.296  0.00  0.00    +0.007 A 
ATOM      7  C   LIG A   1      -4.696   3.574 125.943  0.00  0.00    +0.047 A 
ATOM      8  C   LIG A   1      -5.888   3.267 125.276  0.00  0.00    +0.146 A 
BRANCH   4   9
ATOM      9  O   LIG A   1      -8.316   3.586 128.064  0.00  0.00    -0.425 OA
BRANCH   9  10
ATOM     10  C   LIG A   1      -8.431   4.326 129.244  0.00  0.00    +0.309 C 
ATOM     11  C   LIG A   1      -8.448   3.395 130.421  0.00  0.00    +0.136 C 
ATOM     12  O   LIG A   1      -8.492   5.544 129.345  0.00  0.00    -0.251 OA
ENDBRANCH   9  10
ENDBRANCH   4   9
BRANCH   8  13
ATOM     13  O   LIG A   1      -5.869   2.939 123.900  0.00  0.00    -0.425 OA
BRANCH  13  14
ATOM     14  C   LIG A   1      -5.952   3.872 122.859  0.00  0.00    +0.309 C 
ATOM     15  C   LIG A   1      -6.921   3.325 121.851  0.00  0.00    +0.136 C 
ATOM     16  O   LIG A   1      -5.288   4.875 122.713  0.00  0.00    -0.251 OA
ENDBRANCH  13  14
ENDBRANCH   8  13
ENDBRANCH   2   3
BRANCH   2  17
ATOM     17  C   LIG A   1      -8.758   1.165 125.590  0.00  0.00    +0.080 C 
BRANCH  17  18
ATOM     18  C   LIG A   1      -7.717   0.222 124.987  0.00  0.00    +0.008 C 
BRANCH  18  19
ATOM     19  C   LIG A   1      -7.822   0.061 123.461  0.00  0.00    +0.000 C 
BRANCH  19  20
ATOM     20  C   LIG A   1      -7.296  -1.321 123.048  0.00  0.00    +0.000 C 
BRANCH  20  21
ATOM     21  C   LIG A   1      -6.892  -2.196 124.239  0.00  0.00    -0.000 C 
BRANCH  21  22
ATOM     22  C   LIG A   1      -7.700  -3.500 124.311  0.00  0.00    -0.000 C 
BRANCH  22  23
ATOM     23  C   LIG A   1      -9.164  -3.280 124.718  0.00  0.00    +0.000 C 
BRANCH  23  24
ATOM     24  C   LIG A   1      -9.340  -2.804 126.164  0.00  0.00    +0.000 C 
BRANCH  24  25
ATOM     25  C   LIG A   1      -8.749  -3.796 127.165  0.00  0.00    +0.005 C 
BRANCH  25  26
ATOM     26  C   LIG A   1      -8.467  -3.160 128.521  0.00  0.00    +0.035 C 
BRANCH  26  27
ATOM     27  C   LIG A   1      -7.455  -2.051 128.365  0.00  0.00    -0.047 A 
ATOM     28  C   LIG A   1      -7.747  -0.760 128.823  0.00  0.00    +0.003 A 
ATOM     29  C   LIG A   1      -6.832   0.277 128.639  0.00  0.00    +0.000 A 
ATOM     30  C   LIG A   1      -5.624   0.035 127.988  0.00  0.00    +0.000 A 
ATOM     31  C   LIG A   1      -5.331  -1.242 127.513  0.00  0.00    +0.000 A 
ATOM     32  C   LIG A   1      -6.244  -2.281 127.697  0.00  0.00    +0.003 A 
ENDBRANCH  26  27
ENDBRANCH  25  26
ENDBRANCH  24  25
ENDBRANCH  23  24
ENDBRANCH  22  23
ENDBRANCH  21  22
ENDBRANCH  20  21
ENDBRANCH  19  20
ENDBRANCH  18  19
ENDBRANCH  17  18
ENDBRANCH   2  17
TORSDOF 16
ENDMDL
MODEL 2
REMARK VINA RESULT:      -6.2      4.337      7.746
REMARK  Name = NuBBE_2167
REMARK  18 active torsions:
REMARK  status: ('A' for Active; 'I' for Inactive)
REMARK    1  A    between atoms: C_2  and  C_3
REMARK    2  A    between atoms: C_2  and  C_17
REMARK    3  A    between atoms: C_4  and  O_5
REMARK    4  A    between atoms: O_5  and  C_6
REMARK    5  A    between atoms: C_6  and  C_7
REMARK    6  A    between atoms: C_12  and  O_13
REMARK    7  A    between atoms: O_13  and  C_14
REMARK    8  A    between atoms: C_14  and  C_15
REMARK    9  A    between atoms: C_17  and  C_18
REMARK   10  A    between atoms: C_18  and  C_19
REMARK   11  A    between atoms: C_19  and  C_20
REMARK   12  A    between atoms: C_20  and  C_21
REMARK   13  A    between atoms: C_21  and  C_22
REMARK   14  A    between atoms: C_22  and  C_23
REMARK   15  A    between atoms: C_23  and  C_24
REMARK   16  A    between atoms: C_24  and  C_25
REMARK   17  A    between atoms: C_25  and  C_26
REMARK   18  A    between atoms: C_26  and  C_27
REMARK                            x       y       z     vdW  Elec       q    Type
REMARK                         _______ _______ _______ _____ _____    ______ ____
ROOT
ATOM      1  O   LIG A   1      -8.661   3.540 128.185  0.00  0.00    -0.292 OA
ATOM      2  C   LIG A   1      -7.937   4.146 128.976  0.00  0.00    +0.170 C 
ENDROOT
BRANCH   2   3
ATOM      3  C   LIG A   1      -8.523   4.688 130.250  0.00  0.00    +0.102 A 
ATOM      4  C   LIG A   1      -8.418   3.948 131.447  0.00  0.00    +0.146 A 
ATOM      5  C   LIG A   1      -8.757   4.520 132.681  0.00  0.00    +0.047 A 
ATOM      6  C   LIG A   1      -9.255   5.815 132.736  0.00  0.00    +0.007 A 
ATOM      7  C   LIG A   1      -9.457   6.526 131.560  0.00  0.00    +0.047 A 
ATOM      8  C   LIG A   1      -9.132   5.955 130.324  0.00  0.00    +0.146 A 
BRANCH   4   9
ATOM      9  O   LIG A   1      -7.855   2.650 131.429  0.00  0.00    -0.425 OA
BRANCH   9  10
ATOM     10  C   LIG A   1      -8.291   1.676 132.331  0.00  0.00    +0.309 C 
ATOM     11  C   LIG A   1      -9.592   1.097 131.855  0.00  0.00    +0.136 C 
ATOM     12  O   LIG A   1      -7.720   1.309 133.350  0.00  0.00    -0.251 OA
ENDBRANCH   9  10
ENDBRANCH   4   9
BRANCH   8  13
ATOM     13  O   LIG A   1      -9.327   6.686 129.130  0.00  0.00    -0.425 OA
BRANCH  13  14
ATOM     14  C   LIG A   1     -10.577   6.963 128.561  0.00  0.00    +0.309 C 
ATOM     15  C   LIG A   1     -10.538   8.385 128.079  0.00  0.00    +0.136 C 
ATOM     16  O   LIG A   1     -11.558   6.253 128.558  0.00  0.00    -0.251 OA
ENDBRANCH  13  14
ENDBRANCH   8  13
ENDBRANCH   2   3
BRANCH   2  17
ATOM     17  C   LIG A   1      -6.434   4.271 128.692  0.00  0.00    +0.080 C 
BRANCH  17  18
ATOM     18  C   LIG A   1      -5.942   3.074 127.878  0.00  0.00    +0.008 C 
BRANCH  18  19
ATOM     19  C   LIG A   1      -5.877   3.327 126.362  0.00  0.00    +0.000 C 
BRANCH  19  20
ATOM     20  C   LIG A   1      -4.414   3.475 125.923  0.00  0.00    +0.000 C 
BRANCH  20  21
ATOM     21  C   LIG A   1      -3.415   2.940 126.954  0.00  0.00    -0.000 C 
BRANCH  21  22
ATOM     22  C   LIG A   1      -2.342   3.975 127.326  0.00  0.00    -0.000 C 
BRANCH  22  23
ATOM     23  C   LIG A   1      -2.686   4.770 128.594  0.00  0.00    +0.000 C 
BRANCH  23  24
ATOM     24  C   LIG A   1      -2.392   6.269 128.484  0.00  0.00    +0.000 C 
BRANCH  24  25
ATOM     25  C   LIG A   1      -3.671   7.091 128.340  0.00  0.00    +0.005 C 
BRANCH  25  26
ATOM     26  C   LIG A   1      -3.818   8.142 129.435  0.00  0.00    +0.035 C 
BRANCH  26  27
ATOM     27  C   LIG A   1      -4.083   7.468 130.758  0.00  0.00    -0.047 A 
ATOM     28  C   LIG A   1      -5.310   6.837 130.996  0.00  0.00    +0.003 A 
ATOM     29  C   LIG A   1      -5.575   6.253 132.235  0.00  0.00    +0.000 A 
ATOM     30  C   LIG A   1      -4.621   6.303 133.249  0.00  0.00    +0.000 A 
ATOM     31  C   LIG A   1      -3.402   6.944 133.029  0.00  0.00    +0.000 A 
ATOM     32  C   LIG A   1      -3.135   7.528 131.791  0.00  0.00    +0.003 A 
ENDBRANCH  26  27
ENDBRANCH  25  26
ENDBRANCH  24  25
ENDBRANCH  23  24
ENDBRANCH  22  23
ENDBRANCH  21  22
ENDBRANCH  20  21
ENDBRANCH  19  20
ENDBRANCH  18  19
ENDBRANCH  17  18
ENDBRANCH   2  17
TORSDOF 16
ENDMDL
MODEL 3
REMARK VINA RESULT:      -6.2      2.095      3.867
REMARK  Name = NuBBE_2167
REMARK  18 active torsions:
REMARK  status: ('A' for Active; 'I' for Inactive)
REMARK    1  A    between atoms: C_2  and  C_3
REMARK    2  A    between atoms: C_2  and  C_17
REMARK    3  A    between atoms: C_4  and  O_5
REMARK    4  A    between atoms: O_5  and  C_6
REMARK    5  A    between atoms: C_6  and  C_7
REMARK    6  A    between atoms: C_12  and  O_13
REMARK    7  A    between atoms: O_13  and  C_14
REMARK    8  A    between atoms: C_14  and  C_15
REMARK    9  A    between atoms: C_17  and  C_18
REMARK   10  A    between atoms: C_18  and  C_19
REMARK   11  A    between atoms: C_19  and  C_20
REMARK   12  A    between atoms: C_20  and  C_21
REMARK   13  A    between atoms: C_21  and  C_22
REMARK   14  A    between atoms: C_22  and  C_23
REMARK   15  A    between atoms: C_23  and  C_24
REMARK   16  A    between atoms: C_24  and  C_25
REMARK   17  A    between atoms: C_25  and  C_26
REMARK   18  A    between atoms: C_26  and  C_27
REMARK                            x       y       z     vdW  Elec       q    Type
REMARK                         _______ _______ _______ _____ _____    ______ ____
ROOT
ATOM      1  O   LIG A   1      -8.227   2.050 127.020  0.00  0.00    -0.292 OA
ATOM      2  C   LIG A   1      -7.457   1.451 126.268  0.00  0.00    +0.170 C 
ENDROOT
BRANCH   2   3
ATOM      3  C   LIG A   1      -6.890   2.161 125.070  0.00  0.00    +0.102 A 
ATOM      4  C   LIG A   1      -7.315   1.807 123.772  0.00  0.00    +0.146 A 
ATOM      5  C   LIG A   1      -6.974   2.591 122.661  0.00  0.00    +0.047 A 
ATOM      6  C   LIG A   1      -6.161   3.706 122.819  0.00  0.00    +0.007 A 
ATOM      7  C   LIG A   1      -5.653   4.017 124.073  0.00  0.00    +0.047 A 
ATOM      8  C   LIG A   1      -5.981   3.230 125.184  0.00  0.00    +0.146 A 
BRANCH   4   9
ATOM      9  O   LIG A   1      -8.195   0.714 123.589  0.00  0.00    -0.425 OA
BRANCH   9  10
ATOM     10  C   LIG A   1      -9.569   0.926 123.445  0.00  0.00    +0.309 C 
ATOM     11  C   LIG A   1     -10.103   0.040 122.358  0.00  0.00    +0.136 C 
ATOM     12  O   LIG A   1     -10.266   1.692 124.098  0.00  0.00    -0.251 OA
ENDBRANCH   9  10
ENDBRANCH   4   9
BRANCH   8  13
ATOM     13  O   LIG A   1      -5.472   3.556 126.462  0.00  0.00    -0.425 OA
BRANCH  13  14
ATOM     14  C   LIG A   1      -4.163   3.987 126.711  0.00  0.00    +0.309 C 
ATOM     15  C   LIG A   1      -3.275   2.780 126.619  0.00  0.00    +0.136 C 
ATOM     16  O   LIG A   1      -3.804   5.091 127.059  0.00  0.00    -0.251 OA
ENDBRANCH  13  14
ENDBRANCH   8  13
ENDBRANCH   2   3
BRANCH   2  17
ATOM     17  C   LIG A   1      -7.024   0.018 126.604  0.00  0.00    +0.080 C 
BRANCH  17  18
ATOM     18  C   LIG A   1      -5.531  -0.169 126.328  0.00  0.00    +0.008 C 
BRANCH  18  19
ATOM     19  C   LIG A   1      -5.221  -0.923 125.025  0.00  0.00    +0.000 C 
BRANCH  19  20
ATOM     20  C   LIG A   1      -5.862  -2.316 125.067  0.00  0.00    +0.000 C 
BRANCH  20  21
ATOM     21  C   LIG A   1      -6.806  -2.586 123.891  0.00  0.00    -0.000 C 
BRANCH  21  22
ATOM     22  C   LIG A   1      -8.263  -2.776 124.337  0.00  0.00    -0.000 C 
BRANCH  22  23
ATOM     23  C   LIG A   1      -8.411  -3.754 125.512  0.00  0.00    +0.000 C 
BRANCH  23  24
ATOM     24  C   LIG A   1      -9.066  -3.138 126.752  0.00  0.00    +0.000 C 
BRANCH  24  25
ATOM     25  C   LIG A   1      -8.732  -3.922 128.020  0.00  0.00    +0.005 C 
BRANCH  25  26
ATOM     26  C   LIG A   1      -8.210  -3.029 129.140  0.00  0.00    +0.035 C 
BRANCH  26  27
ATOM     27  C   LIG A   1      -6.750  -3.318 129.387  0.00  0.00    -0.047 A 
ATOM     28  C   LIG A   1      -6.366  -4.171 130.428  0.00  0.00    +0.003 A 
ATOM     29  C   LIG A   1      -5.015  -4.404 130.688  0.00  0.00    +0.000 A 
ATOM     30  C   LIG A   1      -4.038  -3.779 129.916  0.00  0.00    +0.000 A 
ATOM     31  C   LIG A   1      -4.409  -2.914 128.888  0.00  0.00    +0.000 A 
ATOM     32  C   LIG A   1      -5.759  -2.680 128.626  0.00  0.00    +0.003 A 
ENDBRANCH  26  27
ENDBRANCH  25  26
ENDBRANCH  24  25
ENDBRANCH  23  24
ENDBRANCH  22  23
ENDBRANCH  21  22
ENDBRANCH  20  21
ENDBRANCH  19  20
ENDBRANCH  18  19
ENDBRANCH  17  18
ENDBRANCH   2  17
TORSDOF 16
ENDMDL
MODEL 4
REMARK VINA RESULT:      -5.9      1.470      5.151
REMARK  Name = NuBBE_2167
REMARK  18 active torsions:
REMARK  status: ('A' for Active; 'I' for Inactive)
REMARK    1  A    between atoms: C_2  and  C_3
REMARK    2  A    between atoms: C_2  and  C_17
REMARK    3  A    between atoms: C_4  and  O_5
REMARK    4  A    between atoms: O_5  and  C_6
REMARK    5  A    between atoms: C_6  and  C_7
REMARK    6  A    between atoms: C_12  and  O_13
REMARK    7  A    between atoms: O_13  and  C_14
REMARK    8  A    between atoms: C_14  and  C_15
REMARK    9  A    between atoms: C_17  and  C_18
REMARK   10  A    between atoms: C_18  and  C_19
REMARK   11  A    between atoms: C_19  and  C_20
REMARK   12  A    between atoms: C_20  and  C_21
REMARK   13  A    between atoms: C_21  and  C_22
REMARK   14  A    between atoms: C_22  and  C_23
REMARK   15  A    between atoms: C_23  and  C_24
REMARK   16  A    between atoms: C_24  and  C_25
REMARK   17  A    between atoms: C_25  and  C_26
REMARK   18  A    between atoms: C_26  and  C_27
REMARK                            x       y       z     vdW  Elec       q    Type
REMARK                         _______ _______ _______ _____ _____    ______ ____
ROOT
ATOM      1  O   LIG A   1      -5.723   5.365 125.702  0.00  0.00    -0.292 OA
ATOM      2  C   LIG A   1      -5.797   4.164 125.442  0.00  0.00    +0.170 C 
ENDROOT
BRANCH   2   3
ATOM      3  C   LIG A   1      -6.975   3.645 124.663  0.00  0.00    +0.102 A 
ATOM      4  C   LIG A   1      -6.921   3.591 123.254  0.00  0.00    +0.146 A 
ATOM      5  C   LIG A   1      -7.906   2.915 122.520  0.00  0.00    +0.047 A 
ATOM      6  C   LIG A   1      -8.984   2.332 123.172  0.00  0.00    +0.007 A 
ATOM      7  C   LIG A   1      -9.107   2.458 124.550  0.00  0.00    +0.047 A 
ATOM      8  C   LIG A   1      -8.132   3.142 125.286  0.00  0.00    +0.146 A 
BRANCH   4   9
ATOM      9  O   LIG A   1      -5.802   4.120 122.568  0.00  0.00    -0.425 OA
BRANCH   9  10
ATOM     10  C   LIG A   1      -5.513   3.712 121.264  0.00  0.00    +0.309 C 
ATOM     11  C   LIG A   1      -5.395   4.915 120.374  0.00  0.00    +0.136 C 
ATOM     12  O   LIG A   1      -5.352   2.563 120.872  0.00  0.00    -0.251 OA
ENDBRANCH   9  10
ENDBRANCH   4   9
BRANCH   8  13
ATOM     13  O   LIG A   1      -8.253   3.257 126.691  0.00  0.00    -0.425 OA
BRANCH  13  14
ATOM     14  C   LIG A   1      -8.370   4.469 127.382  0.00  0.00    +0.309 C 
ATOM     15  C   LIG A   1      -7.829   4.243 128.765  0.00  0.00    +0.136 C 
ATOM     16  O   LIG A   1      -8.912   5.485 127.004  0.00  0.00    -0.251 OA
ENDBRANCH  13  14
ENDBRANCH   8  13
ENDBRANCH   2   3
BRANCH   2  17
ATOM     17  C   LIG A   1      -4.653   3.225 125.846  0.00  0.00    +0.080 C 
BRANCH  17  18
ATOM     18  C   LIG A   1      -5.114   1.767 125.798  0.00  0.00    +0.008 C 
BRANCH  18  19
ATOM     19  C   LIG A   1      -5.604   1.217 127.148  0.00  0.00    +0.000 C 
BRANCH  19  20
ATOM     20  C   LIG A   1      -6.636   0.106 126.911  0.00  0.00    +0.000 C 
BRANCH  20  21
ATOM     21  C   LIG A   1      -7.093  -0.582 128.202  0.00  0.00    -0.000 C 
BRANCH  21  22
ATOM     22  C   LIG A   1      -6.214  -1.788 128.569  0.00  0.00    -0.000 C 
BRANCH  22  23
ATOM     23  C   LIG A   1      -7.023  -3.070 128.811  0.00  0.00    +0.000 C 
BRANCH  23  24
ATOM     24  C   LIG A   1      -8.495  -2.961 128.403  0.00  0.00    +0.000 C 
BRANCH  24  25
ATOM     25  C   LIG A   1      -8.793  -3.753 127.132  0.00  0.00    +0.005 C 
BRANCH  25  26
ATOM     26  C   LIG A   1      -9.394  -2.888 126.030  0.00  0.00    +0.035 C 
BRANCH  26  27
ATOM     27  C   LIG A   1      -8.315  -2.472 125.061  0.00  0.00    -0.047 A 
ATOM     28  C   LIG A   1      -7.095  -3.159 125.027  0.00  0.00    +0.003 A 
ATOM     29  C   LIG A   1      -6.078  -2.749 124.164  0.00  0.00    +0.000 A 
ATOM     30  C   LIG A   1      -6.268  -1.644 123.336  0.00  0.00    +0.000 A 
ATOM     31  C   LIG A   1      -7.472  -0.943 123.375  0.00  0.00    +0.000 A 
ATOM     32  C   LIG A   1      -8.490  -1.352 124.237  0.00  0.00    +0.003 A 
ENDBRANCH  26  27
ENDBRANCH  25  26
ENDBRANCH  24  25
ENDBRANCH  23  24
ENDBRANCH  22  23
ENDBRANCH  21  22
ENDBRANCH  20  21
ENDBRANCH  19  20
ENDBRANCH  18  19
ENDBRANCH  17  18
ENDBRANCH   2  17
TORSDOF 16
ENDMDL
MODEL 5
REMARK VINA RESULT:      -5.9      3.755      7.230
REMARK  Name = NuBBE_2167
REMARK  18 active torsions:
REMARK  status: ('A' for Active; 'I' for Inactive)
REMARK    1  A    between atoms: C_2  and  C_3
REMARK    2  A    between atoms: C_2  and  C_17
REMARK    3  A    between atoms: C_4  and  O_5
REMARK    4  A    between atoms: O_5  and  C_6
REMARK    5  A    between atoms: C_6  and  C_7
REMARK    6  A    between atoms: C_12  and  O_13
REMARK    7  A    between atoms: O_13  and  C_14
REMARK    8  A    between atoms: C_14  and  C_15
REMARK    9  A    between atoms: C_17  and  C_18
REMARK   10  A    between atoms: C_18  and  C_19
REMARK   11  A    between atoms: C_19  and  C_20
REMARK   12  A    between atoms: C_20  and  C_21
REMARK   13  A    between atoms: C_21  and  C_22
REMARK   14  A    between atoms: C_22  and  C_23
REMARK   15  A    between atoms: C_23  and  C_24
REMARK   16  A    between atoms: C_24  and  C_25
REMARK   17  A    between atoms: C_25  and  C_26
REMARK   18  A    between atoms: C_26  and  C_27
REMARK                            x       y       z     vdW  Elec       q    Type
REMARK                         _______ _______ _______ _____ _____    ______ ____
ROOT
ATOM      1  O   LIG A   1      -8.136   4.926 127.959  0.00  0.00    -0.292 OA
ATOM      2  C   LIG A   1      -7.304   4.088 128.308  0.00  0.00    +0.170 C 
ENDROOT
BRANCH   2   3
ATOM      3  C   LIG A   1      -5.996   3.991 127.572  0.00  0.00    +0.102 A 
ATOM      4  C   LIG A   1      -4.857   4.662 128.065  0.00  0.00    +0.146 A 
ATOM      5  C   LIG A   1      -3.586   4.415 127.529  0.00  0.00    +0.047 A 
ATOM      6  C   LIG A   1      -3.437   3.539 126.462  0.00  0.00    +0.007 A 
ATOM      7  C   LIG A   1      -4.558   2.942 125.900  0.00  0.00    +0.047 A 
ATOM      8  C   LIG A   1      -5.831   3.194 126.424  0.00  0.00    +0.146 A 
BRANCH   4   9
ATOM      9  O   LIG A   1      -4.969   5.512 129.191  0.00  0.00    -0.425 OA
BRANCH   9  10
ATOM     10  C   LIG A   1      -4.107   6.601 129.346  0.00  0.00    +0.309 C 
ATOM     11  C   LIG A   1      -3.201   6.363 130.519  0.00  0.00    +0.136 C 
ATOM     12  O   LIG A   1      -4.054   7.601 128.642  0.00  0.00    -0.251 OA
ENDBRANCH   9  10
ENDBRANCH   4   9
BRANCH   8  13
ATOM     13  O   LIG A   1      -6.969   2.574 125.857  0.00  0.00    -0.425 OA
BRANCH  13  14
ATOM     14  C   LIG A   1      -7.766   3.140 124.854  0.00  0.00    +0.309 C 
ATOM     15  C   LIG A   1      -6.907   3.277 123.630  0.00  0.00    +0.136 C 
ATOM     16  O   LIG A   1      -8.897   3.561 124.961  0.00  0.00    -0.251 OA
ENDBRANCH  13  14
ENDBRANCH   8  13
ENDBRANCH   2   3
BRANCH   2  17
ATOM     17  C   LIG A   1      -7.578   3.208 129.536  0.00  0.00    +0.080 C 
BRANCH  17  18
ATOM     18  C   LIG A   1      -9.055   3.274 129.923  0.00  0.00    +0.008 C 
BRANCH  18  19
ATOM     19  C   LIG A   1      -9.495   2.189 130.919  0.00  0.00    +0.000 C 
BRANCH  19  20
ATOM     20  C   LIG A   1      -9.494   2.762 132.343  0.00  0.00    +0.000 C 
BRANCH  20  21
ATOM     21  C   LIG A   1      -8.214   2.446 133.123  0.00  0.00    -0.000 C 
BRANCH  21  22
ATOM     22  C   LIG A   1      -7.772   3.610 134.023  0.00  0.00    -0.000 C 
BRANCH  22  23
ATOM     23  C   LIG A   1      -6.325   4.053 133.766  0.00  0.00    +0.000 C 
BRANCH  23  24
ATOM     24  C   LIG A   1      -6.144   4.867 132.481  0.00  0.00    +0.000 C 
BRANCH  24  25
ATOM     25  C   LIG A   1      -6.915   6.185 132.530  0.00  0.00    +0.005 C 
BRANCH  25  26
ATOM     26  C   LIG A   1      -7.403   6.629 131.156  0.00  0.00    +0.035 C 
BRANCH  26  27
ATOM     27  C   LIG A   1      -8.909   6.710 131.150  0.00  0.00    -0.047 A 
ATOM     28  C   LIG A   1      -9.647   6.204 132.227  0.00  0.00    +0.003 A 
ATOM     29  C   LIG A   1     -11.042   6.236 132.204  0.00  0.00    +0.000 A 
ATOM     30  C   LIG A   1     -11.710   6.766 131.102  0.00  0.00    +0.000 A 
ATOM     31  C   LIG A   1     -10.985   7.257 130.017  0.00  0.00    +0.000 A 
ATOM     32  C   LIG A   1      -9.591   7.226 130.038  0.00  0.00    +0.003 A 
ENDBRANCH  26  27
ENDBRANCH  25  26
ENDBRANCH  24  25
ENDBRANCH  23  24
ENDBRANCH  22  23
ENDBRANCH  21  22
ENDBRANCH  20  21
ENDBRANCH  19  20
ENDBRANCH  18  19
ENDBRANCH  17  18
ENDBRANCH   2  17
TORSDOF 16
ENDMDL
MODEL 6
REMARK VINA RESULT:      -5.9      1.918      4.572
REMARK  Name = NuBBE_2167
REMARK  18 active torsions:
REMARK  status: ('A' for Active; 'I' for Inactive)
REMARK    1  A    between atoms: C_2  and  C_3
REMARK    2  A    between atoms: C_2  and  C_17
REMARK    3  A    between atoms: C_4  and  O_5
REMARK    4  A    between atoms: O_5  and  C_6
REMARK    5  A    between atoms: C_6  and  C_7
REMARK    6  A    between atoms: C_12  and  O_13
REMARK    7  A    between atoms: O_13  and  C_14
REMARK    8  A    between atoms: C_14  and  C_15
REMARK    9  A    between atoms: C_17  and  C_18
REMARK   10  A    between atoms: C_18  and  C_19
REMARK   11  A    between atoms: C_19  and  C_20
REMARK   12  A    between atoms: C_20  and  C_21
REMARK   13  A    between atoms: C_21  and  C_22
REMARK   14  A    between atoms: C_22  and  C_23
REMARK   15  A    between atoms: C_23  and  C_24
REMARK   16  A    between atoms: C_24  and  C_25
REMARK   17  A    between atoms: C_25  and  C_26
REMARK   18  A    between atoms: C_26  and  C_27
REMARK                            x       y       z     vdW  Elec       q    Type
REMARK                         _______ _______ _______ _____ _____    ______ ____
ROOT
ATOM      1  O   LIG A   1      -8.756   2.884 128.506  0.00  0.00    -0.292 OA
ATOM      2  C   LIG A   1      -8.181   2.063 127.791  0.00  0.00    +0.170 C 
ENDROOT
BRANCH   2   3
ATOM      3  C   LIG A   1      -7.425   2.536 126.580  0.00  0.00    +0.102 A 
ATOM      4  C   LIG A   1      -6.065   2.896 126.691  0.00  0.00    +0.146 A 
ATOM      5  C   LIG A   1      -5.284   3.128 125.551  0.00  0.00    +0.047 A 
ATOM      6  C   LIG A   1      -5.857   3.059 124.288  0.00  0.00    +0.007 A 
ATOM      7  C   LIG A   1      -7.216   2.802 124.160  0.00  0.00    +0.047 A 
ATOM      8  C   LIG A   1      -8.003   2.581 125.297  0.00  0.00    +0.146 A 
BRANCH   4   9
ATOM      9  O   LIG A   1      -5.440   2.912 127.960  0.00  0.00    -0.425 OA
BRANCH   9  10
ATOM     10  C   LIG A   1      -5.203   4.122 128.618  0.00  0.00    +0.309 C 
ATOM     11  C   LIG A   1      -3.865   4.071 129.297  0.00  0.00    +0.136 C 
ATOM     12  O   LIG A   1      -5.937   5.101 128.643  0.00  0.00    -0.251 OA
ENDBRANCH   9  10
ENDBRANCH   4   9
BRANCH   8  13
ATOM     13  O   LIG A   1      -9.384   2.307 125.163  0.00  0.00    -0.425 OA
BRANCH  13  14
ATOM     14  C   LIG A   1      -9.916   1.069 124.781  0.00  0.00    +0.309 C 
ATOM     15  C   LIG A   1     -10.177   1.136 123.304  0.00  0.00    +0.136 C 
ATOM     16  O   LIG A   1     -10.232   0.148 125.503  0.00  0.00    -0.251 OA
ENDBRANCH  13  14
ENDBRANCH   8  13
ENDBRANCH   2   3
BRANCH   2  17
ATOM     17  C   LIG A   1      -8.174   0.580 128.186  0.00  0.00    +0.080 C 
BRANCH  17  18
ATOM     18  C   LIG A   1      -7.194   0.336 129.334  0.00  0.00    +0.008 C 
BRANCH  18  19
ATOM     19  C   LIG A   1      -7.838   0.366 130.729  0.00  0.00    +0.000 C 
BRANCH  19  20
ATOM     20  C   LIG A   1      -7.169  -0.679 131.632  0.00  0.00    +0.000 C 
BRANCH  20  21
ATOM     21  C   LIG A   1      -7.718  -2.095 131.431  0.00  0.00    -0.000 C 
BRANCH  21  22
ATOM     22  C   LIG A   1      -6.660  -3.064 130.884  0.00  0.00    -0.000 C 
BRANCH  22  23
ATOM     23  C   LIG A   1      -7.077  -3.730 129.565  0.00  0.00    +0.000 C 
BRANCH  23  24
ATOM     24  C   LIG A   1      -8.429  -3.249 129.029  0.00  0.00    +0.000 C 
BRANCH  24  25
ATOM     25  C   LIG A   1      -8.532  -3.415 127.514  0.00  0.00    +0.005 C 
BRANCH  25  26
ATOM     26  C   LIG A   1      -7.493  -2.591 126.763  0.00  0.00    +0.035 C 
BRANCH  26  27
ATOM     27  C   LIG A   1      -7.910  -2.434 125.322  0.00  0.00    -0.047 A 
ATOM     28  C   LIG A   1      -8.990  -3.167 124.816  0.00  0.00    +0.003 A 
ATOM     29  C   LIG A   1      -9.349  -3.059 123.472  0.00  0.00    +0.000 A 
ATOM     30  C   LIG A   1      -8.626  -2.225 122.621  0.00  0.00    +0.000 A 
ATOM     31  C   LIG A   1      -7.538  -1.504 123.111  0.00  0.00    +0.000 A 
ATOM     32  C   LIG A   1      -7.178  -1.611 124.454  0.00  0.00    +0.003 A 
ENDBRANCH  26  27
ENDBRANCH  25  26
ENDBRANCH  24  25
ENDBRANCH  23  24
ENDBRANCH  22  23
ENDBRANCH  21  22
ENDBRANCH  20  21
ENDBRANCH  19  20
ENDBRANCH  18  19
ENDBRANCH  17  18
ENDBRANCH   2  17
TORSDOF 16
ENDMDL
MODEL 7
REMARK VINA RESULT:      -5.9      3.042      7.423
REMARK  Name = NuBBE_2167
REMARK  18 active torsions:
REMARK  status: ('A' for Active; 'I' for Inactive)
REMARK    1  A    between atoms: C_2  and  C_3
REMARK    2  A    between atoms: C_2  and  C_17
REMARK    3  A    between atoms: C_4  and  O_5
REMARK    4  A    between atoms: O_5  and  C_6
REMARK    5  A    between atoms: C_6  and  C_7
REMARK    6  A    between atoms: C_12  and  O_13
REMARK    7  A    between atoms: O_13  and  C_14
REMARK    8  A    between atoms: C_14  and  C_15
REMARK    9  A    between atoms: C_17  and  C_18
REMARK   10  A    between atoms: C_18  and  C_19
REMARK   11  A    between atoms: C_19  and  C_20
REMARK   12  A    between atoms: C_20  and  C_21
REMARK   13  A    between atoms: C_21  and  C_22
REMARK   14  A    between atoms: C_22  and  C_23
REMARK   15  A    between atoms: C_23  and  C_24
REMARK   16  A    between atoms: C_24  and  C_25
REMARK   17  A    between atoms: C_25  and  C_26
REMARK   18  A    between atoms: C_26  and  C_27
REMARK                            x       y       z     vdW  Elec       q    Type
REMARK                         _______ _______ _______ _____ _____    ______ ____
ROOT
ATOM      1  O   LIG A   1      -5.984   0.042 126.397  0.00  0.00    -0.292 OA
ATOM      2  C   LIG A   1      -7.157   0.408 126.474  0.00  0.00    +0.170 C 
ENDROOT
BRANCH   2   3
ATOM      3  C   LIG A   1      -7.868   0.879 125.235  0.00  0.00    +0.102 A 
ATOM      4  C   LIG A   1      -8.334  -0.057 124.288  0.00  0.00    +0.146 A 
ATOM      5  C   LIG A   1      -9.185   0.333 123.244  0.00  0.00    +0.047 A 
ATOM      6  C   LIG A   1      -9.539   1.668 123.097  0.00  0.00    +0.007 A 
ATOM      7  C   LIG A   1      -9.014   2.620 123.960  0.00  0.00    +0.047 A 
ATOM      8  C   LIG A   1      -8.155   2.237 124.997  0.00  0.00    +0.146 A 
BRANCH   4   9
ATOM      9  O   LIG A   1      -8.041  -1.432 124.450  0.00  0.00    -0.425 OA
BRANCH   9  10
ATOM     10  C   LIG A   1      -9.039  -2.328 124.841  0.00  0.00    +0.309 C 
ATOM     11  C   LIG A   1      -9.062  -3.497 123.900  0.00  0.00    +0.136 C 
ATOM     12  O   LIG A   1      -9.785  -2.222 125.806  0.00  0.00    -0.251 OA
ENDBRANCH   9  10
ENDBRANCH   4   9
BRANCH   8  13
ATOM     13  O   LIG A   1      -7.631   3.207 125.883  0.00  0.00    -0.425 OA
BRANCH  13  14
ATOM     14  C   LIG A   1      -7.715   4.591 125.686  0.00  0.00    +0.309 C 
ATOM     15  C   LIG A   1      -6.384   5.044 125.159  0.00  0.00    +0.136 C 
ATOM     16  O   LIG A   1      -8.630   5.325 125.991  0.00  0.00    -0.251 OA
ENDBRANCH  13  14
ENDBRANCH   8  13
ENDBRANCH   2   3
BRANCH   2  17
ATOM     17  C   LIG A   1      -7.902   0.304 127.811  0.00  0.00    +0.080 C 
BRANCH  17  18
ATOM     18  C   LIG A   1      -7.537  -0.996 128.528  0.00  0.00    +0.008 C 
BRANCH  18  19
ATOM     19  C   LIG A   1      -7.891  -1.012 130.024  0.00  0.00    +0.000 C 
BRANCH  19  20
ATOM     20  C   LIG A   1      -8.209   0.414 130.496  0.00  0.00    +0.000 C 
BRANCH  20  21
ATOM     21  C   LIG A   1      -9.155   0.457 131.701  0.00  0.00    -0.000 C 
BRANCH  21  22
ATOM     22  C   LIG A   1      -9.879   1.806 131.832  0.00  0.00    -0.000 C 
BRANCH  22  23
ATOM     23  C   LIG A   1      -9.669   2.722 130.619  0.00  0.00    +0.000 C 
BRANCH  23  24
ATOM     24  C   LIG A   1     -10.506   4.005 130.659  0.00  0.00    +0.000 C 
BRANCH  24  25
ATOM     25  C   LIG A   1      -9.668   5.219 131.055  0.00  0.00    +0.005 C 
BRANCH  25  26
ATOM     26  C   LIG A   1     -10.523   6.392 131.522  0.00  0.00    +0.035 C 
BRANCH  26  27
ATOM     27  C   LIG A   1     -11.050   7.148 130.327  0.00  0.00    -0.047 A 
ATOM     28  C   LIG A   1     -12.429   7.239 130.103  0.00  0.00    +0.003 A 
ATOM     29  C   LIG A   1     -12.918   7.897 128.974  0.00  0.00    +0.000 A 
ATOM     30  C   LIG A   1     -12.034   8.461 128.056  0.00  0.00    +0.000 A 
ATOM     31  C   LIG A   1     -10.659   8.360 128.261  0.00  0.00    +0.000 A 
ATOM     32  C   LIG A   1     -10.168   7.703 129.389  0.00  0.00    +0.003 A 
ENDBRANCH  26  27
ENDBRANCH  25  26
ENDBRANCH  24  25
ENDBRANCH  23  24
ENDBRANCH  22  23
ENDBRANCH  21  22
ENDBRANCH  20  21
ENDBRANCH  19  20
ENDBRANCH  18  19
ENDBRANCH  17  18
ENDBRANCH   2  17
TORSDOF 16
ENDMDL
MODEL 8
REMARK VINA RESULT:      -5.8      1.371      4.147
REMARK  Name = NuBBE_2167
REMARK  18 active torsions:
REMARK  status: ('A' for Active; 'I' for Inactive)
REMARK    1  A    between atoms: C_2  and  C_3
REMARK    2  A    between atoms: C_2  and  C_17
REMARK    3  A    between atoms: C_4  and  O_5
REMARK    4  A    between atoms: O_5  and  C_6
REMARK    5  A    between atoms: C_6  and  C_7
REMARK    6  A    between atoms: C_12  and  O_13
REMARK    7  A    between atoms: O_13  and  C_14
REMARK    8  A    between atoms: C_14  and  C_15
REMARK    9  A    between atoms: C_17  and  C_18
REMARK   10  A    between atoms: C_18  and  C_19
REMARK   11  A    between atoms: C_19  and  C_20
REMARK   12  A    between atoms: C_20  and  C_21
REMARK   13  A    between atoms: C_21  and  C_22
REMARK   14  A    between atoms: C_22  and  C_23
REMARK   15  A    between atoms: C_23  and  C_24
REMARK   16  A    between atoms: C_24  and  C_25
REMARK   17  A    between atoms: C_25  and  C_26
REMARK   18  A    between atoms: C_26  and  C_27
REMARK                            x       y       z     vdW  Elec       q    Type
REMARK                         _______ _______ _______ _____ _____    ______ ____
ROOT
ATOM      1  O   LIG A   1      -8.223   4.228 126.987  0.00  0.00    -0.292 OA
ATOM      2  C   LIG A   1      -7.497   3.282 127.293  0.00  0.00    +0.170 C 
ENDROOT
BRANCH   2   3
ATOM      3  C   LIG A   1      -6.042   3.529 127.583  0.00  0.00    +0.102 A 
ATOM      4  C   LIG A   1      -5.107   3.568 126.526  0.00  0.00    +0.146 A 
ATOM      5  C   LIG A   1      -3.794   4.010 126.740  0.00  0.00    +0.047 A 
ATOM      6  C   LIG A   1      -3.378   4.368 128.015  0.00  0.00    +0.007 A 
ATOM      7  C   LIG A   1      -4.254   4.244 129.086  0.00  0.00    +0.047 A 
ATOM      8  C   LIG A   1      -5.563   3.792 128.880  0.00  0.00    +0.146 A 
BRANCH   4   9
ATOM      9  O   LIG A   1      -5.520   3.271 125.206  0.00  0.00    -0.425 OA
BRANCH   9  10
ATOM     10  C   LIG A   1      -5.859   4.298 124.321  0.00  0.00    +0.309 C 
ATOM     11  C   LIG A   1      -5.918   3.757 122.922  0.00  0.00    +0.136 C 
ATOM     12  O   LIG A   1      -6.097   5.465 124.606  0.00  0.00    -0.251 OA
ENDBRANCH   9  10
ENDBRANCH   4   9
BRANCH   8  13
ATOM     13  O   LIG A   1      -6.456   3.680 129.971  0.00  0.00    -0.425 OA
BRANCH  13  14
ATOM     14  C   LIG A   1      -7.232   4.731 130.475  0.00  0.00    +0.309 C 
ATOM     15  C   LIG A   1      -8.115   4.155 131.544  0.00  0.00    +0.136 C 
ATOM     16  O   LIG A   1      -7.289   5.869 130.062  0.00  0.00    -0.251 OA
ENDBRANCH  13  14
ENDBRANCH   8  13
ENDBRANCH   2   3
BRANCH   2  17
ATOM     17  C   LIG A   1      -8.098   1.879 127.451  0.00  0.00    +0.080 C 
BRANCH  17  18
ATOM     18  C   LIG A   1      -7.927   1.075 126.162  0.00  0.00    +0.008 C 
BRANCH  18  19
ATOM     19  C   LIG A   1      -9.244   0.539 125.575  0.00  0.00    +0.000 C 
BRANCH  19  20
ATOM     20  C   LIG A   1      -9.078   0.293 124.069  0.00  0.00    +0.000 C 
BRANCH  20  21
ATOM     21  C   LIG A   1      -7.633  -0.015 123.661  0.00  0.00    -0.000 C 
BRANCH  21  22
ATOM     22  C   LIG A   1      -7.424  -1.496 123.311  0.00  0.00    -0.000 C 
BRANCH  22  23
ATOM     23  C   LIG A   1      -8.637  -2.128 122.615  0.00  0.00    +0.000 C 
BRANCH  23  24
ATOM     24  C   LIG A   1      -9.346  -3.197 123.453  0.00  0.00    +0.000 C 
BRANCH  24  25
ATOM     25  C   LIG A   1      -8.568  -3.531 124.724  0.00  0.00    +0.005 C 
BRANCH  25  26
ATOM     26  C   LIG A   1      -9.336  -3.175 125.991  0.00  0.00    +0.035 C 
BRANCH  26  27
ATOM     27  C   LIG A   1      -8.374  -2.990 127.138  0.00  0.00    -0.047 A 
ATOM     28  C   LIG A   1      -7.141  -2.360 126.930  0.00  0.00    +0.003 A 
ATOM     29  C   LIG A   1      -6.229  -2.229 127.978  0.00  0.00    +0.000 A 
ATOM     30  C   LIG A   1      -6.538  -2.735 129.239  0.00  0.00    +0.000 A 
ATOM     31  C   LIG A   1      -7.756  -3.379 129.453  0.00  0.00    +0.000 A 
ATOM     32  C   LIG A   1      -8.669  -3.511 128.407  0.00  0.00    +0.003 A 
ENDBRANCH  26  27
ENDBRANCH  25  26
ENDBRANCH  24  25
ENDBRANCH  23  24
ENDBRANCH  22  23
ENDBRANCH  21  22
ENDBRANCH  20  21
ENDBRANCH  19  20
ENDBRANCH  18  19
ENDBRANCH  17  18
ENDBRANCH   2  17
TORSDOF 16
ENDMDL
MODEL 9
REMARK VINA RESULT:      -5.8      2.071      3.385
REMARK  Name = NuBBE_2167
REMARK  18 active torsions:
REMARK  status: ('A' for Active; 'I' for Inactive)
REMARK    1  A    between atoms: C_2  and  C_3
REMARK    2  A    between atoms: C_2  and  C_17
REMARK    3  A    between atoms: C_4  and  O_5
REMARK    4  A    between atoms: O_5  and  C_6
REMARK    5  A    between atoms: C_6  and  C_7
REMARK    6  A    between atoms: C_12  and  O_13
REMARK    7  A    between atoms: O_13  and  C_14
REMARK    8  A    between atoms: C_14  and  C_15
REMARK    9  A    between atoms: C_17  and  C_18
REMARK   10  A    between atoms: C_18  and  C_19
REMARK   11  A    between atoms: C_19  and  C_20
REMARK   12  A    between atoms: C_20  and  C_21
REMARK   13  A    between atoms: C_21  and  C_22
REMARK   14  A    between atoms: C_22  and  C_23
REMARK   15  A    between atoms: C_23  and  C_24
REMARK   16  A    between atoms: C_24  and  C_25
REMARK   17  A    between atoms: C_25  and  C_26
REMARK   18  A    between atoms: C_26  and  C_27
REMARK                            x       y       z     vdW  Elec       q    Type
REMARK                         _______ _______ _______ _____ _____    ______ ____
ROOT
ATOM      1  O   LIG A   1      -7.402   1.545 126.883  0.00  0.00    -0.292 OA
ATOM      2  C   LIG A   1      -6.500   1.399 126.057  0.00  0.00    +0.170 C 
ENDROOT
BRANCH   2   3
ATOM      3  C   LIG A   1      -6.381   2.366 124.911  0.00  0.00    +0.102 A 
ATOM      4  C   LIG A   1      -5.642   3.558 125.066  0.00  0.00    +0.146 A 
ATOM      5  C   LIG A   1      -5.333   4.365 123.962  0.00  0.00    +0.047 A 
ATOM      6  C   LIG A   1      -5.799   4.026 122.699  0.00  0.00    +0.007 A 
ATOM      7  C   LIG A   1      -6.609   2.909 122.540  0.00  0.00    +0.047 A 
ATOM      8  C   LIG A   1      -6.931   2.107 123.642  0.00  0.00    +0.146 A 
BRANCH   4   9
ATOM      9  O   LIG A   1      -5.101   3.895 126.330  0.00  0.00    -0.425 OA
BRANCH   9  10
ATOM     10  C   LIG A   1      -3.740   3.713 126.589  0.00  0.00    +0.309 C 
ATOM     11  C   LIG A   1      -3.222   4.868 127.394  0.00  0.00    +0.136 C 
ATOM     12  O   LIG A   1      -3.048   2.762 126.248  0.00  0.00    -0.251 OA
ENDBRANCH   9  10
ENDBRANCH   4   9
BRANCH   8  13
ATOM     13  O   LIG A   1      -7.746   0.963 123.475  0.00  0.00    -0.425 OA
BRANCH  13  14
ATOM     14  C   LIG A   1      -9.141   0.955 123.595  0.00  0.00    +0.309 C 
ATOM     15  C   LIG A   1      -9.652  -0.174 122.748  0.00  0.00    +0.136 C 
ATOM     16  O   LIG A   1      -9.836   1.767 124.166  0.00  0.00    -0.251 OA
ENDBRANCH  13  14
ENDBRANCH   8  13
ENDBRANCH   2   3
BRANCH   2  17
ATOM     17  C   LIG A   1      -5.463   0.285 126.249  0.00  0.00    +0.080 C 
BRANCH  17  18
ATOM     18  C   LIG A   1      -6.063  -1.073 125.883  0.00  0.00    +0.008 C 
BRANCH  18  19
ATOM     19  C   LIG A   1      -5.478  -1.697 124.605  0.00  0.00    +0.000 C 
BRANCH  19  20
ATOM     20  C   LIG A   1      -6.172  -3.035 124.318  0.00  0.00    +0.000 C 
BRANCH  20  21
ATOM     21  C   LIG A   1      -7.701  -2.935 124.301  0.00  0.00    -0.000 C 
BRANCH  21  22
ATOM     22  C   LIG A   1      -8.364  -3.905 125.291  0.00  0.00    -0.000 C 
BRANCH  22  23
ATOM     23  C   LIG A   1      -9.009  -3.195 126.490  0.00  0.00    +0.000 C 
BRANCH  23  24
ATOM     24  C   LIG A   1      -9.113  -4.067 127.745  0.00  0.00    +0.000 C 
BRANCH  24  25
ATOM     25  C   LIG A   1      -8.508  -3.379 128.967  0.00  0.00    +0.005 C 
BRANCH  25  26
ATOM     26  C   LIG A   1      -7.015  -3.115 128.811  0.00  0.00    +0.035 C 
BRANCH  26  27
ATOM     27  C   LIG A   1      -6.676  -1.753 129.363  0.00  0.00    -0.047 A 
ATOM     28  C   LIG A   1      -7.686  -0.805 129.572  0.00  0.00    +0.003 A 
ATOM     29  C   LIG A   1      -7.370   0.471 130.040  0.00  0.00    +0.000 A 
ATOM     30  C   LIG A   1      -6.044   0.814 130.293  0.00  0.00    +0.000 A 
ATOM     31  C   LIG A   1      -5.029  -0.116 130.072  0.00  0.00    +0.000 A 
ATOM     32  C   LIG A   1      -5.342  -1.393 129.605  0.00  0.00    +0.003 A 
ENDBRANCH  26  27
ENDBRANCH  25  26
ENDBRANCH  24  25
ENDBRANCH  23  24
ENDBRANCH  22  23
ENDBRANCH  21  22
ENDBRANCH  20  21
ENDBRANCH  19  20
ENDBRANCH  18  19
ENDBRANCH  17  18
ENDBRANCH   2  17
TORSDOF 16
ENDMDL
