MODEL 1
REMARK VINA RESULT:      -6.4      0.000      0.000
REMARK  Name = NuBBE_863
REMARK  10 active torsions:
REMARK  status: ('A' for Active; 'I' for Inactive)
REMARK    1  A    between atoms: C_1  and  C_2
REMARK    2  A    between atoms: C_3  and  C_10
REMARK    3  A    between atoms: C_5  and  O_8
REMARK    4  A    between atoms: C_6  and  C_7
REMARK    5  A    between atoms: O_8  and  C_9
REMARK    6  A    between atoms: C_12  and  O_13
REMARK    7  A    between atoms: O_13  and  C_14
REMARK    8  A    between atoms: C_15  and  O_20
REMARK    9  A    between atoms: C_16  and  O_18
REMARK   10  A    between atoms: O_18  and  C_19
REMARK                            x       y       z     vdW  Elec       q    Type
REMARK                         _______ _______ _______ _____ _____    ______ ____
ROOT
ATOM      1  C   LIG A   1      -6.978   1.108 124.384  0.00  0.00    -0.011 A 
ATOM      2  C   LIG A   1      -7.242   1.673 123.120  0.00  0.00    +0.056 A 
ATOM      3  C   LIG A   1      -6.846   2.975 122.772  0.00  0.00    +0.165 A 
ATOM      4  C   LIG A   1      -6.180   3.739 123.741  0.00  0.00    +0.201 A 
ATOM      5  C   LIG A   1      -5.872   3.191 124.990  0.00  0.00    +0.165 A 
ATOM      6  C   LIG A   1      -6.267   1.894 125.317  0.00  0.00    +0.056 A 
ENDROOT
BRANCH   1   9
ATOM      7  C   LIG A   1      -5.226  -0.928 125.978  0.00  0.00    +0.011 C 
ATOM      8  C   LIG A   1      -6.415  -1.345 125.128  0.00  0.00    +0.027 C 
ATOM      9  C   LIG A   1      -7.469  -0.279 124.796  0.00  0.00    +0.155 C 
ATOM     10  O   LIG A   1      -8.253  -0.861 123.723  0.00  0.00    -0.343 OA
ATOM     11  C   LIG A   1      -7.505  -1.937 123.122  0.00  0.00    +0.254 C 
ATOM     12  C   LIG A   1      -6.096  -1.862 123.730  0.00  0.00    +0.048 C 
ATOM     13  C   LIG A   1      -5.254  -3.123 123.661  0.00  0.00    +0.013 C 
BRANCH  11  14
ATOM     14  O   LIG A   1      -8.115  -3.201 123.379  0.00  0.00    -0.354 OA
ATOM     15  C   LIG A   1      -9.539  -3.125 123.410  0.00  0.00    +0.197 C 
ENDBRANCH  11  14
ENDBRANCH   1   9
BRANCH   3  16
ATOM     16  O   LIG A   1      -7.186   3.348 121.502  0.00  0.00    -0.491 OA
ATOM     17  C   LIG A   1      -8.571   3.534 121.223  0.00  0.00    +0.277 C 
ENDBRANCH   3  16
BRANCH   5  18
ATOM     18  O   LIG A   1      -5.229   4.056 125.848  0.00  0.00    -0.491 OA
ATOM     19  C   LIG A   1      -3.877   3.725 126.136  0.00  0.00    +0.277 C 
ENDBRANCH   5  18
BRANCH   4  20
ATOM     20  O   LIG A   1      -5.814   5.040 123.516  0.00  0.00    -0.501 OA
ATOM     21  H   LIG A   1      -6.299   5.560 124.191  0.00  0.00    +0.292 HD
ENDBRANCH   4  20
TORSDOF 5
ENDMDL
MODEL 2
REMARK VINA RESULT:      -6.3      0.276      2.867
REMARK  Name = NuBBE_863
REMARK  10 active torsions:
REMARK  status: ('A' for Active; 'I' for Inactive)
REMARK    1  A    between atoms: C_1  and  C_2
REMARK    2  A    between atoms: C_3  and  C_10
REMARK    3  A    between atoms: C_5  and  O_8
REMARK    4  A    between atoms: C_6  and  C_7
REMARK    5  A    between atoms: O_8  and  C_9
REMARK    6  A    between atoms: C_12  and  O_13
REMARK    7  A    between atoms: O_13  and  C_14
REMARK    8  A    between atoms: C_15  and  O_20
REMARK    9  A    between atoms: C_16  and  O_18
REMARK   10  A    between atoms: O_18  and  C_19
REMARK                            x       y       z     vdW  Elec       q    Type
REMARK                         _______ _______ _______ _____ _____    ______ ____
ROOT
ATOM      1  C   LIG A   1      -7.012   1.265 124.336  0.00  0.00    -0.011 A 
ATOM      2  C   LIG A   1      -6.269   2.138 125.156  0.00  0.00    +0.056 A 
ATOM      3  C   LIG A   1      -5.802   3.385 124.711  0.00  0.00    +0.165 A 
ATOM      4  C   LIG A   1      -6.077   3.755 123.387  0.00  0.00    +0.201 A 
ATOM      5  C   LIG A   1      -6.845   2.925 122.563  0.00  0.00    +0.165 A 
ATOM      6  C   LIG A   1      -7.307   1.692 123.023  0.00  0.00    +0.056 A 
ENDROOT
BRANCH   1   9
ATOM      7  C   LIG A   1      -5.186  -0.686 125.955  0.00  0.00    +0.011 C 
ATOM      8  C   LIG A   1      -6.374  -1.154 125.131  0.00  0.00    +0.027 C 
ATOM      9  C   LIG A   1      -7.461  -0.124 124.788  0.00  0.00    +0.155 C 
ATOM     10  O   LIG A   1      -8.241  -0.752 123.739  0.00  0.00    -0.343 OA
ATOM     11  C   LIG A   1      -7.473  -1.822 123.154  0.00  0.00    +0.254 C 
ATOM     12  C   LIG A   1      -6.059  -1.695 123.741  0.00  0.00    +0.048 C 
ATOM     13  C   LIG A   1      -5.184  -2.935 123.692  0.00  0.00    +0.013 C 
BRANCH  11  14
ATOM     14  O   LIG A   1      -8.045  -3.096 123.447  0.00  0.00    -0.354 OA
ATOM     15  C   LIG A   1      -9.471  -3.076 123.411  0.00  0.00    +0.197 C 
ENDBRANCH  11  14
ENDBRANCH   1   9
BRANCH   3  16
ATOM     16  O   LIG A   1      -5.103   4.093 125.648  0.00  0.00    -0.491 OA
ATOM     17  C   LIG A   1      -3.905   3.509 126.151  0.00  0.00    +0.277 C 
ENDBRANCH   3  16
BRANCH   5  18
ATOM     18  O   LIG A   1      -7.027   3.405 121.283  0.00  0.00    -0.491 OA
ATOM     19  C   LIG A   1      -8.371   3.714 120.942  0.00  0.00    +0.277 C 
ENDBRANCH   5  18
BRANCH   4  20
ATOM     20  O   LIG A   1      -5.608   4.921 122.845  0.00  0.00    -0.501 OA
ATOM     21  H   LIG A   1      -6.410   5.445 122.635  0.00  0.00    +0.292 HD
ENDBRANCH   4  20
TORSDOF 5
ENDMDL
MODEL 3
REMARK VINA RESULT:      -6.1      1.968      2.974
REMARK  Name = NuBBE_863
REMARK  10 active torsions:
REMARK  status: ('A' for Active; 'I' for Inactive)
REMARK    1  A    between atoms: C_1  and  C_2
REMARK    2  A    between atoms: C_3  and  C_10
REMARK    3  A    between atoms: C_5  and  O_8
REMARK    4  A    between atoms: C_6  and  C_7
REMARK    5  A    between atoms: O_8  and  C_9
REMARK    6  A    between atoms: C_12  and  O_13
REMARK    7  A    between atoms: O_13  and  C_14
REMARK    8  A    between atoms: C_15  and  O_20
REMARK    9  A    between atoms: C_16  and  O_18
REMARK   10  A    between atoms: O_18  and  C_19
REMARK                            x       y       z     vdW  Elec       q    Type
REMARK                         _______ _______ _______ _____ _____    ______ ____
ROOT
ATOM      1  C   LIG A   1      -7.122   0.368 123.444  0.00  0.00    -0.011 A 
ATOM      2  C   LIG A   1      -6.780   1.514 122.699  0.00  0.00    +0.056 A 
ATOM      3  C   LIG A   1      -7.127   2.813 123.102  0.00  0.00    +0.165 A 
ATOM      4  C   LIG A   1      -7.863   2.959 124.286  0.00  0.00    +0.201 A 
ATOM      5  C   LIG A   1      -8.183   1.842 125.066  0.00  0.00    +0.165 A 
ATOM      6  C   LIG A   1      -7.825   0.559 124.654  0.00  0.00    +0.056 A 
ENDROOT
BRANCH   1   9
ATOM      7  C   LIG A   1      -9.331  -1.712 122.700  0.00  0.00    +0.011 C 
ATOM      8  C   LIG A   1      -7.921  -2.109 123.105  0.00  0.00    +0.027 C 
ATOM      9  C   LIG A   1      -6.813  -1.054 122.977  0.00  0.00    +0.155 C 
ATOM     10  O   LIG A   1      -5.705  -1.592 123.743  0.00  0.00    -0.343 OA
ATOM     11  C   LIG A   1      -6.199  -2.610 124.636  0.00  0.00    +0.254 C 
ATOM     12  C   LIG A   1      -7.731  -2.534 124.557  0.00  0.00    +0.048 C 
ATOM     13  C   LIG A   1      -8.501  -3.765 124.998  0.00  0.00    +0.013 C 
BRANCH  11  14
ATOM     14  O   LIG A   1      -5.723  -3.903 124.266  0.00  0.00    -0.354 OA
ATOM     15  C   LIG A   1      -4.463  -3.852 123.600  0.00  0.00    +0.197 C 
ENDBRANCH  11  14
ENDBRANCH   1   9
BRANCH   3  16
ATOM     16  O   LIG A   1      -6.707   3.799 122.252  0.00  0.00    -0.491 OA
ATOM     17  C   LIG A   1      -7.146   3.729 120.899  0.00  0.00    +0.277 C 
ENDBRANCH   3  16
BRANCH   5  18
ATOM     18  O   LIG A   1      -8.919   2.129 126.195  0.00  0.00    -0.491 OA
ATOM     19  C   LIG A   1      -8.595   1.349 127.338  0.00  0.00    +0.277 C 
ENDBRANCH   5  18
BRANCH   4  20
ATOM     20  O   LIG A   1      -8.303   4.180 124.724  0.00  0.00    -0.501 OA
ATOM     21  H   LIG A   1      -7.681   4.830 124.331  0.00  0.00    +0.292 HD
ENDBRANCH   4  20
TORSDOF 5
ENDMDL
MODEL 4
REMARK VINA RESULT:      -6.0      2.046      3.547
REMARK  Name = NuBBE_863
REMARK  10 active torsions:
REMARK  status: ('A' for Active; 'I' for Inactive)
REMARK    1  A    between atoms: C_1  and  C_2
REMARK    2  A    between atoms: C_3  and  C_10
REMARK    3  A    between atoms: C_5  and  O_8
REMARK    4  A    between atoms: C_6  and  C_7
REMARK    5  A    between atoms: O_8  and  C_9
REMARK    6  A    between atoms: C_12  and  O_13
REMARK    7  A    between atoms: O_13  and  C_14
REMARK    8  A    between atoms: C_15  and  O_20
REMARK    9  A    between atoms: C_16  and  O_18
REMARK   10  A    between atoms: O_18  and  C_19
REMARK                            x       y       z     vdW  Elec       q    Type
REMARK                         _______ _______ _______ _____ _____    ______ ____
ROOT
ATOM      1  C   LIG A   1      -7.336   0.298 123.522  0.00  0.00    -0.011 A 
ATOM      2  C   LIG A   1      -8.075   0.515 124.702  0.00  0.00    +0.056 A 
ATOM      3  C   LIG A   1      -8.426   1.797 125.153  0.00  0.00    +0.165 A 
ATOM      4  C   LIG A   1      -7.999   2.899 124.400  0.00  0.00    +0.201 A 
ATOM      5  C   LIG A   1      -7.296   2.712 123.204  0.00  0.00    +0.165 A 
ATOM      6  C   LIG A   1      -6.961   1.431 122.766  0.00  0.00    +0.056 A 
ENDROOT
BRANCH   1   9
ATOM      7  C   LIG A   1      -9.325  -1.982 122.743  0.00  0.00    +0.011 C 
ATOM      8  C   LIG A   1      -7.891  -2.243 123.172  0.00  0.00    +0.027 C 
ATOM      9  C   LIG A   1      -6.885  -1.088 123.062  0.00  0.00    +0.155 C 
ATOM     10  O   LIG A   1      -5.745  -1.519 123.848  0.00  0.00    -0.343 OA
ATOM     11  C   LIG A   1      -6.155  -2.579 124.733  0.00  0.00    +0.254 C 
ATOM     12  C   LIG A   1      -7.687  -2.649 124.627  0.00  0.00    +0.048 C 
ATOM     13  C   LIG A   1      -8.344  -3.948 125.056  0.00  0.00    +0.013 C 
BRANCH  11  14
ATOM     14  O   LIG A   1      -5.553  -3.822 124.372  0.00  0.00    -0.354 OA
ATOM     15  C   LIG A   1      -4.409  -3.652 123.538  0.00  0.00    +0.197 C 
ENDBRANCH  11  14
ENDBRANCH   1   9
BRANCH   3  16
ATOM     16  O   LIG A   1      -9.147   1.808 126.315  0.00  0.00    -0.491 OA
ATOM     17  C   LIG A   1      -8.471   1.425 127.509  0.00  0.00    +0.277 C 
ENDBRANCH   3  16
BRANCH   5  18
ATOM     18  O   LIG A   1      -6.927   3.880 122.573  0.00  0.00    -0.491 OA
ATOM     19  C   LIG A   1      -5.734   3.798 121.806  0.00  0.00    +0.277 C 
ENDBRANCH   5  18
BRANCH   4  20
ATOM     20  O   LIG A   1      -8.237   4.188 124.796  0.00  0.00    -0.501 OA
ATOM     21  H   LIG A   1      -9.212   4.250 124.886  0.00  0.00    +0.292 HD
ENDBRANCH   4  20
TORSDOF 5
ENDMDL
MODEL 5
REMARK VINA RESULT:      -6.0      1.744      2.277
REMARK  Name = NuBBE_863
REMARK  10 active torsions:
REMARK  status: ('A' for Active; 'I' for Inactive)
REMARK    1  A    between atoms: C_1  and  C_2
REMARK    2  A    between atoms: C_3  and  C_10
REMARK    3  A    between atoms: C_5  and  O_8
REMARK    4  A    between atoms: C_6  and  C_7
REMARK    5  A    between atoms: O_8  and  C_9
REMARK    6  A    between atoms: C_12  and  O_13
REMARK    7  A    between atoms: O_13  and  C_14
REMARK    8  A    between atoms: C_15  and  O_20
REMARK    9  A    between atoms: C_16  and  O_18
REMARK   10  A    between atoms: O_18  and  C_19
REMARK                            x       y       z     vdW  Elec       q    Type
REMARK                         _______ _______ _______ _____ _____    ______ ____
ROOT
ATOM      1  C   LIG A   1      -6.829   0.310 124.918  0.00  0.00    -0.011 A 
ATOM      2  C   LIG A   1      -7.844   0.915 124.149  0.00  0.00    +0.056 A 
ATOM      3  C   LIG A   1      -7.918   2.302 123.945  0.00  0.00    +0.165 A 
ATOM      4  C   LIG A   1      -6.947   3.108 124.556  0.00  0.00    +0.201 A 
ATOM      5  C   LIG A   1      -5.907   2.532 125.294  0.00  0.00    +0.165 A 
ATOM      6  C   LIG A   1      -5.844   1.152 125.481  0.00  0.00    +0.056 A 
ENDROOT
BRANCH   1   9
ATOM      7  C   LIG A   1      -6.588  -1.860 122.684  0.00  0.00    +0.011 C 
ATOM      8  C   LIG A   1      -7.146  -2.152 124.067  0.00  0.00    +0.027 C 
ATOM      9  C   LIG A   1      -6.782  -1.190 125.207  0.00  0.00    +0.155 C 
ATOM     10  O   LIG A   1      -7.713  -1.514 126.271  0.00  0.00    -0.343 OA
ATOM     11  C   LIG A   1      -8.829  -2.240 125.718  0.00  0.00    +0.254 C 
ATOM     12  C   LIG A   1      -8.666  -2.165 124.192  0.00  0.00    +0.048 C 
ATOM     13  C   LIG A   1      -9.393  -3.217 123.374  0.00  0.00    +0.013 C 
BRANCH  11  14
ATOM     14  O   LIG A   1      -8.846  -3.592 126.172  0.00  0.00    -0.354 OA
ATOM     15  C   LIG A   1      -8.833  -3.691 127.595  0.00  0.00    +0.197 C 
ENDBRANCH  11  14
ENDBRANCH   1   9
BRANCH   3  16
ATOM     16  O   LIG A   1      -8.969   2.703 123.168  0.00  0.00    -0.491 OA
ATOM     17  C   LIG A   1      -8.681   3.093 121.828  0.00  0.00    +0.277 C 
ENDBRANCH   3  16
BRANCH   5  18
ATOM     18  O   LIG A   1      -5.033   3.442 125.849  0.00  0.00    -0.491 OA
ATOM     19  C   LIG A   1      -3.862   2.876 126.424  0.00  0.00    +0.277 C 
ENDBRANCH   5  18
BRANCH   4  20
ATOM     20  O   LIG A   1      -6.976   4.475 124.469  0.00  0.00    -0.501 OA
ATOM     21  H   LIG A   1      -7.490   4.769 125.251  0.00  0.00    +0.292 HD
ENDBRANCH   4  20
TORSDOF 5
ENDMDL
MODEL 6
REMARK VINA RESULT:      -5.9      2.153      2.771
REMARK  Name = NuBBE_863
REMARK  10 active torsions:
REMARK  status: ('A' for Active; 'I' for Inactive)
REMARK    1  A    between atoms: C_1  and  C_2
REMARK    2  A    between atoms: C_3  and  C_10
REMARK    3  A    between atoms: C_5  and  O_8
REMARK    4  A    between atoms: C_6  and  C_7
REMARK    5  A    between atoms: O_8  and  C_9
REMARK    6  A    between atoms: C_12  and  O_13
REMARK    7  A    between atoms: O_13  and  C_14
REMARK    8  A    between atoms: C_15  and  O_20
REMARK    9  A    between atoms: C_16  and  O_18
REMARK   10  A    between atoms: O_18  and  C_19
REMARK                            x       y       z     vdW  Elec       q    Type
REMARK                         _______ _______ _______ _____ _____    ______ ____
ROOT
ATOM      1  C   LIG A   1      -7.241   0.395 125.022  0.00  0.00    -0.011 A 
ATOM      2  C   LIG A   1      -7.131   1.001 123.754  0.00  0.00    +0.056 A 
ATOM      3  C   LIG A   1      -7.410   2.359 123.535  0.00  0.00    +0.165 A 
ATOM      4  C   LIG A   1      -7.834   3.128 124.628  0.00  0.00    +0.201 A 
ATOM      5  C   LIG A   1      -7.914   2.562 125.906  0.00  0.00    +0.165 A 
ATOM      6  C   LIG A   1      -7.627   1.212 126.107  0.00  0.00    +0.056 A 
ENDROOT
BRANCH   1   9
ATOM      7  C   LIG A   1      -6.946  -1.680 122.706  0.00  0.00    +0.011 C 
ATOM      8  C   LIG A   1      -7.359  -2.066 124.117  0.00  0.00    +0.027 C 
ATOM      9  C   LIG A   1      -7.011  -1.097 125.257  0.00  0.00    +0.155 C 
ATOM     10  O   LIG A   1      -7.815  -1.547 126.377  0.00  0.00    -0.343 OA
ATOM     11  C   LIG A   1      -8.887  -2.377 125.886  0.00  0.00    +0.254 C 
ATOM     12  C   LIG A   1      -8.853  -2.247 124.355  0.00  0.00    +0.048 C 
ATOM     13  C   LIG A   1      -9.526  -3.351 123.560  0.00  0.00    +0.013 C 
BRANCH  11  14
ATOM     14  O   LIG A   1      -8.724  -3.734 126.295  0.00  0.00    -0.354 OA
ATOM     15  C   LIG A   1      -8.835  -3.895 127.708  0.00  0.00    +0.197 C 
ENDBRANCH  11  14
ENDBRANCH   1   9
BRANCH   3  16
ATOM     16  O   LIG A   1      -7.246   2.768 122.241  0.00  0.00    -0.491 OA
ATOM     17  C   LIG A   1      -6.020   3.415 121.909  0.00  0.00    +0.277 C 
ENDBRANCH   3  16
BRANCH   5  18
ATOM     18  O   LIG A   1      -8.356   3.426 126.884  0.00  0.00    -0.491 OA
ATOM     19  C   LIG A   1      -8.003   3.064 128.212  0.00  0.00    +0.277 C 
ENDBRANCH   5  18
BRANCH   4  20
ATOM     20  O   LIG A   1      -8.191   4.443 124.499  0.00  0.00    -0.501 OA
ATOM     21  H   LIG A   1      -7.342   4.931 124.432  0.00  0.00    +0.292 HD
ENDBRANCH   4  20
TORSDOF 5
ENDMDL
MODEL 7
REMARK VINA RESULT:      -5.9      1.684      1.729
REMARK  Name = NuBBE_863
REMARK  10 active torsions:
REMARK  status: ('A' for Active; 'I' for Inactive)
REMARK    1  A    between atoms: C_1  and  C_2
REMARK    2  A    between atoms: C_3  and  C_10
REMARK    3  A    between atoms: C_5  and  O_8
REMARK    4  A    between atoms: C_6  and  C_7
REMARK    5  A    between atoms: O_8  and  C_9
REMARK    6  A    between atoms: C_12  and  O_13
REMARK    7  A    between atoms: O_13  and  C_14
REMARK    8  A    between atoms: C_15  and  O_20
REMARK    9  A    between atoms: C_16  and  O_18
REMARK   10  A    between atoms: O_18  and  C_19
REMARK                            x       y       z     vdW  Elec       q    Type
REMARK                         _______ _______ _______ _____ _____    ______ ____
ROOT
ATOM      1  C   LIG A   1      -7.857   1.036 125.314  0.00  0.00    -0.011 A 
ATOM      2  C   LIG A   1      -7.730   1.663 124.058  0.00  0.00    +0.056 A 
ATOM      3  C   LIG A   1      -7.734   3.058 123.902  0.00  0.00    +0.165 A 
ATOM      4  C   LIG A   1      -7.893   3.847 125.050  0.00  0.00    +0.201 A 
ATOM      5  C   LIG A   1      -7.983   3.253 126.313  0.00  0.00    +0.165 A 
ATOM      6  C   LIG A   1      -7.971   1.866 126.452  0.00  0.00    +0.056 A 
ENDROOT
BRANCH   1   9
ATOM      7  C   LIG A   1      -5.382  -0.727 126.038  0.00  0.00    +0.011 C 
ATOM      8  C   LIG A   1      -6.624  -1.280 125.359  0.00  0.00    +0.027 C 
ATOM      9  C   LIG A   1      -7.928  -0.481 125.486  0.00  0.00    +0.155 C 
ATOM     10  O   LIG A   1      -8.805  -1.048 124.480  0.00  0.00    -0.343 OA
ATOM     11  C   LIG A   1      -8.013  -1.773 123.518  0.00  0.00    +0.254 C 
ATOM     12  C   LIG A   1      -6.548  -1.445 123.845  0.00  0.00    +0.048 C 
ATOM     13  C   LIG A   1      -5.499  -2.414 123.332  0.00  0.00    +0.013 C 
BRANCH  11  14
ATOM     14  O   LIG A   1      -8.260  -3.176 123.592  0.00  0.00    -0.354 OA
ATOM     15  C   LIG A   1      -9.645  -3.494 123.477  0.00  0.00    +0.197 C 
ENDBRANCH  11  14
ENDBRANCH   1   9
BRANCH   3  16
ATOM     16  O   LIG A   1      -7.597   3.482 122.609  0.00  0.00    -0.491 OA
ATOM     17  C   LIG A   1      -8.664   3.197 121.710  0.00  0.00    +0.277 C 
ENDBRANCH   3  16
BRANCH   5  18
ATOM     18  O   LIG A   1      -8.150   4.145 127.351  0.00  0.00    -0.491 OA
ATOM     19  C   LIG A   1      -7.272   3.957 128.453  0.00  0.00    +0.277 C 
ENDBRANCH   5  18
BRANCH   4  20
ATOM     20  O   LIG A   1      -7.975   5.213 124.988  0.00  0.00    -0.501 OA
ATOM     21  H   LIG A   1      -8.115   5.501 125.916  0.00  0.00    +0.292 HD
ENDBRANCH   4  20
TORSDOF 5
ENDMDL
MODEL 8
REMARK VINA RESULT:      -5.8      3.976      6.070
REMARK  Name = NuBBE_863
REMARK  10 active torsions:
REMARK  status: ('A' for Active; 'I' for Inactive)
REMARK    1  A    between atoms: C_1  and  C_2
REMARK    2  A    between atoms: C_3  and  C_10
REMARK    3  A    between atoms: C_5  and  O_8
REMARK    4  A    between atoms: C_6  and  C_7
REMARK    5  A    between atoms: O_8  and  C_9
REMARK    6  A    between atoms: C_12  and  O_13
REMARK    7  A    between atoms: O_13  and  C_14
REMARK    8  A    between atoms: C_15  and  O_20
REMARK    9  A    between atoms: C_16  and  O_18
REMARK   10  A    between atoms: O_18  and  C_19
REMARK                            x       y       z     vdW  Elec       q    Type
REMARK                         _______ _______ _______ _____ _____    ______ ____
ROOT
ATOM      1  C   LIG A   1      -7.661  -1.181 127.065  0.00  0.00    -0.011 A 
ATOM      2  C   LIG A   1      -7.858   0.102 127.616  0.00  0.00    +0.056 A 
ATOM      3  C   LIG A   1      -8.621   1.093 126.979  0.00  0.00    +0.165 A 
ATOM      4  C   LIG A   1      -9.188   0.786 125.734  0.00  0.00    +0.201 A 
ATOM      5  C   LIG A   1      -9.040  -0.491 125.181  0.00  0.00    +0.165 A 
ATOM      6  C   LIG A   1      -8.284  -1.466 125.831  0.00  0.00    +0.056 A 
ENDROOT
BRANCH   1   9
ATOM      7  C   LIG A   1      -8.785  -3.689 128.551  0.00  0.00    +0.011 C 
ATOM      8  C   LIG A   1      -7.392  -3.133 128.799  0.00  0.00    +0.027 C 
ATOM      9  C   LIG A   1      -6.771  -2.240 127.715  0.00  0.00    +0.155 C 
ATOM     10  O   LIG A   1      -5.645  -1.601 128.368  0.00  0.00    -0.343 OA
ATOM     11  C   LIG A   1      -5.813  -1.694 129.797  0.00  0.00    +0.254 C 
ATOM     12  C   LIG A   1      -7.233  -2.235 130.021  0.00  0.00    +0.048 C 
ATOM     13  C   LIG A   1      -7.515  -2.882 131.365  0.00  0.00    +0.013 C 
BRANCH  11  14
ATOM     14  O   LIG A   1      -4.833  -2.551 130.382  0.00  0.00    -0.354 OA
ATOM     15  C   LIG A   1      -3.582  -2.498 129.697  0.00  0.00    +0.197 C 
ENDBRANCH  11  14
ENDBRANCH   1   9
BRANCH   3  16
ATOM     16  O   LIG A   1      -8.702   2.272 127.666  0.00  0.00    -0.491 OA
ATOM     17  C   LIG A   1      -8.688   2.203 129.089  0.00  0.00    +0.277 C 
ENDBRANCH   3  16
BRANCH   5  18
ATOM     18  O   LIG A   1      -9.637  -0.650 123.949  0.00  0.00    -0.491 OA
ATOM     19  C   LIG A   1      -8.852  -1.340 122.986  0.00  0.00    +0.277 C 
ENDBRANCH   5  18
BRANCH   4  20
ATOM     20  O   LIG A   1      -9.893   1.709 125.008  0.00  0.00    -0.501 OA
ATOM     21  H   LIG A   1      -9.675   1.515 124.071  0.00  0.00    +0.292 HD
ENDBRANCH   4  20
TORSDOF 5
ENDMDL
MODEL 9
REMARK VINA RESULT:      -5.7      1.837      3.567
REMARK  Name = NuBBE_863
REMARK  10 active torsions:
REMARK  status: ('A' for Active; 'I' for Inactive)
REMARK    1  A    between atoms: C_1  and  C_2
REMARK    2  A    between atoms: C_3  and  C_10
REMARK    3  A    between atoms: C_5  and  O_8
REMARK    4  A    between atoms: C_6  and  C_7
REMARK    5  A    between atoms: O_8  and  C_9
REMARK    6  A    between atoms: C_12  and  O_13
REMARK    7  A    between atoms: O_13  and  C_14
REMARK    8  A    between atoms: C_15  and  O_20
REMARK    9  A    between atoms: C_16  and  O_18
REMARK   10  A    between atoms: O_18  and  C_19
REMARK                            x       y       z     vdW  Elec       q    Type
REMARK                         _______ _______ _______ _____ _____    ______ ____
ROOT
ATOM      1  C   LIG A   1      -6.832   0.374 125.299  0.00  0.00    -0.011 A 
ATOM      2  C   LIG A   1      -5.773   1.204 125.719  0.00  0.00    +0.056 A 
ATOM      3  C   LIG A   1      -5.699   2.567 125.388  0.00  0.00    +0.165 A 
ATOM      4  C   LIG A   1      -6.717   3.105 124.590  0.00  0.00    +0.201 A 
ATOM      5  C   LIG A   1      -7.801   2.314 124.191  0.00  0.00    +0.165 A 
ATOM      6  C   LIG A   1      -7.862   0.964 124.533  0.00  0.00    +0.056 A 
ENDROOT
BRANCH   1   9
ATOM      7  C   LIG A   1      -6.353  -1.815 123.122  0.00  0.00    +0.011 C 
ATOM      8  C   LIG A   1      -7.115  -2.079 124.410  0.00  0.00    +0.027 C 
ATOM      9  C   LIG A   1      -6.883  -1.125 125.591  0.00  0.00    +0.155 C 
ATOM     10  O   LIG A   1      -7.969  -1.409 126.509  0.00  0.00    -0.343 OA
ATOM     11  C   LIG A   1      -9.020  -2.096 125.801  0.00  0.00    +0.254 C 
ATOM     12  C   LIG A   1      -8.636  -2.035 124.314  0.00  0.00    +0.048 C 
ATOM     13  C   LIG A   1      -9.277  -3.063 123.400  0.00  0.00    +0.013 C 
BRANCH  11  14
ATOM     14  O   LIG A   1      -9.154  -3.445 126.248  0.00  0.00    -0.354 OA
ATOM     15  C   LIG A   1      -8.780  -3.607 127.615  0.00  0.00    +0.197 C 
ENDBRANCH  11  14
ENDBRANCH   1   9
BRANCH   3  16
ATOM     16  O   LIG A   1      -4.600   3.210 125.888  0.00  0.00    -0.491 OA
ATOM     17  C   LIG A   1      -4.757   3.916 127.115  0.00  0.00    +0.277 C 
ENDBRANCH   3  16
BRANCH   5  18
ATOM     18  O   LIG A   1      -8.721   2.967 123.400  0.00  0.00    -0.491 OA
ATOM     19  C   LIG A   1      -9.453   2.131 122.514  0.00  0.00    +0.277 C 
ENDBRANCH   5  18
BRANCH   4  20
ATOM     20  O   LIG A   1      -6.697   4.406 124.163  0.00  0.00    -0.501 OA
ATOM     21  H   LIG A   1      -7.100   4.386 123.269  0.00  0.00    +0.292 HD
ENDBRANCH   4  20
TORSDOF 5
ENDMDL
