MODEL 1
REMARK VINA RESULT:      -5.4      0.000      0.000
REMARK  Name = NuBBE_1866
REMARK  7 active torsions:
REMARK  status: ('A' for Active; 'I' for Inactive)
REMARK    1  A    between atoms: C_1  and  O_2
REMARK    2  A    between atoms: O_2  and  C_3
REMARK    3  A    between atoms: C_5  and  O_19
REMARK    4  A    between atoms: C_7  and  O_18
REMARK    5  A    between atoms: C_9  and  O_11
REMARK    6  A    between atoms: C_12  and  O_14
REMARK    7  A    between atoms: C_15  and  O_17
REMARK                            x       y       z     vdW  Elec       q    Type
REMARK                         _______ _______ _______ _____ _____    ______ ____
ROOT
ATOM      1  C   LIG A   1     -12.236   8.606 129.514  0.00  0.00    +0.180 C 
ATOM      2  C   LIG A   1     -11.498   7.836 128.402  0.00  0.00    +0.177 C 
ATOM      3  C   LIG A   1     -10.309   7.023 128.922  0.00  0.00    +0.176 C 
ATOM      4  C   LIG A   1     -10.729   6.072 130.045  0.00  0.00    +0.176 C 
ATOM      5  C   LIG A   1     -11.455   6.826 131.164  0.00  0.00    +0.176 C 
ATOM      6  C   LIG A   1     -12.646   7.655 130.652  0.00  0.00    +0.177 C 
ENDROOT
BRANCH   1   8
ATOM      7  C   LIG A   1     -13.555  10.592 129.190  0.00  0.00    +0.194 C 
ATOM      8  O   LIG A   1     -13.359   9.227 128.843  0.00  0.00    -0.374 OA
ENDBRANCH   1   8
BRANCH   4   9
ATOM      9  O   LIG A   1     -11.609   5.052 129.547  0.00  0.00    -0.387 OA
ATOM     10  H   LIG A   1     -11.174   4.195 129.711  0.00  0.00    +0.210 HD
ENDBRANCH   4   9
BRANCH   5  11
ATOM     11  O   LIG A   1     -11.962   5.884 132.130  0.00  0.00    -0.387 OA
ATOM     12  H   LIG A   1     -12.867   5.665 131.825  0.00  0.00    +0.210 HD
ENDBRANCH   5  11
BRANCH   6  13
ATOM     13  O   LIG A   1     -13.159   8.394 131.777  0.00  0.00    -0.387 OA
ATOM     14  H   LIG A   1     -13.958   7.906 132.062  0.00  0.00    +0.210 HD
ENDBRANCH   6  13
BRANCH   3  15
ATOM     15  O   LIG A   1      -9.294   7.916 129.391  0.00  0.00    -0.387 OA
ATOM     16  H   LIG A   1      -8.777   7.392 130.038  0.00  0.00    +0.210 HD
ENDBRANCH   3  15
BRANCH   2  17
ATOM     17  O   LIG A   1     -11.004   8.780 127.432  0.00  0.00    -0.387 OA
ATOM     18  H   LIG A   1     -10.614   8.225 126.725  0.00  0.00    +0.210 HD
ENDBRANCH   2  17
TORSDOF 6
ENDMDL
MODEL 2
REMARK VINA RESULT:      -5.1      1.643      4.067
REMARK  Name = NuBBE_1866
REMARK  7 active torsions:
REMARK  status: ('A' for Active; 'I' for Inactive)
REMARK    1  A    between atoms: C_1  and  O_2
REMARK    2  A    between atoms: O_2  and  C_3
REMARK    3  A    between atoms: C_5  and  O_19
REMARK    4  A    between atoms: C_7  and  O_18
REMARK    5  A    between atoms: C_9  and  O_11
REMARK    6  A    between atoms: C_12  and  O_14
REMARK    7  A    between atoms: C_15  and  O_17
REMARK                            x       y       z     vdW  Elec       q    Type
REMARK                         _______ _______ _______ _____ _____    ______ ____
ROOT
ATOM      1  C   LIG A   1     -11.163   6.837 129.920  0.00  0.00    +0.180 C 
ATOM      2  C   LIG A   1     -12.597   7.223 129.506  0.00  0.00    +0.177 C 
ATOM      3  C   LIG A   1     -12.641   8.167 128.302  0.00  0.00    +0.176 C 
ATOM      4  C   LIG A   1     -11.876   7.592 127.109  0.00  0.00    +0.176 C 
ATOM      5  C   LIG A   1     -10.444   7.214 127.502  0.00  0.00    +0.176 C 
ATOM      6  C   LIG A   1     -10.386   6.272 128.718  0.00  0.00    +0.177 C 
ENDROOT
BRANCH   1   8
ATOM      7  C   LIG A   1     -10.566   6.180 132.155  0.00  0.00    +0.194 C 
ATOM      8  O   LIG A   1     -11.338   5.886 130.998  0.00  0.00    -0.374 OA
ENDBRANCH   1   8
BRANCH   4   9
ATOM      9  O   LIG A   1     -12.528   6.415 126.605  0.00  0.00    -0.387 OA
ATOM     10  H   LIG A   1     -11.871   5.934 126.068  0.00  0.00    +0.210 HD
ENDBRANCH   4   9
BRANCH   5  11
ATOM     11  O   LIG A   1      -9.802   6.543 126.400  0.00  0.00    -0.387 OA
ATOM     12  H   LIG A   1     -10.157   6.974 125.595  0.00  0.00    +0.210 HD
ENDBRANCH   5  11
BRANCH   6  13
ATOM     13  O   LIG A   1      -8.995   6.094 129.046  0.00  0.00    -0.387 OA
ATOM     14  H   LIG A   1      -8.972   5.988 130.020  0.00  0.00    +0.210 HD
ENDBRANCH   6  13
BRANCH   3  15
ATOM     15  O   LIG A   1     -12.087   9.433 128.674  0.00  0.00    -0.387 OA
ATOM     16  H   LIG A   1     -11.257   9.215 129.147  0.00  0.00    +0.210 HD
ENDBRANCH   3  15
BRANCH   2  17
ATOM     17  O   LIG A   1     -13.239   7.881 130.615  0.00  0.00    -0.387 OA
ATOM     18  H   LIG A   1     -14.137   7.489 130.648  0.00  0.00    +0.210 HD
ENDBRANCH   2  17
TORSDOF 6
ENDMDL
MODEL 3
REMARK VINA RESULT:      -5.0      1.376      3.302
REMARK  Name = NuBBE_1866
REMARK  7 active torsions:
REMARK  status: ('A' for Active; 'I' for Inactive)
REMARK    1  A    between atoms: C_1  and  O_2
REMARK    2  A    between atoms: O_2  and  C_3
REMARK    3  A    between atoms: C_5  and  O_19
REMARK    4  A    between atoms: C_7  and  O_18
REMARK    5  A    between atoms: C_9  and  O_11
REMARK    6  A    between atoms: C_12  and  O_14
REMARK    7  A    between atoms: C_15  and  O_17
REMARK                            x       y       z     vdW  Elec       q    Type
REMARK                         _______ _______ _______ _____ _____    ______ ____
ROOT
ATOM      1  C   LIG A   1     -12.672   7.103 129.190  0.00  0.00    +0.180 C 
ATOM      2  C   LIG A   1     -12.085   7.415 130.580  0.00  0.00    +0.177 C 
ATOM      3  C   LIG A   1     -10.961   6.458 130.986  0.00  0.00    +0.176 C 
ATOM      4  C   LIG A   1      -9.852   6.417 129.933  0.00  0.00    +0.176 C 
ATOM      5  C   LIG A   1     -10.419   6.096 128.547  0.00  0.00    +0.176 C 
ATOM      6  C   LIG A   1     -11.557   7.045 128.131  0.00  0.00    +0.177 C 
ENDROOT
BRANCH   1   8
ATOM      7  C   LIG A   1     -13.061   9.445 128.798  0.00  0.00    +0.194 C 
ATOM      8  O   LIG A   1     -13.640   8.156 128.959  0.00  0.00    -0.374 OA
ENDBRANCH   1   8
BRANCH   4   9
ATOM      9  O   LIG A   1      -9.173   7.680 129.858  0.00  0.00    -0.387 OA
ATOM     10  H   LIG A   1      -8.473   7.588 129.184  0.00  0.00    +0.210 HD
ENDBRANCH   4   9
BRANCH   5  11
ATOM     11  O   LIG A   1      -9.375   6.209 127.560  0.00  0.00    -0.387 OA
ATOM     12  H   LIG A   1      -8.543   6.274 128.072  0.00  0.00    +0.210 HD
ENDBRANCH   5  11
BRANCH   6  13
ATOM     13  O   LIG A   1     -12.070   6.564 126.874  0.00  0.00    -0.387 OA
ATOM     14  H   LIG A   1     -11.815   7.243 126.216  0.00  0.00    +0.210 HD
ENDBRANCH   6  13
BRANCH   3  15
ATOM     15  O   LIG A   1     -11.503   5.148 131.178  0.00  0.00    -0.387 OA
ATOM     16  H   LIG A   1     -11.917   5.175 132.066  0.00  0.00    +0.210 HD
ENDBRANCH   3  15
BRANCH   2  17
ATOM     17  O   LIG A   1     -13.135   7.314 131.562  0.00  0.00    -0.387 OA
ATOM     18  H   LIG A   1     -12.689   6.974 132.365  0.00  0.00    +0.210 HD
ENDBRANCH   2  17
TORSDOF 6
ENDMDL
MODEL 4
REMARK VINA RESULT:      -5.0      2.070      2.565
REMARK  Name = NuBBE_1866
REMARK  7 active torsions:
REMARK  status: ('A' for Active; 'I' for Inactive)
REMARK    1  A    between atoms: C_1  and  O_2
REMARK    2  A    between atoms: O_2  and  C_3
REMARK    3  A    between atoms: C_5  and  O_19
REMARK    4  A    between atoms: C_7  and  O_18
REMARK    5  A    between atoms: C_9  and  O_11
REMARK    6  A    between atoms: C_12  and  O_14
REMARK    7  A    between atoms: C_15  and  O_17
REMARK                            x       y       z     vdW  Elec       q    Type
REMARK                         _______ _______ _______ _____ _____    ______ ____
ROOT
ATOM      1  C   LIG A   1     -11.258   6.364 129.816  0.00  0.00    +0.180 C 
ATOM      2  C   LIG A   1      -9.961   5.884 129.137  0.00  0.00    +0.177 C 
ATOM      3  C   LIG A   1      -8.708   6.158 129.974  0.00  0.00    +0.176 C 
ATOM      4  C   LIG A   1      -8.830   5.562 131.377  0.00  0.00    +0.176 C 
ATOM      5  C   LIG A   1     -10.111   6.038 132.070  0.00  0.00    +0.176 C 
ATOM      6  C   LIG A   1     -11.376   5.778 131.234  0.00  0.00    +0.177 C 
ENDROOT
BRANCH   1   8
ATOM      7  C   LIG A   1     -13.253   6.963 128.612  0.00  0.00    +0.194 C 
ATOM      8  O   LIG A   1     -12.316   5.939 128.922  0.00  0.00    -0.374 OA
ENDBRANCH   1   8
BRANCH   4   9
ATOM      9  O   LIG A   1      -8.859   4.127 131.321  0.00  0.00    -0.387 OA
ATOM     10  H   LIG A   1      -8.395   3.863 130.505  0.00  0.00    +0.210 HD
ENDBRANCH   4   9
BRANCH   5  11
ATOM     11  O   LIG A   1     -10.267   5.347 133.325  0.00  0.00    -0.387 OA
ATOM     12  H   LIG A   1      -9.700   4.553 133.253  0.00  0.00    +0.210 HD
ENDBRANCH   5  11
BRANCH   6  13
ATOM     13  O   LIG A   1     -12.480   6.373 131.943  0.00  0.00    -0.387 OA
ATOM     14  H   LIG A   1     -12.634   7.234 131.502  0.00  0.00    +0.210 HD
ENDBRANCH   6  13
BRANCH   3  15
ATOM     15  O   LIG A   1      -8.496   7.570 130.059  0.00  0.00    -0.387 OA
ATOM     16  H   LIG A   1      -7.564   7.701 129.785  0.00  0.00    +0.210 HD
ENDBRANCH   3  15
BRANCH   2  17
ATOM     17  O   LIG A   1      -9.815   6.568 127.877  0.00  0.00    -0.387 OA
ATOM     18  H   LIG A   1      -8.958   6.252 127.523  0.00  0.00    +0.210 HD
ENDBRANCH   2  17
TORSDOF 6
ENDMDL
MODEL 5
REMARK VINA RESULT:      -4.8      2.168      3.672
REMARK  Name = NuBBE_1866
REMARK  7 active torsions:
REMARK  status: ('A' for Active; 'I' for Inactive)
REMARK    1  A    between atoms: C_1  and  O_2
REMARK    2  A    between atoms: O_2  and  C_3
REMARK    3  A    between atoms: C_5  and  O_19
REMARK    4  A    between atoms: C_7  and  O_18
REMARK    5  A    between atoms: C_9  and  O_11
REMARK    6  A    between atoms: C_12  and  O_14
REMARK    7  A    between atoms: C_15  and  O_17
REMARK                            x       y       z     vdW  Elec       q    Type
REMARK                         _______ _______ _______ _____ _____    ______ ____
ROOT
ATOM      1  C   LIG A   1     -10.124   6.764 129.775  0.00  0.00    +0.180 C 
ATOM      2  C   LIG A   1     -11.255   5.843 130.271  0.00  0.00    +0.177 C 
ATOM      3  C   LIG A   1     -10.750   4.488 130.773  0.00  0.00    +0.176 C 
ATOM      4  C   LIG A   1      -9.681   4.653 131.854  0.00  0.00    +0.176 C 
ATOM      5  C   LIG A   1      -8.543   5.558 131.371  0.00  0.00    +0.176 C 
ATOM      6  C   LIG A   1      -9.039   6.920 130.855  0.00  0.00    +0.177 C 
ENDROOT
BRANCH   1   8
ATOM      7  C   LIG A   1     -10.537   8.447 128.106  0.00  0.00    +0.194 C 
ATOM      8  O   LIG A   1     -10.788   8.005 129.434  0.00  0.00    -0.374 OA
ENDBRANCH   1   8
BRANCH   4   9
ATOM      9  O   LIG A   1     -10.242   5.235 133.042  0.00  0.00    -0.387 OA
ATOM     10  H   LIG A   1     -10.068   6.193 132.999  0.00  0.00    +0.210 HD
ENDBRANCH   4   9
BRANCH   5  11
ATOM     11  O   LIG A   1      -7.631   5.809 132.458  0.00  0.00    -0.387 OA
ATOM     12  H   LIG A   1      -7.815   6.729 132.741  0.00  0.00    +0.210 HD
ENDBRANCH   5  11
BRANCH   6  13
ATOM     13  O   LIG A   1      -7.892   7.615 130.331  0.00  0.00    -0.387 OA
ATOM     14  H   LIG A   1      -7.846   7.360 129.386  0.00  0.00    +0.210 HD
ENDBRANCH   6  13
BRANCH   3  15
ATOM     15  O   LIG A   1     -10.221   3.743 129.671  0.00  0.00    -0.387 OA
ATOM     16  H   LIG A   1     -10.074   2.841 130.025  0.00  0.00    +0.210 HD
ENDBRANCH   3  15
BRANCH   2  17
ATOM     17  O   LIG A   1     -12.171   5.605 129.185  0.00  0.00    -0.387 OA
ATOM     18  H   LIG A   1     -12.989   6.079 129.443  0.00  0.00    +0.210 HD
ENDBRANCH   2  17
TORSDOF 6
ENDMDL
MODEL 6
REMARK VINA RESULT:      -4.8      1.434      4.289
REMARK  Name = NuBBE_1866
REMARK  7 active torsions:
REMARK  status: ('A' for Active; 'I' for Inactive)
REMARK    1  A    between atoms: C_1  and  O_2
REMARK    2  A    between atoms: O_2  and  C_3
REMARK    3  A    between atoms: C_5  and  O_19
REMARK    4  A    between atoms: C_7  and  O_18
REMARK    5  A    between atoms: C_9  and  O_11
REMARK    6  A    between atoms: C_12  and  O_14
REMARK    7  A    between atoms: C_15  and  O_17
REMARK                            x       y       z     vdW  Elec       q    Type
REMARK                         _______ _______ _______ _____ _____    ______ ____
ROOT
ATOM      1  C   LIG A   1     -10.366   6.991 130.573  0.00  0.00    +0.180 C 
ATOM      2  C   LIG A   1     -11.623   6.199 130.981  0.00  0.00    +0.177 C 
ATOM      3  C   LIG A   1     -12.914   7.011 130.849  0.00  0.00    +0.176 C 
ATOM      4  C   LIG A   1     -13.076   7.582 129.439  0.00  0.00    +0.176 C 
ATOM      5  C   LIG A   1     -11.838   8.382 129.022  0.00  0.00    +0.176 C 
ATOM      6  C   LIG A   1     -10.532   7.580 129.160  0.00  0.00    +0.177 C 
ENDROOT
BRANCH   1   8
ATOM      7  C   LIG A   1      -8.159   6.521 131.406  0.00  0.00    +0.194 C 
ATOM      8  O   LIG A   1      -9.283   6.037 130.682  0.00  0.00    -0.374 OA
ENDBRANCH   1   8
BRANCH   4   9
ATOM      9  O   LIG A   1     -13.271   6.529 128.482  0.00  0.00    -0.387 OA
ATOM     10  H   LIG A   1     -13.087   6.906 127.601  0.00  0.00    +0.210 HD
ENDBRANCH   4   9
BRANCH   5  11
ATOM     11  O   LIG A   1     -11.961   8.779 127.643  0.00  0.00    -0.387 OA
ATOM     12  H   LIG A   1     -12.345   8.004 127.185  0.00  0.00    +0.210 HD
ENDBRANCH   5  11
BRANCH   6  13
ATOM     13  O   LIG A   1      -9.450   8.479 128.851  0.00  0.00    -0.387 OA
ATOM     14  H   LIG A   1      -8.770   8.307 129.534  0.00  0.00    +0.210 HD
ENDBRANCH   6  13
BRANCH   3  15
ATOM     15  O   LIG A   1     -12.906   8.073 131.808  0.00  0.00    -0.387 OA
ATOM     16  H   LIG A   1     -12.055   8.537 131.662  0.00  0.00    +0.210 HD
ENDBRANCH   3  15
BRANCH   2  17
ATOM     17  O   LIG A   1     -11.490   5.793 132.357  0.00  0.00    -0.387 OA
ATOM     18  H   LIG A   1     -12.150   5.077 132.468  0.00  0.00    +0.210 HD
ENDBRANCH   2  17
TORSDOF 6
ENDMDL
MODEL 7
REMARK VINA RESULT:      -4.7      2.701      3.711
REMARK  Name = NuBBE_1866
REMARK  7 active torsions:
REMARK  status: ('A' for Active; 'I' for Inactive)
REMARK    1  A    between atoms: C_1  and  O_2
REMARK    2  A    between atoms: O_2  and  C_3
REMARK    3  A    between atoms: C_5  and  O_19
REMARK    4  A    between atoms: C_7  and  O_18
REMARK    5  A    between atoms: C_9  and  O_11
REMARK    6  A    between atoms: C_12  and  O_14
REMARK    7  A    between atoms: C_15  and  O_17
REMARK                            x       y       z     vdW  Elec       q    Type
REMARK                         _______ _______ _______ _____ _____    ______ ____
ROOT
ATOM      1  C   LIG A   1      -9.763   6.203 130.941  0.00  0.00    +0.180 C 
ATOM      2  C   LIG A   1      -9.762   5.109 129.856  0.00  0.00    +0.177 C 
ATOM      3  C   LIG A   1      -8.906   3.895 130.227  0.00  0.00    +0.176 C 
ATOM      4  C   LIG A   1      -9.319   3.309 131.578  0.00  0.00    +0.176 C 
ATOM      5  C   LIG A   1      -9.314   4.383 132.671  0.00  0.00    +0.176 C 
ATOM      6  C   LIG A   1     -10.163   5.613 132.306  0.00  0.00    +0.177 C 
ENDROOT
BRANCH   1   8
ATOM      7  C   LIG A   1     -12.050   6.810 130.508  0.00  0.00    +0.194 C 
ATOM      8  O   LIG A   1     -10.685   7.205 130.448  0.00  0.00    -0.374 OA
ENDBRANCH   1   8
BRANCH   4   9
ATOM      9  O   LIG A   1     -10.639   2.748 131.509  0.00  0.00    -0.387 OA
ATOM     10  H   LIG A   1     -10.729   2.336 130.629  0.00  0.00    +0.210 HD
ENDBRANCH   4   9
BRANCH   5  11
ATOM     11  O   LIG A   1      -9.846   3.833 133.892  0.00  0.00    -0.387 OA
ATOM     12  H   LIG A   1      -9.674   2.871 133.836  0.00  0.00    +0.210 HD
ENDBRANCH   5  11
BRANCH   6  13
ATOM     13  O   LIG A   1      -9.977   6.581 133.355  0.00  0.00    -0.387 OA
ATOM     14  H   LIG A   1     -10.415   6.195 134.142  0.00  0.00    +0.210 HD
ENDBRANCH   6  13
BRANCH   3  15
ATOM     15  O   LIG A   1      -7.528   4.282 130.262  0.00  0.00    -0.387 OA
ATOM     16  H   LIG A   1      -7.046   3.531 129.856  0.00  0.00    +0.210 HD
ENDBRANCH   3  15
BRANCH   2  17
ATOM     17  O   LIG A   1      -9.242   5.666 128.634  0.00  0.00    -0.387 OA
ATOM     18  H   LIG A   1      -8.942   6.566 128.881  0.00  0.00    +0.210 HD
ENDBRANCH   2  17
TORSDOF 6
ENDMDL
MODEL 8
REMARK VINA RESULT:      -4.6      2.509      4.608
REMARK  Name = NuBBE_1866
REMARK  7 active torsions:
REMARK  status: ('A' for Active; 'I' for Inactive)
REMARK    1  A    between atoms: C_1  and  O_2
REMARK    2  A    between atoms: O_2  and  C_3
REMARK    3  A    between atoms: C_5  and  O_19
REMARK    4  A    between atoms: C_7  and  O_18
REMARK    5  A    between atoms: C_9  and  O_11
REMARK    6  A    between atoms: C_12  and  O_14
REMARK    7  A    between atoms: C_15  and  O_17
REMARK                            x       y       z     vdW  Elec       q    Type
REMARK                         _______ _______ _______ _____ _____    ______ ____
ROOT
ATOM      1  C   LIG A   1     -10.788   5.010 130.436  0.00  0.00    +0.180 C 
ATOM      2  C   LIG A   1     -10.789   6.126 131.499  0.00  0.00    +0.177 C 
ATOM      3  C   LIG A   1      -9.742   5.913 132.595  0.00  0.00    +0.176 C 
ATOM      4  C   LIG A   1      -8.341   5.737 132.006  0.00  0.00    +0.176 C 
ATOM      5  C   LIG A   1      -8.321   4.622 130.955  0.00  0.00    +0.176 C 
ATOM      6  C   LIG A   1      -9.376   4.819 129.853  0.00  0.00    +0.177 C 
ENDROOT
BRANCH   1   8
ATOM      7  C   LIG A   1     -11.469   6.685 128.850  0.00  0.00    +0.194 C 
ATOM      8  O   LIG A   1     -11.768   5.436 129.459  0.00  0.00    -0.374 OA
ENDBRANCH   1   8
BRANCH   4   9
ATOM      9  O   LIG A   1      -7.894   6.950 131.381  0.00  0.00    -0.387 OA
ATOM     10  H   LIG A   1      -8.304   6.983 130.496  0.00  0.00    +0.210 HD
ENDBRANCH   4   9
BRANCH   5  11
ATOM     11  O   LIG A   1      -7.029   4.581 130.319  0.00  0.00    -0.387 OA
ATOM     12  H   LIG A   1      -6.541   3.865 130.775  0.00  0.00    +0.210 HD
ENDBRANCH   5  11
BRANCH   6  13
ATOM     13  O   LIG A   1      -9.326   3.654 129.008  0.00  0.00    -0.387 OA
ATOM     14  H   LIG A   1      -9.297   4.002 128.093  0.00  0.00    +0.210 HD
ENDBRANCH   6  13
BRANCH   3  15
ATOM     15  O   LIG A   1     -10.096   4.763 133.370  0.00  0.00    -0.387 OA
ATOM     16  H   LIG A   1     -10.165   5.092 134.291  0.00  0.00    +0.210 HD
ENDBRANCH   3  15
BRANCH   2  17
ATOM     17  O   LIG A   1     -12.087   6.172 132.123  0.00  0.00    -0.387 OA
ATOM     18  H   LIG A   1     -11.991   5.628 132.932  0.00  0.00    +0.210 HD
ENDBRANCH   2  17
TORSDOF 6
ENDMDL
MODEL 9
REMARK VINA RESULT:      -4.6      7.967     10.020
REMARK  Name = NuBBE_1866
REMARK  7 active torsions:
REMARK  status: ('A' for Active; 'I' for Inactive)
REMARK    1  A    between atoms: C_1  and  O_2
REMARK    2  A    between atoms: O_2  and  C_3
REMARK    3  A    between atoms: C_5  and  O_19
REMARK    4  A    between atoms: C_7  and  O_18
REMARK    5  A    between atoms: C_9  and  O_11
REMARK    6  A    between atoms: C_12  and  O_14
REMARK    7  A    between atoms: C_15  and  O_17
REMARK                            x       y       z     vdW  Elec       q    Type
REMARK                         _______ _______ _______ _____ _____    ______ ____
ROOT
ATOM      1  C   LIG A   1      -9.294  -0.251 124.971  0.00  0.00    +0.180 C 
ATOM      2  C   LIG A   1      -9.126  -0.462 123.453  0.00  0.00    +0.177 C 
ATOM      3  C   LIG A   1      -9.825   0.614 122.617  0.00  0.00    +0.176 C 
ATOM      4  C   LIG A   1      -9.371   2.018 123.017  0.00  0.00    +0.176 C 
ATOM      5  C   LIG A   1      -9.543   2.247 124.522  0.00  0.00    +0.176 C 
ATOM      6  C   LIG A   1      -8.853   1.167 125.374  0.00  0.00    +0.177 C 
ENDROOT
BRANCH   1   8
ATOM      7  C   LIG A   1      -7.097  -1.122 125.422  0.00  0.00    +0.194 C 
ATOM      8  O   LIG A   1      -8.500  -1.301 125.574  0.00  0.00    -0.374 OA
ENDBRANCH   1   8
BRANCH   4   9
ATOM      9  O   LIG A   1      -7.987   2.220 122.689  0.00  0.00    -0.387 OA
ATOM     10  H   LIG A   1      -7.750   1.546 122.025  0.00  0.00    +0.210 HD
ENDBRANCH   4   9
BRANCH   5  11
ATOM     11  O   LIG A   1      -8.973   3.519 124.886  0.00  0.00    -0.387 OA
ATOM     12  H   LIG A   1      -9.138   4.104 124.118  0.00  0.00    +0.210 HD
ENDBRANCH   5  11
BRANCH   6  13
ATOM     13  O   LIG A   1      -9.189   1.436 126.748  0.00  0.00    -0.387 OA
ATOM     14  H   LIG A   1     -10.159   1.573 126.754  0.00  0.00    +0.210 HD
ENDBRANCH   6  13
BRANCH   3  15
ATOM     15  O   LIG A   1     -11.241   0.492 122.780  0.00  0.00    -0.387 OA
ATOM     16  H   LIG A   1     -11.612   1.302 122.370  0.00  0.00    +0.210 HD
ENDBRANCH   3  15
BRANCH   2  17
ATOM     17  O   LIG A   1      -9.685  -1.740 123.096  0.00  0.00    -0.387 OA
ATOM     18  H   LIG A   1      -8.973  -2.189 122.595  0.00  0.00    +0.210 HD
ENDBRANCH   2  17
TORSDOF 6
ENDMDL
