MODEL 1
REMARK VINA RESULT:      -8.6      0.000      0.000
REMARK  Name = NuBBE_2399
REMARK  7 active torsions:
REMARK  status: ('A' for Active; 'I' for Inactive)
REMARK    1  A    between atoms: O_1  and  C_2
REMARK    2  A    between atoms: C_6  and  C_11
REMARK    3  A    between atoms: C_18  and  O_25
REMARK    4  A    between atoms: C_19  and  C_20
REMARK    5  A    between atoms: C_20  and  C_21
REMARK    6  A    between atoms: C_22  and  C_23
REMARK    7  A    between atoms: C_22  and  C_24
REMARK                            x       y       z     vdW  Elec       q    Type
REMARK                         _______ _______ _______ _____ _____    ______ ____
ROOT
ATOM      1  C   LIG A   1      -8.800  -0.296 124.987  0.00  0.00    +0.138 A 
ATOM      2  C   LIG A   1      -8.266   0.725 124.182  0.00  0.00    +0.101 A 
ATOM      3  C   LIG A   1      -7.217   0.455 123.306  0.00  0.00    +0.139 A 
ATOM      4  O   LIG A   1      -6.624   1.395 122.501  0.00  0.00    -0.483 OA
ATOM      5  C   LIG A   1      -7.437   2.556 122.258  0.00  0.00    +0.211 C 
ATOM      6  C   LIG A   1      -7.935   3.160 123.564  0.00  0.00    +0.129 C 
ATOM      7  C   LIG A   1      -8.737   2.120 124.291  0.00  0.00    +0.174 C 
ATOM      8  O   LIG A   1      -9.685   2.395 125.018  0.00  0.00    -0.292 OA
ATOM      9  C   LIG A   1      -6.677  -0.827 123.251  0.00  0.00    +0.092 A 
ATOM     10  C   LIG A   1      -7.194  -1.835 124.068  0.00  0.00    +0.127 A 
ATOM     11  C   LIG A   1      -8.261  -1.593 124.949  0.00  0.00    +0.040 A 
ENDROOT
BRANCH   5  12
ATOM     12  C   LIG A   1      -6.599   3.553 121.471  0.00  0.00    -0.007 A 
ATOM     13  C   LIG A   1      -6.994   3.960 120.186  0.00  0.00    +0.007 A 
ATOM     14  C   LIG A   1      -6.229   4.881 119.464  0.00  0.00    +0.000 A 
ATOM     15  C   LIG A   1      -5.062   5.406 120.013  0.00  0.00    +0.000 A 
ATOM     16  C   LIG A   1      -4.656   5.012 121.285  0.00  0.00    +0.000 A 
ATOM     17  C   LIG A   1      -5.418   4.092 122.009  0.00  0.00    +0.007 A 
ENDBRANCH   5  12
BRANCH   1  18
ATOM     18  O   LIG A   1      -9.841  -0.059 125.851  0.00  0.00    -0.505 OA
ATOM     19  H   LIG A   1      -9.656  -0.520 126.700  0.00  0.00    +0.292 HD
ENDBRANCH   1  18
BRANCH  10  20
ATOM     20  O   LIG A   1      -6.635  -3.083 124.028  0.00  0.00    -0.506 OA
ATOM     21  H   LIG A   1      -5.736  -3.043 124.395  0.00  0.00    +0.292 HD
ENDBRANCH  10  20
BRANCH  11  22
ATOM     22  C   LIG A   1      -8.812  -2.695 125.834  0.00  0.00    +0.069 C 
BRANCH  22  23
ATOM     23  C   LIG A   1      -8.152  -2.745 127.188  0.00  0.00    -0.023 C 
ATOM     24  C   LIG A   1      -8.537  -3.440 128.278  0.00  0.00    -0.079 C 
ATOM     25  C   LIG A   1      -9.742  -4.336 128.352  0.00  0.00    +0.038 C 
ATOM     26  C   LIG A   1      -7.754  -3.357 129.561  0.00  0.00    +0.038 C 
ENDBRANCH  22  23
ENDBRANCH  11  22
TORSDOF 5
ENDMDL
MODEL 2
REMARK VINA RESULT:      -7.8      6.187     10.418
REMARK  Name = NuBBE_2399
REMARK  7 active torsions:
REMARK  status: ('A' for Active; 'I' for Inactive)
REMARK    1  A    between atoms: O_1  and  C_2
REMARK    2  A    between atoms: C_6  and  C_11
REMARK    3  A    between atoms: C_18  and  O_25
REMARK    4  A    between atoms: C_19  and  C_20
REMARK    5  A    between atoms: C_20  and  C_21
REMARK    6  A    between atoms: C_22  and  C_23
REMARK    7  A    between atoms: C_22  and  C_24
REMARK                            x       y       z     vdW  Elec       q    Type
REMARK                         _______ _______ _______ _____ _____    ______ ____
ROOT
ATOM      1  C   LIG A   1      -9.100   4.894 129.625  0.00  0.00    +0.138 A 
ATOM      2  C   LIG A   1      -8.802   3.552 129.917  0.00  0.00    +0.101 A 
ATOM      3  C   LIG A   1      -8.872   3.085 131.228  0.00  0.00    +0.139 A 
ATOM      4  O   LIG A   1      -8.578   1.798 131.603  0.00  0.00    -0.483 OA
ATOM      5  C   LIG A   1      -8.653   0.843 130.532  0.00  0.00    +0.211 C 
ATOM      6  C   LIG A   1      -7.819   1.289 129.339  0.00  0.00    +0.129 C 
ATOM      7  C   LIG A   1      -8.336   2.619 128.872  0.00  0.00    +0.174 C 
ATOM      8  O   LIG A   1      -8.300   2.976 127.701  0.00  0.00    -0.292 OA
ATOM      9  C   LIG A   1      -9.208   3.962 132.256  0.00  0.00    +0.092 A 
ATOM     10  C   LIG A   1      -9.481   5.301 131.966  0.00  0.00    +0.127 A 
ATOM     11  C   LIG A   1      -9.433   5.794 130.652  0.00  0.00    +0.040 A 
ENDROOT
BRANCH   5  12
ATOM     12  C   LIG A   1      -8.176  -0.498 131.071  0.00  0.00    -0.007 A 
ATOM     13  C   LIG A   1      -7.917  -1.567 130.197  0.00  0.00    +0.007 A 
ATOM     14  C   LIG A   1      -7.472  -2.798 130.690  0.00  0.00    +0.000 A 
ATOM     15  C   LIG A   1      -7.281  -2.978 132.057  0.00  0.00    +0.000 A 
ATOM     16  C   LIG A   1      -7.533  -1.928 132.936  0.00  0.00    +0.000 A 
ATOM     17  C   LIG A   1      -7.979  -0.698 132.448  0.00  0.00    +0.007 A 
ENDBRANCH   5  12
BRANCH   1  18
ATOM     18  O   LIG A   1      -9.050   5.377 128.340  0.00  0.00    -0.505 OA
ATOM     19  H   LIG A   1      -8.131   5.674 128.151  0.00  0.00    +0.292 HD
ENDBRANCH   1  18
BRANCH  10  20
ATOM     20  O   LIG A   1      -9.781   6.160 132.988  0.00  0.00    -0.506 OA
ATOM     21  H   LIG A   1     -10.685   5.986 133.298  0.00  0.00    +0.292 HD
ENDBRANCH  10  20
BRANCH  11  22
ATOM     22  C   LIG A   1      -9.730   7.250 130.349  0.00  0.00    +0.069 C 
BRANCH  22  23
ATOM     23  C   LIG A   1     -11.172   7.490 129.981  0.00  0.00    -0.023 C 
ATOM     24  C   LIG A   1     -11.668   7.948 128.813  0.00  0.00    -0.079 C 
ATOM     25  C   LIG A   1     -10.847   8.317 127.608  0.00  0.00    +0.038 C 
ATOM     26  C   LIG A   1     -13.150   8.140 128.628  0.00  0.00    +0.038 C 
ENDBRANCH  22  23
ENDBRANCH  11  22
TORSDOF 5
ENDMDL
MODEL 3
REMARK VINA RESULT:      -7.6      8.629     10.532
REMARK  Name = NuBBE_2399
REMARK  7 active torsions:
REMARK  status: ('A' for Active; 'I' for Inactive)
REMARK    1  A    between atoms: O_1  and  C_2
REMARK    2  A    between atoms: C_6  and  C_11
REMARK    3  A    between atoms: C_18  and  O_25
REMARK    4  A    between atoms: C_19  and  C_20
REMARK    5  A    between atoms: C_20  and  C_21
REMARK    6  A    between atoms: C_22  and  C_23
REMARK    7  A    between atoms: C_22  and  C_24
REMARK                            x       y       z     vdW  Elec       q    Type
REMARK                         _______ _______ _______ _____ _____    ______ ____
ROOT
ATOM      1  C   LIG A   1      -8.757   5.111 129.954  0.00  0.00    +0.138 A 
ATOM      2  C   LIG A   1      -7.399   5.230 130.295  0.00  0.00    +0.101 A 
ATOM      3  C   LIG A   1      -7.028   5.706 131.551  0.00  0.00    +0.139 A 
ATOM      4  O   LIG A   1      -5.728   5.872 131.958  0.00  0.00    -0.483 OA
ATOM      5  C   LIG A   1      -4.775   5.097 131.211  0.00  0.00    +0.211 C 
ATOM      6  C   LIG A   1      -4.935   5.325 129.714  0.00  0.00    +0.129 C 
ATOM      7  C   LIG A   1      -6.329   4.933 129.322  0.00  0.00    +0.174 C 
ATOM      8  O   LIG A   1      -6.609   4.473 128.221  0.00  0.00    -0.292 OA
ATOM      9  C   LIG A   1      -8.010   6.094 132.459  0.00  0.00    +0.092 A 
ATOM     10  C   LIG A   1      -9.359   5.996 132.109  0.00  0.00    +0.127 A 
ATOM     11  C   LIG A   1      -9.760   5.505 130.856  0.00  0.00    +0.040 A 
ENDROOT
BRANCH   5  12
ATOM     12  C   LIG A   1      -3.384   5.488 131.686  0.00  0.00    -0.007 A 
ATOM     13  C   LIG A   1      -2.985   6.835 131.694  0.00  0.00    +0.007 A 
ATOM     14  C   LIG A   1      -1.709   7.198 132.136  0.00  0.00    +0.000 A 
ATOM     15  C   LIG A   1      -0.815   6.223 132.573  0.00  0.00    +0.000 A 
ATOM     16  C   LIG A   1      -1.195   4.883 132.570  0.00  0.00    +0.000 A 
ATOM     17  C   LIG A   1      -2.469   4.518 132.128  0.00  0.00    +0.007 A 
ENDBRANCH   5  12
BRANCH   1  18
ATOM     18  O   LIG A   1      -9.151   4.634 128.727  0.00  0.00    -0.505 OA
ATOM     19  H   LIG A   1      -8.948   3.673 128.683  0.00  0.00    +0.292 HD
ENDBRANCH   1  18
BRANCH  10  20
ATOM     20  O   LIG A   1     -10.312   6.409 132.999  0.00  0.00    -0.506 OA
ATOM     21  H   LIG A   1     -10.736   7.216 132.663  0.00  0.00    +0.292 HD
ENDBRANCH  10  20
BRANCH  11  22
ATOM     22  C   LIG A   1     -11.228   5.406 130.487  0.00  0.00    +0.069 C 
BRANCH  22  23
ATOM     23  C   LIG A   1     -11.709   6.585 129.678  0.00  0.00    -0.023 C 
ATOM     24  C   LIG A   1     -12.481   7.614 130.085  0.00  0.00    -0.079 C 
ATOM     25  C   LIG A   1     -13.027   7.791 131.474  0.00  0.00    +0.038 C 
ATOM     26  C   LIG A   1     -12.877   8.705 129.126  0.00  0.00    +0.038 C 
ENDBRANCH  22  23
ENDBRANCH  11  22
TORSDOF 5
ENDMDL
MODEL 4
REMARK VINA RESULT:      -7.6      6.008      9.953
REMARK  Name = NuBBE_2399
REMARK  7 active torsions:
REMARK  status: ('A' for Active; 'I' for Inactive)
REMARK    1  A    between atoms: O_1  and  C_2
REMARK    2  A    between atoms: C_6  and  C_11
REMARK    3  A    between atoms: C_18  and  O_25
REMARK    4  A    between atoms: C_19  and  C_20
REMARK    5  A    between atoms: C_20  and  C_21
REMARK    6  A    between atoms: C_22  and  C_23
REMARK    7  A    between atoms: C_22  and  C_24
REMARK                            x       y       z     vdW  Elec       q    Type
REMARK                         _______ _______ _______ _____ _____    ______ ____
ROOT
ATOM      1  C   LIG A   1      -9.378   4.391 131.348  0.00  0.00    +0.138 A 
ATOM      2  C   LIG A   1      -9.038   3.041 131.158  0.00  0.00    +0.101 A 
ATOM      3  C   LIG A   1      -8.622   2.588 129.908  0.00  0.00    +0.139 A 
ATOM      4  O   LIG A   1      -8.291   1.285 129.632  0.00  0.00    -0.483 OA
ATOM      5  C   LIG A   1      -7.943   0.510 130.791  0.00  0.00    +0.211 C 
ATOM      6  C   LIG A   1      -9.022   0.607 131.861  0.00  0.00    +0.129 C 
ATOM      7  C   LIG A   1      -9.182   2.049 132.243  0.00  0.00    +0.174 C 
ATOM      8  O   LIG A   1      -9.504   2.410 133.368  0.00  0.00    -0.292 OA
ATOM      9  C   LIG A   1      -8.573   3.474 128.835  0.00  0.00    +0.092 A 
ATOM     10  C   LIG A   1      -8.933   4.811 129.020  0.00  0.00    +0.127 A 
ATOM     11  C   LIG A   1      -9.341   5.297 130.273  0.00  0.00    +0.040 A 
ENDROOT
BRANCH   5  12
ATOM     12  C   LIG A   1      -7.736  -0.929 130.342  0.00  0.00    -0.007 A 
ATOM     13  C   LIG A   1      -7.786  -1.266 128.979  0.00  0.00    +0.007 A 
ATOM     14  C   LIG A   1      -7.590  -2.587 128.564  0.00  0.00    +0.000 A 
ATOM     15  C   LIG A   1      -7.344  -3.587 129.501  0.00  0.00    +0.000 A 
ATOM     16  C   LIG A   1      -7.293  -3.270 130.856  0.00  0.00    +0.000 A 
ATOM     17  C   LIG A   1      -7.489  -1.952 131.274  0.00  0.00    +0.007 A 
ENDBRANCH   5  12
BRANCH   1  18
ATOM     18  O   LIG A   1      -9.780   4.866 132.571  0.00  0.00    -0.505 OA
ATOM     19  H   LIG A   1     -10.749   5.035 132.541  0.00  0.00    +0.292 HD
ENDBRANCH   1  18
BRANCH  10  20
ATOM     20  O   LIG A   1      -8.910   5.664 127.951  0.00  0.00    -0.506 OA
ATOM     21  H   LIG A   1      -8.229   5.373 127.323  0.00  0.00    +0.292 HD
ENDBRANCH  10  20
BRANCH  11  22
ATOM     22  C   LIG A   1      -9.733   6.750 130.461  0.00  0.00    +0.069 C 
BRANCH  22  23
ATOM     23  C   LIG A   1     -11.169   7.022 130.092  0.00  0.00    -0.023 C 
ATOM     24  C   LIG A   1     -11.640   7.791 129.089  0.00  0.00    -0.079 C 
ATOM     25  C   LIG A   1     -10.791   8.551 128.108  0.00  0.00    +0.038 C 
ATOM     26  C   LIG A   1     -13.121   7.960 128.877  0.00  0.00    +0.038 C 
ENDBRANCH  22  23
ENDBRANCH  11  22
TORSDOF 5
ENDMDL
MODEL 5
REMARK VINA RESULT:      -7.5      4.349      7.294
REMARK  Name = NuBBE_2399
REMARK  7 active torsions:
REMARK  status: ('A' for Active; 'I' for Inactive)
REMARK    1  A    between atoms: O_1  and  C_2
REMARK    2  A    between atoms: C_6  and  C_11
REMARK    3  A    between atoms: C_18  and  O_25
REMARK    4  A    between atoms: C_19  and  C_20
REMARK    5  A    between atoms: C_20  and  C_21
REMARK    6  A    between atoms: C_22  and  C_23
REMARK    7  A    between atoms: C_22  and  C_24
REMARK                            x       y       z     vdW  Elec       q    Type
REMARK                         _______ _______ _______ _____ _____    ______ ____
ROOT
ATOM      1  C   LIG A   1      -6.164   3.929 126.233  0.00  0.00    +0.138 A 
ATOM      2  C   LIG A   1      -6.820   2.764 125.801  0.00  0.00    +0.101 A 
ATOM      3  C   LIG A   1      -6.173   1.532 125.852  0.00  0.00    +0.139 A 
ATOM      4  O   LIG A   1      -6.731   0.351 125.432  0.00  0.00    -0.483 OA
ATOM      5  C   LIG A   1      -8.168   0.367 125.379  0.00  0.00    +0.211 C 
ATOM      6  C   LIG A   1      -8.673   1.553 124.569  0.00  0.00    +0.129 C 
ATOM      7  C   LIG A   1      -8.173   2.813 125.213  0.00  0.00    +0.174 C 
ATOM      8  O   LIG A   1      -8.795   3.869 125.187  0.00  0.00    -0.292 OA
ATOM      9  C   LIG A   1      -4.857   1.461 126.305  0.00  0.00    +0.092 A 
ATOM     10  C   LIG A   1      -4.199   2.624 126.712  0.00  0.00    +0.127 A 
ATOM     11  C   LIG A   1      -4.834   3.876 126.685  0.00  0.00    +0.040 A 
ENDROOT
BRANCH   5  12
ATOM     12  C   LIG A   1      -8.625  -0.952 124.774  0.00  0.00    -0.007 A 
ATOM     13  C   LIG A   1      -8.979  -2.031 125.600  0.00  0.00    +0.007 A 
ATOM     14  C   LIG A   1      -9.406  -3.243 125.046  0.00  0.00    +0.000 A 
ATOM     15  C   LIG A   1      -9.484  -3.392 123.664  0.00  0.00    +0.000 A 
ATOM     16  C   LIG A   1      -9.135  -2.332 122.832  0.00  0.00    +0.000 A 
ATOM     17  C   LIG A   1      -8.708  -1.122 123.382  0.00  0.00    +0.007 A 
ENDBRANCH   5  12
BRANCH   1  18
ATOM     18  O   LIG A   1      -6.782   5.155 126.204  0.00  0.00    -0.505 OA
ATOM     19  H   LIG A   1      -6.915   5.419 125.266  0.00  0.00    +0.292 HD
ENDBRANCH   1  18
BRANCH  10  20
ATOM     20  O   LIG A   1      -2.898   2.546 127.126  0.00  0.00    -0.506 OA
ATOM     21  H   LIG A   1      -2.422   1.909 126.568  0.00  0.00    +0.292 HD
ENDBRANCH  10  20
BRANCH  11  22
ATOM     22  C   LIG A   1      -4.108   5.133 127.128  0.00  0.00    +0.069 C 
BRANCH  22  23
ATOM     23  C   LIG A   1      -4.293   5.430 128.594  0.00  0.00    -0.023 C 
ATOM     24  C   LIG A   1      -3.412   5.991 129.448  0.00  0.00    -0.079 C 
ATOM     25  C   LIG A   1      -2.026   6.448 129.086  0.00  0.00    +0.038 C 
ATOM     26  C   LIG A   1      -3.768   6.201 130.896  0.00  0.00    +0.038 C 
ENDBRANCH  22  23
ENDBRANCH  11  22
TORSDOF 5
ENDMDL
MODEL 6
REMARK VINA RESULT:      -7.5      9.830     11.518
REMARK  Name = NuBBE_2399
REMARK  7 active torsions:
REMARK  status: ('A' for Active; 'I' for Inactive)
REMARK    1  A    between atoms: O_1  and  C_2
REMARK    2  A    between atoms: C_6  and  C_11
REMARK    3  A    between atoms: C_18  and  O_25
REMARK    4  A    between atoms: C_19  and  C_20
REMARK    5  A    between atoms: C_20  and  C_21
REMARK    6  A    between atoms: C_22  and  C_23
REMARK    7  A    between atoms: C_22  and  C_24
REMARK                            x       y       z     vdW  Elec       q    Type
REMARK                         _______ _______ _______ _____ _____    ______ ____
ROOT
ATOM      1  C   LIG A   1      -5.616   5.665 132.988  0.00  0.00    +0.138 A 
ATOM      2  C   LIG A   1      -6.832   6.027 132.382  0.00  0.00    +0.101 A 
ATOM      3  C   LIG A   1      -6.840   6.833 131.246  0.00  0.00    +0.139 A 
ATOM      4  O   LIG A   1      -7.980   7.249 130.605  0.00  0.00    -0.483 OA
ATOM      5  C   LIG A   1      -9.135   6.437 130.877  0.00  0.00    +0.211 C 
ATOM      6  C   LIG A   1      -9.353   6.277 132.375  0.00  0.00    +0.129 C 
ATOM      7  C   LIG A   1      -8.131   5.637 132.965  0.00  0.00    +0.174 C 
ATOM      8  O   LIG A   1      -8.170   4.895 133.940  0.00  0.00    -0.292 OA
ATOM      9  C   LIG A   1      -5.638   7.306 130.727  0.00  0.00    +0.092 A 
ATOM     10  C   LIG A   1      -4.432   6.964 131.344  0.00  0.00    +0.127 A 
ATOM     11  C   LIG A   1      -4.395   6.142 132.482  0.00  0.00    +0.040 A 
ENDROOT
BRANCH   5  12
ATOM     12  C   LIG A   1     -10.333   7.097 130.211  0.00  0.00    -0.007 A 
ATOM     13  C   LIG A   1     -11.631   6.890 130.707  0.00  0.00    +0.007 A 
ATOM     14  C   LIG A   1     -12.733   7.500 130.101  0.00  0.00    +0.000 A 
ATOM     15  C   LIG A   1     -12.555   8.323 128.991  0.00  0.00    +0.000 A 
ATOM     16  C   LIG A   1     -11.276   8.538 128.485  0.00  0.00    +0.000 A 
ATOM     17  C   LIG A   1     -10.173   7.929 129.089  0.00  0.00    +0.007 A 
ENDBRANCH   5  12
BRANCH   1  18
ATOM     18  O   LIG A   1      -5.579   4.864 134.102  0.00  0.00    -0.505 OA
ATOM     19  H   LIG A   1      -4.651   4.815 134.425  0.00  0.00    +0.292 HD
ENDBRANCH   1  18
BRANCH  10  20
ATOM     20  O   LIG A   1      -3.260   7.461 130.843  0.00  0.00    -0.506 OA
ATOM     21  H   LIG A   1      -3.172   8.394 131.098  0.00  0.00    +0.292 HD
ENDBRANCH  10  20
BRANCH  11  22
ATOM     22  C   LIG A   1      -3.079   5.779 133.144  0.00  0.00    +0.069 C 
BRANCH  22  23
ATOM     23  C   LIG A   1      -2.554   6.873 134.040  0.00  0.00    -0.023 C 
ATOM     24  C   LIG A   1      -1.377   7.526 133.954  0.00  0.00    -0.079 C 
ATOM     25  C   LIG A   1      -0.325   7.281 132.908  0.00  0.00    +0.038 C 
ATOM     26  C   LIG A   1      -1.011   8.590 134.955  0.00  0.00    +0.038 C 
ENDBRANCH  22  23
ENDBRANCH  11  22
TORSDOF 5
ENDMDL
MODEL 7
REMARK VINA RESULT:      -7.5      8.991     11.025
REMARK  Name = NuBBE_2399
REMARK  7 active torsions:
REMARK  status: ('A' for Active; 'I' for Inactive)
REMARK    1  A    between atoms: O_1  and  C_2
REMARK    2  A    between atoms: C_6  and  C_11
REMARK    3  A    between atoms: C_18  and  O_25
REMARK    4  A    between atoms: C_19  and  C_20
REMARK    5  A    between atoms: C_20  and  C_21
REMARK    6  A    between atoms: C_22  and  C_23
REMARK    7  A    between atoms: C_22  and  C_24
REMARK                            x       y       z     vdW  Elec       q    Type
REMARK                         _______ _______ _______ _____ _____    ______ ____
ROOT
ATOM      1  C   LIG A   1      -9.532   6.129 132.042  0.00  0.00    +0.138 A 
ATOM      2  C   LIG A   1      -8.144   5.984 132.199  0.00  0.00    +0.101 A 
ATOM      3  C   LIG A   1      -7.320   5.843 131.084  0.00  0.00    +0.139 A 
ATOM      4  O   LIG A   1      -5.959   5.676 131.148  0.00  0.00    -0.483 OA
ATOM      5  C   LIG A   1      -5.371   6.122 132.381  0.00  0.00    +0.211 C 
ATOM      6  C   LIG A   1      -6.075   5.503 133.581  0.00  0.00    +0.129 C 
ATOM      7  C   LIG A   1      -7.522   5.898 133.535  0.00  0.00    +0.174 C 
ATOM      8  O   LIG A   1      -8.203   6.058 134.542  0.00  0.00    -0.292 OA
ATOM      9  C   LIG A   1      -7.882   5.816 129.810  0.00  0.00    +0.092 A 
ATOM     10  C   LIG A   1      -9.265   5.937 129.658  0.00  0.00    +0.127 A 
ATOM     11  C   LIG A   1     -10.116   6.095 130.763  0.00  0.00    +0.040 A 
ENDROOT
BRANCH   5  12
ATOM     12  C   LIG A   1      -3.896   5.751 132.353  0.00  0.00    -0.007 A 
ATOM     13  C   LIG A   1      -2.950   6.623 131.789  0.00  0.00    +0.007 A 
ATOM     14  C   LIG A   1      -1.593   6.286 131.767  0.00  0.00    +0.000 A 
ATOM     15  C   LIG A   1      -1.163   5.077 132.306  0.00  0.00    +0.000 A 
ATOM     16  C   LIG A   1      -2.087   4.201 132.869  0.00  0.00    +0.000 A 
ATOM     17  C   LIG A   1      -3.443   4.534 132.891  0.00  0.00    +0.007 A 
ENDBRANCH   5  12
BRANCH   1  18
ATOM     18  O   LIG A   1     -10.366   6.280 133.122  0.00  0.00    -0.505 OA
ATOM     19  H   LIG A   1     -11.113   5.646 133.036  0.00  0.00    +0.292 HD
ENDBRANCH   1  18
BRANCH  10  20
ATOM     20  O   LIG A   1      -9.808   5.878 128.403  0.00  0.00    -0.506 OA
ATOM     21  H   LIG A   1     -10.209   6.736 128.187  0.00  0.00    +0.292 HD
ENDBRANCH  10  20
BRANCH  11  22
ATOM     22  C   LIG A   1     -11.617   6.223 130.585  0.00  0.00    +0.069 C 
BRANCH  22  23
ATOM     23  C   LIG A   1     -12.055   7.639 130.310  0.00  0.00    -0.023 C 
ATOM     24  C   LIG A   1     -12.716   8.112 129.233  0.00  0.00    -0.079 C 
ATOM     25  C   LIG A   1     -13.161   7.286 128.059  0.00  0.00    +0.038 C 
ATOM     26  C   LIG A   1     -13.061   9.574 129.122  0.00  0.00    +0.038 C 
ENDBRANCH  22  23
ENDBRANCH  11  22
TORSDOF 5
ENDMDL
MODEL 8
REMARK VINA RESULT:      -7.2      5.020      7.154
REMARK  Name = NuBBE_2399
REMARK  7 active torsions:
REMARK  status: ('A' for Active; 'I' for Inactive)
REMARK    1  A    between atoms: O_1  and  C_2
REMARK    2  A    between atoms: C_6  and  C_11
REMARK    3  A    between atoms: C_18  and  O_25
REMARK    4  A    between atoms: C_19  and  C_20
REMARK    5  A    between atoms: C_20  and  C_21
REMARK    6  A    between atoms: C_22  and  C_23
REMARK    7  A    between atoms: C_22  and  C_24
REMARK                            x       y       z     vdW  Elec       q    Type
REMARK                         _______ _______ _______ _____ _____    ______ ____
ROOT
ATOM      1  C   LIG A   1      -4.759   4.751 126.631  0.00  0.00    +0.138 A 
ATOM      2  C   LIG A   1      -5.670   3.922 125.956  0.00  0.00    +0.101 A 
ATOM      3  C   LIG A   1      -5.402   2.564 125.796  0.00  0.00    +0.139 A 
ATOM      4  O   LIG A   1      -6.225   1.688 125.134  0.00  0.00    -0.483 OA
ATOM      5  C   LIG A   1      -7.588   2.134 125.024  0.00  0.00    +0.211 C 
ATOM      6  C   LIG A   1      -7.661   3.536 124.436  0.00  0.00    +0.129 C 
ATOM      7  C   LIG A   1      -6.892   4.465 125.331  0.00  0.00    +0.174 C 
ATOM      8  O   LIG A   1      -7.188   5.644 125.481  0.00  0.00    -0.292 OA
ATOM      9  C   LIG A   1      -4.209   2.035 126.283  0.00  0.00    +0.092 A 
ATOM     10  C   LIG A   1      -3.294   2.866 126.933  0.00  0.00    +0.127 A 
ATOM     11  C   LIG A   1      -3.547   4.235 127.121  0.00  0.00    +0.040 A 
ENDROOT
BRANCH   5  12
ATOM     12  C   LIG A   1      -8.335   1.131 124.158  0.00  0.00    -0.007 A 
ATOM     13  C   LIG A   1      -9.449   1.531 123.401  0.00  0.00    +0.007 A 
ATOM     14  C   LIG A   1     -10.134   0.613 122.600  0.00  0.00    +0.000 A 
ATOM     15  C   LIG A   1      -9.719  -0.716 122.545  0.00  0.00    +0.000 A 
ATOM     16  C   LIG A   1      -8.618  -1.129 123.290  0.00  0.00    +0.000 A 
ATOM     17  C   LIG A   1      -7.932  -0.214 124.092  0.00  0.00    +0.007 A 
ENDBRANCH   5  12
BRANCH   1  18
ATOM     18  O   LIG A   1      -5.004   6.090 126.811  0.00  0.00    -0.505 OA
ATOM     19  H   LIG A   1      -5.367   6.460 125.975  0.00  0.00    +0.292 HD
ENDBRANCH   1  18
BRANCH  10  20
ATOM     20  O   LIG A   1      -2.112   2.341 127.380  0.00  0.00    -0.506 OA
ATOM     21  H   LIG A   1      -1.903   2.716 128.251  0.00  0.00    +0.292 HD
ENDBRANCH  10  20
BRANCH  11  22
ATOM     22  C   LIG A   1      -2.545   5.128 127.827  0.00  0.00    +0.069 C 
BRANCH  22  23
ATOM     23  C   LIG A   1      -2.763   5.189 129.317  0.00  0.00    -0.023 C 
ATOM     24  C   LIG A   1      -3.210   6.228 130.052  0.00  0.00    -0.079 C 
ATOM     25  C   LIG A   1      -3.595   7.574 129.504  0.00  0.00    +0.038 C 
ATOM     26  C   LIG A   1      -3.353   6.110 131.546  0.00  0.00    +0.038 C 
ENDBRANCH  22  23
ENDBRANCH  11  22
TORSDOF 5
ENDMDL
MODEL 9
REMARK VINA RESULT:      -7.0      5.242      8.604
REMARK  Name = NuBBE_2399
REMARK  7 active torsions:
REMARK  status: ('A' for Active; 'I' for Inactive)
REMARK    1  A    between atoms: O_1  and  C_2
REMARK    2  A    between atoms: C_6  and  C_11
REMARK    3  A    between atoms: C_18  and  O_25
REMARK    4  A    between atoms: C_19  and  C_20
REMARK    5  A    between atoms: C_20  and  C_21
REMARK    6  A    between atoms: C_22  and  C_23
REMARK    7  A    between atoms: C_22  and  C_24
REMARK                            x       y       z     vdW  Elec       q    Type
REMARK                         _______ _______ _______ _____ _____    ______ ____
ROOT
ATOM      1  C   LIG A   1      -5.621   4.029 128.300  0.00  0.00    +0.138 A 
ATOM      2  C   LIG A   1      -6.239   2.769 128.225  0.00  0.00    +0.101 A 
ATOM      3  C   LIG A   1      -5.642   1.734 127.508  0.00  0.00    +0.139 A 
ATOM      4  O   LIG A   1      -6.185   0.482 127.367  0.00  0.00    -0.483 OA
ATOM      5  C   LIG A   1      -7.154   0.146 128.375  0.00  0.00    +0.211 C 
ATOM      6  C   LIG A   1      -8.228   1.220 128.484  0.00  0.00    +0.129 C 
ATOM      7  C   LIG A   1      -7.562   2.520 128.831  0.00  0.00    +0.174 C 
ATOM      8  O   LIG A   1      -8.103   3.388 129.505  0.00  0.00    -0.292 OA
ATOM      9  C   LIG A   1      -4.444   1.961 126.836  0.00  0.00    +0.092 A 
ATOM     10  C   LIG A   1      -3.843   3.222 126.893  0.00  0.00    +0.127 A 
ATOM     11  C   LIG A   1      -4.416   4.277 127.621  0.00  0.00    +0.040 A 
ENDROOT
BRANCH   5  12
ATOM     12  C   LIG A   1      -7.757  -1.203 128.009  0.00  0.00    -0.007 A 
ATOM     13  C   LIG A   1      -7.839  -2.231 128.962  0.00  0.00    +0.007 A 
ATOM     14  C   LIG A   1      -8.397  -3.469 128.630  0.00  0.00    +0.000 A 
ATOM     15  C   LIG A   1      -8.879  -3.697 127.343  0.00  0.00    +0.000 A 
ATOM     16  C   LIG A   1      -8.804  -2.689 126.386  0.00  0.00    +0.000 A 
ATOM     17  C   LIG A   1      -8.246  -1.452 126.715  0.00  0.00    +0.007 A 
ENDBRANCH   5  12
BRANCH   1  18
ATOM     18  O   LIG A   1      -6.182   5.063 129.009  0.00  0.00    -0.505 OA
ATOM     19  H   LIG A   1      -7.102   4.815 129.254  0.00  0.00    +0.292 HD
ENDBRANCH   1  18
BRANCH  10  20
ATOM     20  O   LIG A   1      -2.682   3.441 126.204  0.00  0.00    -0.506 OA
ATOM     21  H   LIG A   1      -2.891   3.837 125.342  0.00  0.00    +0.292 HD
ENDBRANCH  10  20
BRANCH  11  22
ATOM     22  C   LIG A   1      -3.756   5.642 127.673  0.00  0.00    +0.069 C 
BRANCH  22  23
ATOM     23  C   LIG A   1      -2.737   5.758 128.778  0.00  0.00    -0.023 C 
ATOM     24  C   LIG A   1      -2.773   6.556 129.865  0.00  0.00    -0.079 C 
ATOM     25  C   LIG A   1      -3.881   7.518 130.196  0.00  0.00    +0.038 C 
ATOM     26  C   LIG A   1      -1.648   6.548 130.865  0.00  0.00    +0.038 C 
ENDBRANCH  22  23
ENDBRANCH  11  22
TORSDOF 5
ENDMDL
