MODEL 1
REMARK VINA RESULT:      -7.9      0.000      0.000
REMARK  Name = NuBBE_2497
REMARK  6 active torsions:
REMARK  status: ('A' for Active; 'I' for Inactive)
REMARK    1  A    between atoms: C_1  and  C_2
REMARK    2  A    between atoms: C_2  and  C_3
REMARK    3  A    between atoms: C_4  and  C_5
REMARK    4  A    between atoms: C_14  and  C_15
REMARK    5  A    between atoms: C_14  and  C_16
REMARK    6  A    between atoms: C_21  and  C_22
REMARK                            x       y       z     vdW  Elec       q    Type
REMARK                         _______ _______ _______ _____ _____    ______ ____
ROOT
ATOM      1  C   LIG A   1      -7.443  -2.680 124.838  0.00  0.00    -0.041 A 
ATOM      2  C   LIG A   1      -8.805  -3.055 124.748  0.00  0.00    -0.047 A 
ATOM      3  C   LIG A   1      -9.501  -3.280 123.431  0.00  0.00    +0.044 C 
ATOM      4  C   LIG A   1      -9.545  -3.235 125.917  0.00  0.00    +0.004 A 
ATOM      5  C   LIG A   1      -8.967  -3.023 127.165  0.00  0.00    +0.005 A 
ATOM      6  C   LIG A   1      -7.619  -2.639 127.303  0.00  0.00    -0.038 A 
ATOM      7  C   LIG A   1      -6.849  -2.484 126.125  0.00  0.00    -0.040 A 
ATOM      8  C   LIG A   1      -5.411  -2.043 126.247  0.00  0.00    +0.036 C 
ATOM      9  C   LIG A   1      -4.782  -2.516 127.546  0.00  0.00    +0.010 C 
ATOM     10  C   LIG A   1      -5.540  -1.947 128.753  0.00  0.00    +0.012 C 
ATOM     11  C   LIG A   1      -4.776  -2.244 130.104  0.00  0.00    +0.027 C 
ATOM     12  C   LIG A   1      -3.855  -1.042 130.415  0.00  0.00    +0.019 C 
ATOM     13  C   LIG A   1      -3.888  -3.508 130.093  0.00  0.00    +0.019 C 
ATOM     14  C   LIG A   1      -5.757  -2.434 131.262  0.00  0.00    +0.139 C 
ATOM     15  O   LIG A   1      -5.598  -1.894 132.358  0.00  0.00    -0.297 OA
ATOM     16  C   LIG A   1      -6.892  -3.411 131.065  0.00  0.00    +0.076 C 
ATOM     17  C   LIG A   1      -7.241  -3.628 129.599  0.00  0.00    +0.019 C 
ATOM     18  C   LIG A   1      -7.061  -2.363 128.721  0.00  0.00    -0.003 C 
ATOM     19  C   LIG A   1      -7.890  -1.178 129.299  0.00  0.00    +0.016 C 
ENDROOT
BRANCH   1  21
ATOM     20  C   LIG A   1      -6.741  -1.009 123.078  0.00  0.00    +0.009 C 
ATOM     21  C   LIG A   1      -6.652  -2.451 123.559  0.00  0.00    +0.032 C 
ENDBRANCH   1  21
TORSDOF 1
ENDMDL
MODEL 2
REMARK VINA RESULT:      -7.6      4.312      5.865
REMARK  Name = NuBBE_2497
REMARK  6 active torsions:
REMARK  status: ('A' for Active; 'I' for Inactive)
REMARK    1  A    between atoms: C_1  and  C_2
REMARK    2  A    between atoms: C_2  and  C_3
REMARK    3  A    between atoms: C_4  and  C_5
REMARK    4  A    between atoms: C_14  and  C_15
REMARK    5  A    between atoms: C_14  and  C_16
REMARK    6  A    between atoms: C_21  and  C_22
REMARK                            x       y       z     vdW  Elec       q    Type
REMARK                         _______ _______ _______ _____ _____    ______ ____
ROOT
ATOM      1  C   LIG A   1      -7.419  -1.769 124.371  0.00  0.00    -0.041 A 
ATOM      2  C   LIG A   1      -8.595  -1.905 123.595  0.00  0.00    -0.047 A 
ATOM      3  C   LIG A   1      -9.155  -3.246 123.199  0.00  0.00    +0.044 C 
ATOM      4  C   LIG A   1      -9.278  -0.762 123.179  0.00  0.00    +0.004 A 
ATOM      5  C   LIG A   1      -8.800   0.507 123.495  0.00  0.00    +0.005 A 
ATOM      6  C   LIG A   1      -7.630   0.691 124.255  0.00  0.00    -0.038 A 
ATOM      7  C   LIG A   1      -6.945  -0.462 124.710  0.00  0.00    -0.040 A 
ATOM      8  C   LIG A   1      -5.671  -0.288 125.501  0.00  0.00    +0.036 C 
ATOM      9  C   LIG A   1      -5.677   0.998 126.307  0.00  0.00    +0.010 C 
ATOM     10  C   LIG A   1      -5.812   2.216 125.384  0.00  0.00    +0.012 C 
ATOM     11  C   LIG A   1      -5.599   3.566 126.177  0.00  0.00    +0.027 C 
ATOM     12  C   LIG A   1      -4.106   3.955 126.080  0.00  0.00    +0.019 C 
ATOM     13  C   LIG A   1      -5.959   3.511 127.678  0.00  0.00    +0.019 C 
ATOM     14  C   LIG A   1      -6.449   4.693 125.587  0.00  0.00    +0.139 C 
ATOM     15  O   LIG A   1      -5.995   5.817 125.368  0.00  0.00    -0.297 OA
ATOM     16  C   LIG A   1      -7.920   4.425 125.376  0.00  0.00    +0.076 C 
ATOM     17  C   LIG A   1      -8.238   2.943 125.233  0.00  0.00    +0.019 C 
ATOM     18  C   LIG A   1      -7.127   2.133 124.517  0.00  0.00    -0.003 C 
ATOM     19  C   LIG A   1      -6.816   2.751 123.121  0.00  0.00    +0.016 C 
ENDROOT
BRANCH   1  21
ATOM     20  C   LIG A   1      -5.504  -3.333 123.851  0.00  0.00    +0.009 C 
ATOM     21  C   LIG A   1      -6.659  -3.018 124.791  0.00  0.00    +0.032 C 
ENDBRANCH   1  21
TORSDOF 1
ENDMDL
MODEL 3
REMARK VINA RESULT:      -7.5      3.847      6.494
REMARK  Name = NuBBE_2497
REMARK  6 active torsions:
REMARK  status: ('A' for Active; 'I' for Inactive)
REMARK    1  A    between atoms: C_1  and  C_2
REMARK    2  A    between atoms: C_2  and  C_3
REMARK    3  A    between atoms: C_4  and  C_5
REMARK    4  A    between atoms: C_14  and  C_15
REMARK    5  A    between atoms: C_14  and  C_16
REMARK    6  A    between atoms: C_21  and  C_22
REMARK                            x       y       z     vdW  Elec       q    Type
REMARK                         _______ _______ _______ _____ _____    ______ ____
ROOT
ATOM      1  C   LIG A   1      -7.849  -1.892 127.670  0.00  0.00    -0.041 A 
ATOM      2  C   LIG A   1      -8.672  -2.956 127.228  0.00  0.00    -0.047 A 
ATOM      3  C   LIG A   1      -8.951  -4.172 128.072  0.00  0.00    +0.044 C 
ATOM      4  C   LIG A   1      -9.263  -2.886 125.965  0.00  0.00    +0.004 A 
ATOM      5  C   LIG A   1      -9.028  -1.799 125.129  0.00  0.00    +0.005 A 
ATOM      6  C   LIG A   1      -8.209  -0.724 125.522  0.00  0.00    -0.038 A 
ATOM      7  C   LIG A   1      -7.628  -0.768 126.812  0.00  0.00    -0.040 A 
ATOM      8  C   LIG A   1      -6.721   0.359 127.243  0.00  0.00    +0.036 C 
ATOM      9  C   LIG A   1      -7.108   1.676 126.594  0.00  0.00    +0.010 C 
ATOM     10  C   LIG A   1      -7.019   1.574 125.066  0.00  0.00    +0.012 C 
ATOM     11  C   LIG A   1      -7.201   2.988 124.383  0.00  0.00    +0.027 C 
ATOM     12  C   LIG A   1      -5.803   3.616 124.187  0.00  0.00    +0.019 C 
ATOM     13  C   LIG A   1      -8.048   4.000 125.185  0.00  0.00    +0.019 C 
ATOM     14  C   LIG A   1      -7.887   2.859 123.022  0.00  0.00    +0.139 C 
ATOM     15  O   LIG A   1      -7.480   3.446 122.019  0.00  0.00    -0.297 OA
ATOM     16  C   LIG A   1      -9.170   2.064 122.956  0.00  0.00    +0.076 C 
ATOM     17  C   LIG A   1      -9.297   1.048 124.082  0.00  0.00    +0.019 C 
ATOM     18  C   LIG A   1      -7.946   0.424 124.514  0.00  0.00    -0.003 C 
ATOM     19  C   LIG A   1      -7.227  -0.220 123.291  0.00  0.00    +0.016 C 
ENDROOT
BRANCH   1  21
ATOM     20  C   LIG A   1      -7.995  -1.314 130.125  0.00  0.00    +0.009 C 
ATOM     21  C   LIG A   1      -7.179  -1.990 129.032  0.00  0.00    +0.032 C 
ENDBRANCH   1  21
TORSDOF 1
ENDMDL
MODEL 4
REMARK VINA RESULT:      -7.5      2.638      5.863
REMARK  Name = NuBBE_2497
REMARK  6 active torsions:
REMARK  status: ('A' for Active; 'I' for Inactive)
REMARK    1  A    between atoms: C_1  and  C_2
REMARK    2  A    between atoms: C_2  and  C_3
REMARK    3  A    between atoms: C_4  and  C_5
REMARK    4  A    between atoms: C_14  and  C_15
REMARK    5  A    between atoms: C_14  and  C_16
REMARK    6  A    between atoms: C_21  and  C_22
REMARK                            x       y       z     vdW  Elec       q    Type
REMARK                         _______ _______ _______ _____ _____    ______ ____
ROOT
ATOM      1  C   LIG A   1      -5.555  -3.146 129.264  0.00  0.00    -0.041 A 
ATOM      2  C   LIG A   1      -6.428  -3.283 130.370  0.00  0.00    -0.047 A 
ATOM      3  C   LIG A   1      -5.967  -3.795 131.710  0.00  0.00    +0.044 C 
ATOM      4  C   LIG A   1      -7.770  -2.926 130.232  0.00  0.00    +0.004 A 
ATOM      5  C   LIG A   1      -8.262  -2.465 129.015  0.00  0.00    +0.005 A 
ATOM      6  C   LIG A   1      -7.434  -2.323 127.886  0.00  0.00    -0.038 A 
ATOM      7  C   LIG A   1      -6.064  -2.652 128.021  0.00  0.00    -0.040 A 
ATOM      8  C   LIG A   1      -5.164  -2.537 126.815  0.00  0.00    +0.036 C 
ATOM      9  C   LIG A   1      -5.625  -1.443 125.867  0.00  0.00    +0.010 C 
ATOM     10  C   LIG A   1      -7.042  -1.732 125.355  0.00  0.00    +0.012 C 
ATOM     11  C   LIG A   1      -7.453  -0.730 124.205  0.00  0.00    +0.027 C 
ATOM     12  C   LIG A   1      -7.087  -1.373 122.847  0.00  0.00    +0.019 C 
ATOM     13  C   LIG A   1      -6.762   0.650 124.257  0.00  0.00    +0.019 C 
ATOM     14  C   LIG A   1      -8.956  -0.444 124.233  0.00  0.00    +0.139 C 
ATOM     15  O   LIG A   1      -9.651  -0.459 123.216  0.00  0.00    -0.297 OA
ATOM     16  C   LIG A   1      -9.564  -0.024 125.550  0.00  0.00    +0.076 C 
ATOM     17  C   LIG A   1      -8.755  -0.488 126.753  0.00  0.00    +0.019 C 
ATOM     18  C   LIG A   1      -8.066  -1.861 126.548  0.00  0.00    -0.003 C 
ATOM     19  C   LIG A   1      -9.115  -2.944 126.159  0.00  0.00    +0.016 C 
ENDROOT
BRANCH   1  21
ATOM     20  C   LIG A   1      -3.216  -2.433 129.897  0.00  0.00    +0.009 C 
ATOM     21  C   LIG A   1      -4.102  -3.571 129.410  0.00  0.00    +0.032 C 
ENDBRANCH   1  21
TORSDOF 1
ENDMDL
MODEL 5
REMARK VINA RESULT:      -7.5      1.500      3.248
REMARK  Name = NuBBE_2497
REMARK  6 active torsions:
REMARK  status: ('A' for Active; 'I' for Inactive)
REMARK    1  A    between atoms: C_1  and  C_2
REMARK    2  A    between atoms: C_2  and  C_3
REMARK    3  A    between atoms: C_4  and  C_5
REMARK    4  A    between atoms: C_14  and  C_15
REMARK    5  A    between atoms: C_14  and  C_16
REMARK    6  A    between atoms: C_21  and  C_22
REMARK                            x       y       z     vdW  Elec       q    Type
REMARK                         _______ _______ _______ _____ _____    ______ ____
ROOT
ATOM      1  C   LIG A   1      -7.901  -1.875 126.290  0.00  0.00    -0.041 A 
ATOM      2  C   LIG A   1      -7.227  -0.920 125.492  0.00  0.00    -0.047 A 
ATOM      3  C   LIG A   1      -7.828  -0.338 124.240  0.00  0.00    +0.044 C 
ATOM      4  C   LIG A   1      -5.956  -0.485 125.870  0.00  0.00    +0.004 A 
ATOM      5  C   LIG A   1      -5.337  -0.999 127.005  0.00  0.00    +0.005 A 
ATOM      6  C   LIG A   1      -5.965  -1.958 127.823  0.00  0.00    -0.038 A 
ATOM      7  C   LIG A   1      -7.267  -2.384 127.467  0.00  0.00    -0.040 A 
ATOM      8  C   LIG A   1      -7.947  -3.434 128.312  0.00  0.00    +0.036 C 
ATOM      9  C   LIG A   1      -7.507  -3.364 129.764  0.00  0.00    +0.010 C 
ATOM     10  C   LIG A   1      -5.994  -3.589 129.883  0.00  0.00    +0.012 C 
ATOM     11  C   LIG A   1      -5.552  -3.740 131.393  0.00  0.00    +0.027 C 
ATOM     12  C   LIG A   1      -5.565  -5.243 131.755  0.00  0.00    +0.019 C 
ATOM     13  C   LIG A   1      -6.453  -3.016 132.417  0.00  0.00    +0.019 C 
ATOM     14  C   LIG A   1      -4.143  -3.186 131.613  0.00  0.00    +0.139 C 
ATOM     15  O   LIG A   1      -3.287  -3.794 132.256  0.00  0.00    -0.297 OA
ATOM     16  C   LIG A   1      -3.851  -1.793 131.108  0.00  0.00    +0.076 C 
ATOM     17  C   LIG A   1      -4.775  -1.366 129.975  0.00  0.00    +0.019 C 
ATOM     18  C   LIG A   1      -5.189  -2.528 129.037  0.00  0.00    -0.003 C 
ATOM     19  C   LIG A   1      -3.928  -3.238 128.461  0.00  0.00    +0.016 C 
ENDROOT
BRANCH   1  21
ATOM     20  C   LIG A   1      -9.177  -3.447 124.779  0.00  0.00    +0.009 C 
ATOM     21  C   LIG A   1      -9.271  -2.372 125.853  0.00  0.00    +0.032 C 
ENDBRANCH   1  21
TORSDOF 1
ENDMDL
MODEL 6
REMARK VINA RESULT:      -7.3      2.934      6.447
REMARK  Name = NuBBE_2497
REMARK  6 active torsions:
REMARK  status: ('A' for Active; 'I' for Inactive)
REMARK    1  A    between atoms: C_1  and  C_2
REMARK    2  A    between atoms: C_2  and  C_3
REMARK    3  A    between atoms: C_4  and  C_5
REMARK    4  A    between atoms: C_14  and  C_15
REMARK    5  A    between atoms: C_14  and  C_16
REMARK    6  A    between atoms: C_21  and  C_22
REMARK                            x       y       z     vdW  Elec       q    Type
REMARK                         _______ _______ _______ _____ _____    ______ ____
ROOT
ATOM      1  C   LIG A   1      -7.577  -1.874 129.841  0.00  0.00    -0.041 A 
ATOM      2  C   LIG A   1      -7.299  -0.616 130.427  0.00  0.00    -0.047 A 
ATOM      3  C   LIG A   1      -6.960  -0.457 131.886  0.00  0.00    +0.044 C 
ATOM      4  C   LIG A   1      -7.328   0.531 129.634  0.00  0.00    +0.004 A 
ATOM      5  C   LIG A   1      -7.654   0.454 128.283  0.00  0.00    +0.005 A 
ATOM      6  C   LIG A   1      -7.948  -0.774 127.660  0.00  0.00    -0.038 A 
ATOM      7  C   LIG A   1      -7.892  -1.949 128.447  0.00  0.00    -0.040 A 
ATOM      8  C   LIG A   1      -8.233  -3.272 127.807  0.00  0.00    +0.036 C 
ATOM      9  C   LIG A   1      -7.885  -3.292 126.329  0.00  0.00    +0.010 C 
ATOM     10  C   LIG A   1      -8.661  -2.205 125.574  0.00  0.00    +0.012 C 
ATOM     11  C   LIG A   1      -8.483  -2.351 124.011  0.00  0.00    +0.027 C 
ATOM     12  C   LIG A   1      -9.641  -3.220 123.470  0.00  0.00    +0.019 C 
ATOM     13  C   LIG A   1      -7.164  -3.015 123.559  0.00  0.00    +0.019 C 
ATOM     14  C   LIG A   1      -8.519  -0.986 123.322  0.00  0.00    +0.139 C 
ATOM     15  O   LIG A   1      -9.182  -0.776 122.305  0.00  0.00    -0.297 OA
ATOM     16  C   LIG A   1      -7.615   0.096 123.863  0.00  0.00    +0.076 C 
ATOM     17  C   LIG A   1      -7.237  -0.120 125.322  0.00  0.00    +0.019 C 
ATOM     18  C   LIG A   1      -8.361  -0.774 126.166  0.00  0.00    -0.003 C 
ATOM     19  C   LIG A   1      -9.671   0.063 126.070  0.00  0.00    +0.016 C 
ENDROOT
BRANCH   1  21
ATOM     20  C   LIG A   1      -6.244  -3.848 130.684  0.00  0.00    +0.009 C 
ATOM     21  C   LIG A   1      -7.579  -3.117 130.718  0.00  0.00    +0.032 C 
ENDBRANCH   1  21
TORSDOF 1
ENDMDL
MODEL 7
REMARK VINA RESULT:      -7.2      2.822      6.283
REMARK  Name = NuBBE_2497
REMARK  6 active torsions:
REMARK  status: ('A' for Active; 'I' for Inactive)
REMARK    1  A    between atoms: C_1  and  C_2
REMARK    2  A    between atoms: C_2  and  C_3
REMARK    3  A    between atoms: C_4  and  C_5
REMARK    4  A    between atoms: C_14  and  C_15
REMARK    5  A    between atoms: C_14  and  C_16
REMARK    6  A    between atoms: C_21  and  C_22
REMARK                            x       y       z     vdW  Elec       q    Type
REMARK                         _______ _______ _______ _____ _____    ______ ____
ROOT
ATOM      1  C   LIG A   1      -7.704  -0.911 130.304  0.00  0.00    -0.041 A 
ATOM      2  C   LIG A   1      -7.652  -2.206 130.873  0.00  0.00    -0.047 A 
ATOM      3  C   LIG A   1      -7.674  -2.441 132.361  0.00  0.00    +0.044 C 
ATOM      4  C   LIG A   1      -7.584  -3.321 130.036  0.00  0.00    +0.004 A 
ATOM      5  C   LIG A   1      -7.540  -3.170 128.653  0.00  0.00    +0.005 A 
ATOM      6  C   LIG A   1      -7.579  -1.902 128.043  0.00  0.00    -0.038 A 
ATOM      7  C   LIG A   1      -7.679  -0.765 128.880  0.00  0.00    -0.040 A 
ATOM      8  C   LIG A   1      -7.691   0.606 128.250  0.00  0.00    +0.036 C 
ATOM      9  C   LIG A   1      -8.314   0.586 126.865  0.00  0.00    +0.010 C 
ATOM     10  C   LIG A   1      -7.527  -0.341 125.930  0.00  0.00    +0.012 C 
ATOM     11  C   LIG A   1      -8.022  -0.207 124.435  0.00  0.00    +0.027 C 
ATOM     12  C   LIG A   1      -7.150   0.856 123.729  0.00  0.00    +0.019 C 
ATOM     13  C   LIG A   1      -9.495   0.227 124.268  0.00  0.00    +0.019 C 
ATOM     14  C   LIG A   1      -7.892  -1.536 123.689  0.00  0.00    +0.139 C 
ATOM     15  O   LIG A   1      -7.410  -1.615 122.559  0.00  0.00    -0.297 OA
ATOM     16  C   LIG A   1      -8.482  -2.765 124.339  0.00  0.00    +0.076 C 
ATOM     17  C   LIG A   1      -8.605  -2.636 125.851  0.00  0.00    +0.019 C 
ATOM     18  C   LIG A   1      -7.465  -1.810 126.501  0.00  0.00    -0.003 C 
ATOM     19  C   LIG A   1      -6.077  -2.408 126.125  0.00  0.00    +0.016 C 
ENDROOT
BRANCH   1  21
ATOM     20  C   LIG A   1      -9.162   0.680 131.618  0.00  0.00    +0.009 C 
ATOM     21  C   LIG A   1      -7.742   0.301 131.222  0.00  0.00    +0.032 C 
ENDBRANCH   1  21
TORSDOF 1
ENDMDL
MODEL 8
REMARK VINA RESULT:      -7.1      3.728      6.469
REMARK  Name = NuBBE_2497
REMARK  6 active torsions:
REMARK  status: ('A' for Active; 'I' for Inactive)
REMARK    1  A    between atoms: C_1  and  C_2
REMARK    2  A    between atoms: C_2  and  C_3
REMARK    3  A    between atoms: C_4  and  C_5
REMARK    4  A    between atoms: C_14  and  C_15
REMARK    5  A    between atoms: C_14  and  C_16
REMARK    6  A    between atoms: C_21  and  C_22
REMARK                            x       y       z     vdW  Elec       q    Type
REMARK                         _______ _______ _______ _____ _____    ______ ____
ROOT
ATOM      1  C   LIG A   1      -5.100   2.027 126.338  0.00  0.00    -0.041 A 
ATOM      2  C   LIG A   1      -5.228   3.188 125.538  0.00  0.00    -0.047 A 
ATOM      3  C   LIG A   1      -4.448   4.450 125.805  0.00  0.00    +0.044 C 
ATOM      4  C   LIG A   1      -6.101   3.178 124.450  0.00  0.00    +0.004 A 
ATOM      5  C   LIG A   1      -6.865   2.051 124.161  0.00  0.00    +0.005 A 
ATOM      6  C   LIG A   1      -6.778   0.878 124.935  0.00  0.00    -0.038 A 
ATOM      7  C   LIG A   1      -5.873   0.865 126.023  0.00  0.00    -0.040 A 
ATOM      8  C   LIG A   1      -5.786  -0.370 126.885  0.00  0.00    +0.036 C 
ATOM      9  C   LIG A   1      -6.094  -1.632 126.098  0.00  0.00    +0.010 C 
ATOM     10  C   LIG A   1      -7.514  -1.576 125.520  0.00  0.00    +0.012 C 
ATOM     11  C   LIG A   1      -7.933  -2.963 124.888  0.00  0.00    +0.027 C 
ATOM     12  C   LIG A   1      -8.662  -3.789 125.972  0.00  0.00    +0.019 C 
ATOM     13  C   LIG A   1      -6.764  -3.827 124.365  0.00  0.00    +0.019 C 
ATOM     14  C   LIG A   1      -8.871  -2.766 123.696  0.00  0.00    +0.139 C 
ATOM     15  O   LIG A   1      -9.899  -3.426 123.548  0.00  0.00    -0.297 OA
ATOM     16  C   LIG A   1      -8.441  -1.797 122.620  0.00  0.00    +0.076 C 
ATOM     17  C   LIG A   1      -7.457  -0.749 123.122  0.00  0.00    +0.019 C 
ATOM     18  C   LIG A   1      -7.703  -0.316 124.590  0.00  0.00    -0.003 C 
ATOM     19  C   LIG A   1      -9.165   0.192 124.770  0.00  0.00    +0.016 C 
ENDROOT
BRANCH   1  21
ATOM     20  C   LIG A   1      -4.889   2.508 128.809  0.00  0.00    +0.009 C 
ATOM     21  C   LIG A   1      -4.173   2.057 127.544  0.00  0.00    +0.032 C 
ENDBRANCH   1  21
TORSDOF 1
ENDMDL
MODEL 9
REMARK VINA RESULT:      -7.1      1.202      3.132
REMARK  Name = NuBBE_2497
REMARK  6 active torsions:
REMARK  status: ('A' for Active; 'I' for Inactive)
REMARK    1  A    between atoms: C_1  and  C_2
REMARK    2  A    between atoms: C_2  and  C_3
REMARK    3  A    between atoms: C_4  and  C_5
REMARK    4  A    between atoms: C_14  and  C_15
REMARK    5  A    between atoms: C_14  and  C_16
REMARK    6  A    between atoms: C_21  and  C_22
REMARK                            x       y       z     vdW  Elec       q    Type
REMARK                         _______ _______ _______ _____ _____    ______ ____
ROOT
ATOM      1  C   LIG A   1      -7.293  -2.788 125.104  0.00  0.00    -0.041 A 
ATOM      2  C   LIG A   1      -6.382  -2.126 124.246  0.00  0.00    -0.047 A 
ATOM      3  C   LIG A   1      -6.435  -2.258 122.747  0.00  0.00    +0.044 C 
ATOM      4  C   LIG A   1      -5.394  -1.308 124.796  0.00  0.00    +0.004 A 
ATOM      5  C   LIG A   1      -5.279  -1.160 126.175  0.00  0.00    +0.005 A 
ATOM      6  C   LIG A   1      -6.156  -1.807 127.066  0.00  0.00    -0.038 A 
ATOM      7  C   LIG A   1      -7.182  -2.616 126.520  0.00  0.00    -0.040 A 
ATOM      8  C   LIG A   1      -8.114  -3.344 127.457  0.00  0.00    +0.036 C 
ATOM      9  C   LIG A   1      -8.312  -2.587 128.759  0.00  0.00    +0.010 C 
ATOM     10  C   LIG A   1      -6.975  -2.408 129.490  0.00  0.00    +0.012 C 
ATOM     11  C   LIG A   1      -7.187  -1.822 130.942  0.00  0.00    +0.027 C 
ATOM     12  C   LIG A   1      -7.299  -3.005 131.931  0.00  0.00    +0.019 C 
ATOM     13  C   LIG A   1      -8.453  -0.956 131.123  0.00  0.00    +0.019 C 
ATOM     14  C   LIG A   1      -6.013  -0.934 131.356  0.00  0.00    +0.139 C 
ATOM     15  O   LIG A   1      -5.476  -1.020 132.462  0.00  0.00    -0.297 OA
ATOM     16  C   LIG A   1      -5.586   0.154 130.400  0.00  0.00    +0.076 C 
ATOM     17  C   LIG A   1      -5.976  -0.137 128.957  0.00  0.00    +0.019 C 
ATOM     18  C   LIG A   1      -5.929  -1.642 128.590  0.00  0.00    -0.003 C 
ATOM     19  C   LIG A   1      -4.520  -2.233 128.893  0.00  0.00    +0.016 C 
ENDROOT
BRANCH   1  21
ATOM     20  C   LIG A   1      -9.540  -2.936 123.958  0.00  0.00    +0.009 C 
ATOM     21  C   LIG A   1      -8.345  -3.707 124.500  0.00  0.00    +0.032 C 
ENDBRANCH   1  21
TORSDOF 1
ENDMDL
