MODEL 1
REMARK VINA RESULT:      -6.3      0.000      0.000
REMARK  Name = NuBBE_556
REMARK  9 active torsions:
REMARK  status: ('A' for Active; 'I' for Inactive)
REMARK    1  A    between atoms: O_1  and  C_2
REMARK    2  A    between atoms: C_2  and  C_4
REMARK    3  A    between atoms: C_2  and  C_19
REMARK    4  A    between atoms: C_4  and  C_5
REMARK    5  A    between atoms: C_5  and  O_7
REMARK    6  A    between atoms: C_5  and  C_8
REMARK    7  A    between atoms: C_8  and  C_9
REMARK    8  A    between atoms: C_10  and  C_11
REMARK    9  A    between atoms: C_20  and  C_21
REMARK                            x       y       z     vdW  Elec       q    Type
REMARK                         _______ _______ _______ _____ _____    ______ ____
ROOT
ATOM      1  C   LIG A   1      -7.257  -2.948 129.210  0.00  0.00    +0.121 C 
ENDROOT
BRANCH   1   2
ATOM      2  O   LIG A   1      -7.405  -3.339 130.579  0.00  0.00    -0.391 OA
ATOM      3  H   LIG A   1      -6.501  -3.456 130.942  0.00  0.00    +0.210 HD
ENDBRANCH   1   2
BRANCH   1   4
ATOM      4  C   LIG A   1      -6.753  -1.493 129.110  0.00  0.00    +0.067 C 
BRANCH   4   5
ATOM      5  C   LIG A   1      -5.808  -1.197 127.933  0.00  0.00    +0.140 C 
BRANCH   5   6
ATOM      6  O   LIG A   1      -5.292  -2.425 127.425  0.00  0.00    -0.388 OA
ATOM      7  H   LIG A   1      -6.065  -2.938 127.123  0.00  0.00    +0.210 HD
ENDBRANCH   5   6
BRANCH   5   8
ATOM      8  C   LIG A   1      -6.463  -0.485 126.787  0.00  0.00    +0.004 C 
ATOM      9  C   LIG A   1      -7.684   0.072 126.835  0.00  0.00    +0.006 C 
BRANCH   9  10
ATOM     10  C   LIG A   1      -8.263   0.756 125.676  0.00  0.00    -0.025 A 
ATOM     11  C   LIG A   1      -9.644   0.723 125.449  0.00  0.00    +0.008 A 
ATOM     12  C   LIG A   1     -10.191   1.373 124.340  0.00  0.00    +0.001 A 
ATOM     13  C   LIG A   1      -9.364   2.066 123.456  0.00  0.00    +0.000 A 
ATOM     14  C   LIG A   1      -7.989   2.108 123.680  0.00  0.00    +0.001 A 
ATOM     15  C   LIG A   1      -7.439   1.455 124.787  0.00  0.00    +0.008 A 
ENDBRANCH   9  10
ENDBRANCH   5   8
ENDBRANCH   4   5
ENDBRANCH   1   4
BRANCH   1  16
ATOM     16  C   LIG A   1      -8.625  -3.153 128.526  0.00  0.00    +0.058 C 
BRANCH  16  17
ATOM     17  C   LIG A   1      -8.542  -3.844 127.190  0.00  0.00    -0.025 C 
ATOM     18  C   LIG A   1      -8.741  -3.225 126.014  0.00  0.00    +0.013 C 
BRANCH  18  19
ATOM     19  C   LIG A   1      -8.546  -3.871 124.662  0.00  0.00    +0.203 C 
ATOM     20  O   LIG A   1      -7.129  -3.859 124.350  0.00  0.00    -0.454 OA
ATOM     21  C   LIG A   1      -6.557  -2.762 123.805  0.00  0.00    +0.332 C 
ATOM     22  C   LIG A   1      -7.456  -1.749 123.220  0.00  0.00    +0.087 C 
ATOM     23  C   LIG A   1      -8.766  -1.980 123.060  0.00  0.00    -0.016 C 
ATOM     24  C   LIG A   1      -9.375  -3.258 123.533  0.00  0.00    +0.076 C 
ATOM     25  O   LIG A   1      -5.336  -2.606 123.764  0.00  0.00    -0.246 OA
ENDBRANCH  18  19
ENDBRANCH  16  17
ENDBRANCH   1  16
TORSDOF 9
ENDMDL
MODEL 2
REMARK VINA RESULT:      -6.3      3.342      4.949
REMARK  Name = NuBBE_556
REMARK  9 active torsions:
REMARK  status: ('A' for Active; 'I' for Inactive)
REMARK    1  A    between atoms: O_1  and  C_2
REMARK    2  A    between atoms: C_2  and  C_4
REMARK    3  A    between atoms: C_2  and  C_19
REMARK    4  A    between atoms: C_4  and  C_5
REMARK    5  A    between atoms: C_5  and  O_7
REMARK    6  A    between atoms: C_5  and  C_8
REMARK    7  A    between atoms: C_8  and  C_9
REMARK    8  A    between atoms: C_10  and  C_11
REMARK    9  A    between atoms: C_20  and  C_21
REMARK                            x       y       z     vdW  Elec       q    Type
REMARK                         _______ _______ _______ _____ _____    ______ ____
ROOT
ATOM      1  C   LIG A   1      -4.786   1.695 126.826  0.00  0.00    +0.121 C 
ENDROOT
BRANCH   1   2
ATOM      2  O   LIG A   1      -4.344   1.409 128.157  0.00  0.00    -0.391 OA
ATOM      3  H   LIG A   1      -3.495   1.884 128.285  0.00  0.00    +0.210 HD
ENDBRANCH   1   2
BRANCH   1   4
ATOM      4  C   LIG A   1      -5.015   3.209 126.642  0.00  0.00    +0.067 C 
BRANCH   4   5
ATOM      5  C   LIG A   1      -6.317   3.602 125.924  0.00  0.00    +0.140 C 
BRANCH   5   6
ATOM      6  O   LIG A   1      -6.949   4.660 126.641  0.00  0.00    -0.388 OA
ATOM      7  H   LIG A   1      -6.339   5.420 126.592  0.00  0.00    +0.210 HD
ENDBRANCH   5   6
BRANCH   5   8
ATOM      8  C   LIG A   1      -6.119   4.079 124.515  0.00  0.00    +0.004 C 
ATOM      9  C   LIG A   1      -6.359   3.340 123.420  0.00  0.00    +0.006 C 
BRANCH   9  10
ATOM     10  C   LIG A   1      -6.145   3.873 122.072  0.00  0.00    -0.025 A 
ATOM     11  C   LIG A   1      -7.096   3.662 121.067  0.00  0.00    +0.008 A 
ATOM     12  C   LIG A   1      -6.887   4.168 119.782  0.00  0.00    +0.001 A 
ATOM     13  C   LIG A   1      -5.731   4.894 119.495  0.00  0.00    +0.000 A 
ATOM     14  C   LIG A   1      -4.782   5.113 120.493  0.00  0.00    +0.001 A 
ATOM     15  C   LIG A   1      -4.989   4.604 121.778  0.00  0.00    +0.008 A 
ENDBRANCH   9  10
ENDBRANCH   5   8
ENDBRANCH   4   5
ENDBRANCH   1   4
BRANCH   1  16
ATOM     16  C   LIG A   1      -6.064   0.865 126.581  0.00  0.00    +0.058 C 
BRANCH  16  17
ATOM     17  C   LIG A   1      -5.952  -0.103 125.432  0.00  0.00    -0.025 C 
ATOM     18  C   LIG A   1      -6.913  -0.280 124.508  0.00  0.00    +0.013 C 
BRANCH  18  19
ATOM     19  C   LIG A   1      -6.772  -1.155 123.285  0.00  0.00    +0.203 C 
ATOM     20  O   LIG A   1      -8.096  -1.578 122.870  0.00  0.00    -0.454 OA
ATOM     21  C   LIG A   1      -8.687  -2.647 123.453  0.00  0.00    +0.332 C 
ATOM     22  C   LIG A   1      -7.826  -3.555 124.234  0.00  0.00    +0.087 C 
ATOM     23  C   LIG A   1      -6.491  -3.444 124.218  0.00  0.00    -0.016 C 
ATOM     24  C   LIG A   1      -5.829  -2.347 123.454  0.00  0.00    +0.076 C 
ATOM     25  O   LIG A   1      -9.889  -2.885 123.327  0.00  0.00    -0.246 OA
ENDBRANCH  18  19
ENDBRANCH  16  17
ENDBRANCH   1  16
TORSDOF 9
ENDMDL
MODEL 3
REMARK VINA RESULT:      -6.3      3.383      4.789
REMARK  Name = NuBBE_556
REMARK  9 active torsions:
REMARK  status: ('A' for Active; 'I' for Inactive)
REMARK    1  A    between atoms: O_1  and  C_2
REMARK    2  A    between atoms: C_2  and  C_4
REMARK    3  A    between atoms: C_2  and  C_19
REMARK    4  A    between atoms: C_4  and  C_5
REMARK    5  A    between atoms: C_5  and  O_7
REMARK    6  A    between atoms: C_5  and  C_8
REMARK    7  A    between atoms: C_8  and  C_9
REMARK    8  A    between atoms: C_10  and  C_11
REMARK    9  A    between atoms: C_20  and  C_21
REMARK                            x       y       z     vdW  Elec       q    Type
REMARK                         _______ _______ _______ _____ _____    ______ ____
ROOT
ATOM      1  C   LIG A   1      -7.640   2.077 127.140  0.00  0.00    +0.121 C 
ENDROOT
BRANCH   1   2
ATOM      2  O   LIG A   1      -8.458   3.116 127.688  0.00  0.00    -0.391 OA
ATOM      3  H   LIG A   1      -9.391   2.861 127.526  0.00  0.00    +0.210 HD
ENDBRANCH   1   2
BRANCH   1   4
ATOM      4  C   LIG A   1      -7.024   2.518 125.796  0.00  0.00    +0.067 C 
BRANCH   4   5
ATOM      5  C   LIG A   1      -8.024   2.751 124.652  0.00  0.00    +0.140 C 
BRANCH   5   6
ATOM      6  O   LIG A   1      -9.049   3.638 125.096  0.00  0.00    -0.388 OA
ATOM      7  H   LIG A   1      -9.655   3.099 125.637  0.00  0.00    +0.210 HD
ENDBRANCH   5   6
BRANCH   5   8
ATOM      8  C   LIG A   1      -7.416   3.359 123.423  0.00  0.00    +0.004 C 
ATOM      9  C   LIG A   1      -7.919   3.234 122.184  0.00  0.00    +0.006 C 
BRANCH   9  10
ATOM     10  C   LIG A   1      -7.273   3.859 121.026  0.00  0.00    -0.025 A 
ATOM     11  C   LIG A   1      -7.983   4.050 119.835  0.00  0.00    +0.008 A 
ATOM     12  C   LIG A   1      -7.362   4.642 118.732  0.00  0.00    +0.001 A 
ATOM     13  C   LIG A   1      -6.033   5.054 118.815  0.00  0.00    +0.000 A 
ATOM     14  C   LIG A   1      -5.322   4.873 120.001  0.00  0.00    +0.001 A 
ATOM     15  C   LIG A   1      -5.940   4.277 121.104  0.00  0.00    +0.008 A 
ENDBRANCH   9  10
ENDBRANCH   5   8
ENDBRANCH   4   5
ENDBRANCH   1   4
BRANCH   1  16
ATOM     16  C   LIG A   1      -8.528   0.821 127.005  0.00  0.00    +0.058 C 
BRANCH  16  17
ATOM     17  C   LIG A   1      -7.807  -0.379 126.449  0.00  0.00    -0.025 C 
ATOM     18  C   LIG A   1      -8.403  -1.556 126.188  0.00  0.00    +0.013 C 
BRANCH  18  19
ATOM     19  C   LIG A   1      -7.725  -2.729 125.522  0.00  0.00    +0.203 C 
ATOM     20  O   LIG A   1      -6.768  -2.218 124.559  0.00  0.00    -0.454 OA
ATOM     21  C   LIG A   1      -7.170  -1.863 123.317  0.00  0.00    +0.332 C 
ATOM     22  C   LIG A   1      -8.493  -2.340 122.871  0.00  0.00    +0.087 C 
ATOM     23  C   LIG A   1      -9.191  -3.239 123.578  0.00  0.00    -0.016 C 
ATOM     24  C   LIG A   1      -8.677  -3.742 124.885  0.00  0.00    +0.076 C 
ATOM     25  O   LIG A   1      -6.465  -1.192 122.562  0.00  0.00    -0.246 OA
ENDBRANCH  18  19
ENDBRANCH  16  17
ENDBRANCH   1  16
TORSDOF 9
ENDMDL
MODEL 4
REMARK VINA RESULT:      -6.3     10.586     12.534
REMARK  Name = NuBBE_556
REMARK  9 active torsions:
REMARK  status: ('A' for Active; 'I' for Inactive)
REMARK    1  A    between atoms: O_1  and  C_2
REMARK    2  A    between atoms: C_2  and  C_4
REMARK    3  A    between atoms: C_2  and  C_19
REMARK    4  A    between atoms: C_4  and  C_5
REMARK    5  A    between atoms: C_5  and  O_7
REMARK    6  A    between atoms: C_5  and  C_8
REMARK    7  A    between atoms: C_8  and  C_9
REMARK    8  A    between atoms: C_10  and  C_11
REMARK    9  A    between atoms: C_20  and  C_21
REMARK                            x       y       z     vdW  Elec       q    Type
REMARK                         _______ _______ _______ _____ _____    ______ ____
ROOT
ATOM      1  C   LIG A   1      -9.282   4.868 133.011  0.00  0.00    +0.121 C 
ENDROOT
BRANCH   1   2
ATOM      2  O   LIG A   1     -10.029   4.115 133.972  0.00  0.00    -0.391 OA
ATOM      3  H   LIG A   1     -10.967   4.137 133.686  0.00  0.00    +0.210 HD
ENDBRANCH   1   2
BRANCH   1   4
ATOM      4  C   LIG A   1      -7.903   5.263 133.581  0.00  0.00    +0.067 C 
BRANCH   4   5
ATOM      5  C   LIG A   1      -7.749   5.120 135.104  0.00  0.00    +0.140 C 
BRANCH   5   6
ATOM      6  O   LIG A   1      -6.391   4.809 135.412  0.00  0.00    -0.388 OA
ATOM      7  H   LIG A   1      -6.235   5.150 136.312  0.00  0.00    +0.210 HD
ENDBRANCH   5   6
BRANCH   5   8
ATOM      8  C   LIG A   1      -8.103   6.359 135.874  0.00  0.00    +0.004 C 
ATOM      9  C   LIG A   1      -8.078   6.456 137.213  0.00  0.00    +0.006 C 
BRANCH   9  10
ATOM     10  C   LIG A   1      -8.435   7.700 137.900  0.00  0.00    -0.025 A 
ATOM     11  C   LIG A   1      -7.601   8.226 138.893  0.00  0.00    +0.008 A 
ATOM     12  C   LIG A   1      -7.947   9.411 139.548  0.00  0.00    +0.001 A 
ATOM     13  C   LIG A   1      -9.122  10.080 139.210  0.00  0.00    +0.000 A 
ATOM     14  C   LIG A   1      -9.954   9.565 138.217  0.00  0.00    +0.001 A 
ATOM     15  C   LIG A   1      -9.612   8.378 137.563  0.00  0.00    +0.008 A 
ENDBRANCH   9  10
ENDBRANCH   5   8
ENDBRANCH   4   5
ENDBRANCH   1   4
BRANCH   1  16
ATOM     16  C   LIG A   1     -10.139   6.091 132.623  0.00  0.00    +0.058 C 
BRANCH  16  17
ATOM     17  C   LIG A   1     -10.899   5.920 131.334  0.00  0.00    -0.025 C 
ATOM     18  C   LIG A   1     -11.840   6.777 130.901  0.00  0.00    +0.013 C 
BRANCH  18  19
ATOM     19  C   LIG A   1     -12.527   6.687 129.559  0.00  0.00    +0.203 C 
ATOM     20  O   LIG A   1     -11.581   6.155 128.596  0.00  0.00    -0.454 OA
ATOM     21  C   LIG A   1     -10.694   6.972 127.983  0.00  0.00    +0.332 C 
ATOM     22  C   LIG A   1     -10.954   8.422 128.048  0.00  0.00    +0.087 C 
ATOM     23  C   LIG A   1     -12.108   8.910 128.524  0.00  0.00    -0.016 C 
ATOM     24  C   LIG A   1     -13.152   7.994 129.069  0.00  0.00    +0.076 C 
ATOM     25  O   LIG A   1      -9.717   6.543 127.368  0.00  0.00    -0.246 OA
ENDBRANCH  18  19
ENDBRANCH  16  17
ENDBRANCH   1  16
TORSDOF 9
ENDMDL
MODEL 5
REMARK VINA RESULT:      -6.0      9.871     11.778
REMARK  Name = NuBBE_556
REMARK  9 active torsions:
REMARK  status: ('A' for Active; 'I' for Inactive)
REMARK    1  A    between atoms: O_1  and  C_2
REMARK    2  A    between atoms: C_2  and  C_4
REMARK    3  A    between atoms: C_2  and  C_19
REMARK    4  A    between atoms: C_4  and  C_5
REMARK    5  A    between atoms: C_5  and  O_7
REMARK    6  A    between atoms: C_5  and  C_8
REMARK    7  A    between atoms: C_8  and  C_9
REMARK    8  A    between atoms: C_10  and  C_11
REMARK    9  A    between atoms: C_20  and  C_21
REMARK                            x       y       z     vdW  Elec       q    Type
REMARK                         _______ _______ _______ _____ _____    ______ ____
ROOT
ATOM      1  C   LIG A   1      -8.001   6.477 131.133  0.00  0.00    +0.121 C 
ENDROOT
BRANCH   1   2
ATOM      2  O   LIG A   1      -7.897   5.712 129.929  0.00  0.00    -0.391 OA
ATOM      3  H   LIG A   1      -6.942   5.539 129.780  0.00  0.00    +0.210 HD
ENDBRANCH   1   2
BRANCH   1   4
ATOM      4  C   LIG A   1      -6.664   6.464 131.904  0.00  0.00    +0.067 C 
BRANCH   4   5
ATOM      5  C   LIG A   1      -5.400   6.635 131.045  0.00  0.00    +0.140 C 
BRANCH   5   6
ATOM      6  O   LIG A   1      -5.591   7.718 130.137  0.00  0.00    -0.388 OA
ATOM      7  H   LIG A   1      -5.111   8.476 130.519  0.00  0.00    +0.210 HD
ENDBRANCH   5   6
BRANCH   5   8
ATOM      8  C   LIG A   1      -4.160   6.934 131.834  0.00  0.00    +0.004 C 
ATOM      9  C   LIG A   1      -3.313   7.942 131.568  0.00  0.00    +0.006 C 
BRANCH   9  10
ATOM     10  C   LIG A   1      -2.119   8.178 132.384  0.00  0.00    -0.025 A 
ATOM     11  C   LIG A   1      -1.986   9.360 133.121  0.00  0.00    +0.008 A 
ATOM     12  C   LIG A   1      -0.844   9.583 133.894  0.00  0.00    +0.001 A 
ATOM     13  C   LIG A   1       0.167   8.624 133.943  0.00  0.00    +0.000 A 
ATOM     14  C   LIG A   1       0.037   7.441 133.217  0.00  0.00    +0.001 A 
ATOM     15  C   LIG A   1      -1.103   7.218 132.439  0.00  0.00    +0.008 A 
ENDBRANCH   9  10
ENDBRANCH   5   8
ENDBRANCH   4   5
ENDBRANCH   1   4
BRANCH   1  16
ATOM     16  C   LIG A   1      -9.167   5.884 131.952  0.00  0.00    +0.058 C 
BRANCH  16  17
ATOM     17  C   LIG A   1     -10.519   6.425 131.568  0.00  0.00    -0.025 C 
ATOM     18  C   LIG A   1     -11.147   6.121 130.418  0.00  0.00    +0.013 C 
BRANCH  18  19
ATOM     19  C   LIG A   1     -12.550   6.556 130.068  0.00  0.00    +0.203 C 
ATOM     20  O   LIG A   1     -12.791   6.241 128.672  0.00  0.00    -0.454 OA
ATOM     21  C   LIG A   1     -12.385   7.089 127.699  0.00  0.00    +0.332 C 
ATOM     22  C   LIG A   1     -12.031   8.463 128.102  0.00  0.00    +0.087 C 
ATOM     23  C   LIG A   1     -12.277   8.918 129.338  0.00  0.00    -0.016 C 
ATOM     24  C   LIG A   1     -12.863   8.021 130.376  0.00  0.00    +0.076 C 
ATOM     25  O   LIG A   1     -12.330   6.755 126.515  0.00  0.00    -0.246 OA
ENDBRANCH  18  19
ENDBRANCH  16  17
ENDBRANCH   1  16
TORSDOF 9
ENDMDL
MODEL 6
REMARK VINA RESULT:      -6.0      2.798      6.540
REMARK  Name = NuBBE_556
REMARK  9 active torsions:
REMARK  status: ('A' for Active; 'I' for Inactive)
REMARK    1  A    between atoms: O_1  and  C_2
REMARK    2  A    between atoms: C_2  and  C_4
REMARK    3  A    between atoms: C_2  and  C_19
REMARK    4  A    between atoms: C_4  and  C_5
REMARK    5  A    between atoms: C_5  and  O_7
REMARK    6  A    between atoms: C_5  and  C_8
REMARK    7  A    between atoms: C_8  and  C_9
REMARK    8  A    between atoms: C_10  and  C_11
REMARK    9  A    between atoms: C_20  and  C_21
REMARK                            x       y       z     vdW  Elec       q    Type
REMARK                         _______ _______ _______ _____ _____    ______ ____
ROOT
ATOM      1  C   LIG A   1      -8.462  -2.737 123.273  0.00  0.00    +0.121 C 
ENDROOT
BRANCH   1   2
ATOM      2  O   LIG A   1      -9.795  -2.215 123.260  0.00  0.00    -0.391 OA
ATOM      3  H   LIG A   1     -10.010  -1.955 124.182  0.00  0.00    +0.210 HD
ENDBRANCH   1   2
BRANCH   1   4
ATOM      4  C   LIG A   1      -8.118  -3.317 124.661  0.00  0.00    +0.067 C 
BRANCH   4   5
ATOM      5  C   LIG A   1      -8.819  -2.647 125.854  0.00  0.00    +0.140 C 
BRANCH   5   6
ATOM      6  O   LIG A   1     -10.206  -2.978 125.830  0.00  0.00    -0.388 OA
ATOM      7  H   LIG A   1     -10.334  -3.543 125.047  0.00  0.00    +0.210 HD
ENDBRANCH   5   6
BRANCH   5   8
ATOM      8  C   LIG A   1      -8.287  -3.069 127.192  0.00  0.00    +0.004 C 
ATOM      9  C   LIG A   1      -7.883  -2.221 128.152  0.00  0.00    +0.006 C 
BRANCH   9  10
ATOM     10  C   LIG A   1      -7.376  -2.703 129.439  0.00  0.00    -0.025 A 
ATOM     11  C   LIG A   1      -7.807  -2.119 130.635  0.00  0.00    +0.008 A 
ATOM     12  C   LIG A   1      -7.317  -2.579 131.861  0.00  0.00    +0.001 A 
ATOM     13  C   LIG A   1      -6.402  -3.631 131.898  0.00  0.00    +0.000 A 
ATOM     14  C   LIG A   1      -5.974  -4.222 130.710  0.00  0.00    +0.001 A 
ATOM     15  C   LIG A   1      -6.460  -3.760 129.484  0.00  0.00    +0.008 A 
ENDBRANCH   9  10
ENDBRANCH   5   8
ENDBRANCH   4   5
ENDBRANCH   1   4
BRANCH   1  16
ATOM     16  C   LIG A   1      -7.519  -1.588 122.857  0.00  0.00    +0.058 C 
BRANCH  16  17
ATOM     17  C   LIG A   1      -7.922  -0.241 123.397  0.00  0.00    -0.025 C 
ATOM     18  C   LIG A   1      -7.100   0.822 123.444  0.00  0.00    +0.013 C 
BRANCH  18  19
ATOM     19  C   LIG A   1      -7.519   2.209 123.870  0.00  0.00    +0.203 C 
ATOM     20  O   LIG A   1      -8.540   2.681 122.953  0.00  0.00    -0.454 OA
ATOM     21  C   LIG A   1      -8.194   3.248 121.775  0.00  0.00    +0.332 C 
ATOM     22  C   LIG A   1      -6.795   3.689 121.622  0.00  0.00    +0.087 C 
ATOM     23  C   LIG A   1      -5.945   3.707 122.658  0.00  0.00    -0.016 C 
ATOM     24  C   LIG A   1      -6.374   3.214 124.000  0.00  0.00    +0.076 C 
ATOM     25  O   LIG A   1      -9.004   3.423 120.864  0.00  0.00    -0.246 OA
ENDBRANCH  18  19
ENDBRANCH  16  17
ENDBRANCH   1  16
TORSDOF 9
ENDMDL
MODEL 7
REMARK VINA RESULT:      -5.8      8.164      9.976
REMARK  Name = NuBBE_556
REMARK  9 active torsions:
REMARK  status: ('A' for Active; 'I' for Inactive)
REMARK    1  A    between atoms: O_1  and  C_2
REMARK    2  A    between atoms: C_2  and  C_4
REMARK    3  A    between atoms: C_2  and  C_19
REMARK    4  A    between atoms: C_4  and  C_5
REMARK    5  A    between atoms: C_5  and  O_7
REMARK    6  A    between atoms: C_5  and  C_8
REMARK    7  A    between atoms: C_8  and  C_9
REMARK    8  A    between atoms: C_10  and  C_11
REMARK    9  A    between atoms: C_20  and  C_21
REMARK                            x       y       z     vdW  Elec       q    Type
REMARK                         _______ _______ _______ _____ _____    ______ ____
ROOT
ATOM      1  C   LIG A   1      -7.615   4.836 131.585  0.00  0.00    +0.121 C 
ENDROOT
BRANCH   1   2
ATOM      2  O   LIG A   1      -7.262   4.548 130.228  0.00  0.00    -0.391 OA
ATOM      3  H   LIG A   1      -6.287   4.635 130.161  0.00  0.00    +0.210 HD
ENDBRANCH   1   2
BRANCH   1   4
ATOM      4  C   LIG A   1      -9.057   4.375 131.882  0.00  0.00    +0.067 C 
BRANCH   4   5
ATOM      5  C   LIG A   1      -9.928   4.078 130.650  0.00  0.00    +0.140 C 
BRANCH   5   6
ATOM      6  O   LIG A   1     -10.981   3.191 131.021  0.00  0.00    -0.388 OA
ATOM      7  H   LIG A   1     -10.883   2.405 130.452  0.00  0.00    +0.210 HD
ENDBRANCH   5   6
BRANCH   5   8
ATOM      8  C   LIG A   1     -10.566   5.294 130.046  0.00  0.00    +0.004 C 
ATOM      9  C   LIG A   1     -11.865   5.612 130.169  0.00  0.00    +0.006 C 
BRANCH   9  10
ATOM     10  C   LIG A   1     -12.423   6.819 129.554  0.00  0.00    -0.025 A 
ATOM     11  C   LIG A   1     -12.166   8.080 130.104  0.00  0.00    +0.008 A 
ATOM     12  C   LIG A   1     -12.703   9.228 129.516  0.00  0.00    +0.001 A 
ATOM     13  C   LIG A   1     -13.492   9.124 128.371  0.00  0.00    +0.000 A 
ATOM     14  C   LIG A   1     -13.746   7.871 127.813  0.00  0.00    +0.001 A 
ATOM     15  C   LIG A   1     -13.213   6.722 128.403  0.00  0.00    +0.008 A 
ENDBRANCH   9  10
ENDBRANCH   5   8
ENDBRANCH   4   5
ENDBRANCH   1   4
BRANCH   1  16
ATOM     16  C   LIG A   1      -7.420   6.353 131.795  0.00  0.00    +0.058 C 
BRANCH  16  17
ATOM     17  C   LIG A   1      -6.295   6.941 130.984  0.00  0.00    -0.025 C 
ATOM     18  C   LIG A   1      -5.016   6.983 131.399  0.00  0.00    +0.013 C 
BRANCH  18  19
ATOM     19  C   LIG A   1      -3.858   7.459 130.554  0.00  0.00    +0.203 C 
ATOM     20  O   LIG A   1      -4.221   7.316 129.157  0.00  0.00    -0.454 OA
ATOM     21  C   LIG A   1      -4.071   6.128 128.529  0.00  0.00    +0.332 C 
ATOM     22  C   LIG A   1      -3.215   5.120 129.182  0.00  0.00    +0.087 C 
ATOM     23  C   LIG A   1      -2.464   5.421 130.251  0.00  0.00    -0.016 C 
ATOM     24  C   LIG A   1      -2.521   6.782 130.859  0.00  0.00    +0.076 C 
ATOM     25  O   LIG A   1      -4.597   5.885 127.442  0.00  0.00    -0.246 OA
ENDBRANCH  18  19
ENDBRANCH  16  17
ENDBRANCH   1  16
TORSDOF 9
ENDMDL
MODEL 8
REMARK VINA RESULT:      -5.7      8.000     10.079
REMARK  Name = NuBBE_556
REMARK  9 active torsions:
REMARK  status: ('A' for Active; 'I' for Inactive)
REMARK    1  A    between atoms: O_1  and  C_2
REMARK    2  A    between atoms: C_2  and  C_4
REMARK    3  A    between atoms: C_2  and  C_19
REMARK    4  A    between atoms: C_4  and  C_5
REMARK    5  A    between atoms: C_5  and  O_7
REMARK    6  A    between atoms: C_5  and  C_8
REMARK    7  A    between atoms: C_8  and  C_9
REMARK    8  A    between atoms: C_10  and  C_11
REMARK    9  A    between atoms: C_20  and  C_21
REMARK                            x       y       z     vdW  Elec       q    Type
REMARK                         _______ _______ _______ _____ _____    ______ ____
ROOT
ATOM      1  C   LIG A   1      -9.633   4.939 130.659  0.00  0.00    +0.121 C 
ENDROOT
BRANCH   1   2
ATOM      2  O   LIG A   1     -10.737   4.560 131.487  0.00  0.00    -0.391 OA
ATOM      3  H   LIG A   1     -11.445   5.223 131.341  0.00  0.00    +0.210 HD
ENDBRANCH   1   2
BRANCH   1   4
ATOM      4  C   LIG A   1      -8.433   3.996 130.884  0.00  0.00    +0.067 C 
BRANCH   4   5
ATOM      5  C   LIG A   1      -7.781   3.435 129.609  0.00  0.00    +0.140 C 
BRANCH   5   6
ATOM      6  O   LIG A   1      -8.608   3.736 128.487  0.00  0.00    -0.388 OA
ATOM      7  H   LIG A   1      -9.353   3.108 128.526  0.00  0.00    +0.210 HD
ENDBRANCH   5   6
BRANCH   5   8
ATOM      8  C   LIG A   1      -6.421   3.999 129.319  0.00  0.00    +0.004 C 
ATOM      9  C   LIG A   1      -5.841   4.985 130.021  0.00  0.00    +0.006 C 
BRANCH   9  10
ATOM     10  C   LIG A   1      -4.506   5.486 129.683  0.00  0.00    -0.025 A 
ATOM     11  C   LIG A   1      -4.132   5.663 128.347  0.00  0.00    +0.008 A 
ATOM     12  C   LIG A   1      -2.856   6.137 128.029  0.00  0.00    +0.001 A 
ATOM     13  C   LIG A   1      -1.951   6.446 129.044  0.00  0.00    +0.000 A 
ATOM     14  C   LIG A   1      -2.320   6.278 130.378  0.00  0.00    +0.001 A 
ATOM     15  C   LIG A   1      -3.594   5.800 130.698  0.00  0.00    +0.008 A 
ENDBRANCH   9  10
ENDBRANCH   5   8
ENDBRANCH   4   5
ENDBRANCH   1   4
BRANCH   1  16
ATOM     16  C   LIG A   1      -9.303   6.411 130.984  0.00  0.00    +0.058 C 
BRANCH  16  17
ATOM     17  C   LIG A   1      -9.707   7.380 129.903  0.00  0.00    -0.025 C 
ATOM     18  C   LIG A   1     -10.197   7.005 128.708  0.00  0.00    +0.013 C 
BRANCH  18  19
ATOM     19  C   LIG A   1     -10.718   7.959 127.659  0.00  0.00    +0.203 C 
ATOM     20  O   LIG A   1     -11.400   9.049 128.331  0.00  0.00    -0.454 OA
ATOM     21  C   LIG A   1     -12.690   8.915 128.717  0.00  0.00    +0.332 C 
ATOM     22  C   LIG A   1     -13.461   7.805 128.128  0.00  0.00    +0.087 C 
ATOM     23  C   LIG A   1     -12.977   7.072 127.115  0.00  0.00    -0.016 C 
ATOM     24  C   LIG A   1     -11.602   7.317 126.590  0.00  0.00    +0.076 C 
ATOM     25  O   LIG A   1     -13.226   9.694 129.507  0.00  0.00    -0.246 OA
ENDBRANCH  18  19
ENDBRANCH  16  17
ENDBRANCH   1  16
TORSDOF 9
ENDMDL
MODEL 9
REMARK VINA RESULT:      -5.7      8.834     10.695
REMARK  Name = NuBBE_556
REMARK  9 active torsions:
REMARK  status: ('A' for Active; 'I' for Inactive)
REMARK    1  A    between atoms: O_1  and  C_2
REMARK    2  A    between atoms: C_2  and  C_4
REMARK    3  A    between atoms: C_2  and  C_19
REMARK    4  A    between atoms: C_4  and  C_5
REMARK    5  A    between atoms: C_5  and  O_7
REMARK    6  A    between atoms: C_5  and  C_8
REMARK    7  A    between atoms: C_8  and  C_9
REMARK    8  A    between atoms: C_10  and  C_11
REMARK    9  A    between atoms: C_20  and  C_21
REMARK                            x       y       z     vdW  Elec       q    Type
REMARK                         _______ _______ _______ _____ _____    ______ ____
ROOT
ATOM      1  C   LIG A   1      -8.917   4.649 132.455  0.00  0.00    +0.121 C 
ENDROOT
BRANCH   1   2
ATOM      2  O   LIG A   1      -9.794   4.603 133.585  0.00  0.00    -0.391 OA
ATOM      3  H   LIG A   1      -9.873   5.520 133.924  0.00  0.00    +0.210 HD
ENDBRANCH   1   2
BRANCH   1   4
ATOM      4  C   LIG A   1      -8.327   6.064 132.280  0.00  0.00    +0.067 C 
BRANCH   4   5
ATOM      5  C   LIG A   1      -7.671   6.346 130.919  0.00  0.00    +0.140 C 
BRANCH   5   6
ATOM      6  O   LIG A   1      -8.193   7.564 130.389  0.00  0.00    -0.388 OA
ATOM      7  H   LIG A   1      -7.984   7.554 129.437  0.00  0.00    +0.210 HD
ENDBRANCH   5   6
BRANCH   5   8
ATOM      8  C   LIG A   1      -6.180   6.494 130.977  0.00  0.00    +0.004 C 
ATOM      9  C   LIG A   1      -5.457   6.478 132.109  0.00  0.00    +0.006 C 
BRANCH   9  10
ATOM     10  C   LIG A   1      -3.999   6.625 132.093  0.00  0.00    -0.025 A 
ATOM     11  C   LIG A   1      -3.331   7.194 133.183  0.00  0.00    +0.008 A 
ATOM     12  C   LIG A   1      -1.941   7.336 133.161  0.00  0.00    +0.001 A 
ATOM     13  C   LIG A   1      -1.211   6.902 132.055  0.00  0.00    +0.000 A 
ATOM     14  C   LIG A   1      -1.870   6.328 130.969  0.00  0.00    +0.001 A 
ATOM     15  C   LIG A   1      -3.260   6.189 130.987  0.00  0.00    +0.008 A 
ENDBRANCH   9  10
ENDBRANCH   5   8
ENDBRANCH   4   5
ENDBRANCH   1   4
BRANCH   1  16
ATOM     16  C   LIG A   1      -9.730   4.186 131.227  0.00  0.00    +0.058 C 
BRANCH  16  17
ATOM     17  C   LIG A   1     -10.973   4.999 130.977  0.00  0.00    -0.025 C 
ATOM     18  C   LIG A   1     -11.172   5.740 129.872  0.00  0.00    +0.013 C 
BRANCH  18  19
ATOM     19  C   LIG A   1     -12.456   6.466 129.548  0.00  0.00    +0.203 C 
ATOM     20  O   LIG A   1     -12.710   6.332 128.126  0.00  0.00    -0.454 OA
ATOM     21  C   LIG A   1     -12.122   7.172 127.244  0.00  0.00    +0.332 C 
ATOM     22  C   LIG A   1     -11.527   8.410 127.780  0.00  0.00    +0.087 C 
ATOM     23  C   LIG A   1     -11.720   8.789 129.051  0.00  0.00    -0.016 C 
ATOM     24  C   LIG A   1     -12.496   7.929 129.991  0.00  0.00    +0.076 C 
ATOM     25  O   LIG A   1     -12.096   6.944 126.033  0.00  0.00    -0.246 OA
ENDBRANCH  18  19
ENDBRANCH  16  17
ENDBRANCH   1  16
TORSDOF 9
ENDMDL
