MODEL 1
REMARK VINA RESULT:      -5.2      0.000      0.000
REMARK  Name = NuBBE_2141
REMARK  5 active torsions:
REMARK  status: ('A' for Active; 'I' for Inactive)
REMARK    1  A    between atoms: C_1  and  C_2
REMARK    2  A    between atoms: C_2  and  C_3
REMARK    3  A    between atoms: C_3  and  C_4
REMARK    4  A    between atoms: C_4  and  C_5
REMARK    5  A    between atoms: C_5  and  C_6
REMARK                            x       y       z     vdW  Elec       q    Type
REMARK                         _______ _______ _______ _____ _____    ______ ____
ROOT
ATOM      1  C   LIG A   1     -11.357   6.980 130.895  0.00  0.00    -0.073 C 
ATOM      2  C   LIG A   1     -11.139   6.345 132.059  0.00  0.00    -0.028 C 
ATOM      3  C   LIG A   1      -9.787   5.883 132.525  0.00  0.00    +0.027 C 
ATOM      4  C   LIG A   1      -8.630   6.433 131.690  0.00  0.00    +0.004 C 
ATOM      5  C   LIG A   1      -8.971   6.455 130.206  0.00  0.00    +0.005 C 
ATOM      6  C   LIG A   1     -10.228   7.288 129.939  0.00  0.00    +0.030 C 
ENDROOT
BRANCH   1   7
ATOM      7  C   LIG A   1     -12.741   7.434 130.484  0.00  0.00    +0.030 C 
BRANCH   7   8
ATOM      8  C   LIG A   1     -12.732   8.868 129.943  0.00  0.00    +0.004 C 
BRANCH   8   9
ATOM      9  C   LIG A   1     -13.166   8.924 128.474  0.00  0.00    +0.000 C 
BRANCH   9  11
ATOM     10  C   LIG A   1     -12.694   7.053 126.838  0.00  0.00    +0.004 C 
ATOM     11  C   LIG A   1     -13.594   7.545 127.962  0.00  0.00    -0.003 C 
ENDBRANCH   9  11
ENDBRANCH   8   9
ENDBRANCH   7   8
ENDBRANCH   1   7
TORSDOF 4
ENDMDL
MODEL 2
REMARK VINA RESULT:      -5.2      1.152      2.651
REMARK  Name = NuBBE_2141
REMARK  5 active torsions:
REMARK  status: ('A' for Active; 'I' for Inactive)
REMARK    1  A    between atoms: C_1  and  C_2
REMARK    2  A    between atoms: C_2  and  C_3
REMARK    3  A    between atoms: C_3  and  C_4
REMARK    4  A    between atoms: C_4  and  C_5
REMARK    5  A    between atoms: C_5  and  C_6
REMARK                            x       y       z     vdW  Elec       q    Type
REMARK                         _______ _______ _______ _____ _____    ______ ____
ROOT
ATOM      1  C   LIG A   1     -11.122   6.905 129.569  0.00  0.00    -0.073 C 
ATOM      2  C   LIG A   1      -9.803   7.145 129.667  0.00  0.00    -0.028 C 
ATOM      3  C   LIG A   1      -8.988   6.874 130.901  0.00  0.00    +0.027 C 
ATOM      4  C   LIG A   1      -9.726   6.046 131.953  0.00  0.00    +0.004 C 
ATOM      5  C   LIG A   1     -11.188   6.459 132.067  0.00  0.00    +0.005 C 
ATOM      6  C   LIG A   1     -11.908   6.325 130.723  0.00  0.00    +0.030 C 
ENDROOT
BRANCH   1   7
ATOM      7  C   LIG A   1     -11.889   7.188 128.296  0.00  0.00    +0.030 C 
BRANCH   7   8
ATOM      8  C   LIG A   1     -13.264   7.801 128.585  0.00  0.00    +0.004 C 
BRANCH   8   9
ATOM      9  C   LIG A   1     -13.205   9.333 128.625  0.00  0.00    +0.000 C 
BRANCH   9  11
ATOM     10  C   LIG A   1     -13.561  11.321 130.149  0.00  0.00    +0.004 C 
ATOM     11  C   LIG A   1     -13.153   9.857 130.063  0.00  0.00    -0.003 C 
ENDBRANCH   9  11
ENDBRANCH   8   9
ENDBRANCH   7   8
ENDBRANCH   1   7
TORSDOF 4
ENDMDL
MODEL 3
REMARK VINA RESULT:      -5.1     10.955     12.348
REMARK  Name = NuBBE_2141
REMARK  5 active torsions:
REMARK  status: ('A' for Active; 'I' for Inactive)
REMARK    1  A    between atoms: C_1  and  C_2
REMARK    2  A    between atoms: C_2  and  C_3
REMARK    3  A    between atoms: C_3  and  C_4
REMARK    4  A    between atoms: C_4  and  C_5
REMARK    5  A    between atoms: C_5  and  C_6
REMARK                            x       y       z     vdW  Elec       q    Type
REMARK                         _______ _______ _______ _____ _____    ______ ____
ROOT
ATOM      1  C   LIG A   1      -7.809  -2.763 126.318  0.00  0.00    -0.073 C 
ATOM      2  C   LIG A   1      -8.795  -3.600 126.685  0.00  0.00    -0.028 C 
ATOM      3  C   LIG A   1      -9.081  -3.991 128.108  0.00  0.00    +0.027 C 
ATOM      4  C   LIG A   1      -8.331  -3.146 129.139  0.00  0.00    +0.004 C 
ATOM      5  C   LIG A   1      -6.905  -2.851 128.689  0.00  0.00    +0.005 C 
ATOM      6  C   LIG A   1      -6.888  -2.132 127.337  0.00  0.00    +0.030 C 
ENDROOT
BRANCH   1   7
ATOM      7  C   LIG A   1      -7.575  -2.397 124.869  0.00  0.00    +0.030 C 
BRANCH   7   8
ATOM      8  C   LIG A   1      -6.190  -1.775 124.656  0.00  0.00    +0.004 C 
BRANCH   8   9
ATOM      9  C   LIG A   1      -5.350  -2.589 123.665  0.00  0.00    +0.000 C 
BRANCH   9  11
ATOM     10  C   LIG A   1      -4.115  -4.786 123.440  0.00  0.00    +0.004 C 
ATOM     11  C   LIG A   1      -5.319  -4.073 124.041  0.00  0.00    -0.003 C 
ENDBRANCH   9  11
ENDBRANCH   8   9
ENDBRANCH   7   8
ENDBRANCH   1   7
TORSDOF 4
ENDMDL
MODEL 4
REMARK VINA RESULT:      -5.1     11.133     12.521
REMARK  Name = NuBBE_2141
REMARK  5 active torsions:
REMARK  status: ('A' for Active; 'I' for Inactive)
REMARK    1  A    between atoms: C_1  and  C_2
REMARK    2  A    between atoms: C_2  and  C_3
REMARK    3  A    between atoms: C_3  and  C_4
REMARK    4  A    between atoms: C_4  and  C_5
REMARK    5  A    between atoms: C_5  and  C_6
REMARK                            x       y       z     vdW  Elec       q    Type
REMARK                         _______ _______ _______ _____ _____    ______ ____
ROOT
ATOM      1  C   LIG A   1      -7.784  -3.034 123.864  0.00  0.00    -0.073 C 
ATOM      2  C   LIG A   1      -6.937  -3.966 124.335  0.00  0.00    -0.028 C 
ATOM      3  C   LIG A   1      -5.458  -3.970 124.069  0.00  0.00    +0.027 C 
ATOM      4  C   LIG A   1      -4.944  -2.674 123.442  0.00  0.00    +0.004 C 
ATOM      5  C   LIG A   1      -5.915  -2.132 122.401  0.00  0.00    +0.005 C 
ATOM      6  C   LIG A   1      -7.299  -1.886 123.009  0.00  0.00    +0.030 C 
ENDROOT
BRANCH   1   7
ATOM      7  C   LIG A   1      -9.264  -3.075 124.173  0.00  0.00    +0.030 C 
BRANCH   7   8
ATOM      8  C   LIG A   1      -9.527  -3.126 125.683  0.00  0.00    +0.004 C 
BRANCH   8   9
ATOM      9  C   LIG A   1      -8.827  -1.978 126.419  0.00  0.00    +0.000 C 
BRANCH   9  11
ATOM     10  C   LIG A   1      -8.649  -3.636 128.322  0.00  0.00    +0.004 C 
ATOM     11  C   LIG A   1      -7.971  -2.493 127.579  0.00  0.00    -0.003 C 
ENDBRANCH   9  11
ENDBRANCH   8   9
ENDBRANCH   7   8
ENDBRANCH   1   7
TORSDOF 4
ENDMDL
MODEL 5
REMARK VINA RESULT:      -5.1     10.861     11.513
REMARK  Name = NuBBE_2141
REMARK  5 active torsions:
REMARK  status: ('A' for Active; 'I' for Inactive)
REMARK    1  A    between atoms: C_1  and  C_2
REMARK    2  A    between atoms: C_2  and  C_3
REMARK    3  A    between atoms: C_3  and  C_4
REMARK    4  A    between atoms: C_4  and  C_5
REMARK    5  A    between atoms: C_5  and  C_6
REMARK                            x       y       z     vdW  Elec       q    Type
REMARK                         _______ _______ _______ _____ _____    ______ ____
ROOT
ATOM      1  C   LIG A   1      -8.474  -2.959 126.942  0.00  0.00    -0.073 C 
ATOM      2  C   LIG A   1      -7.381  -2.179 126.878  0.00  0.00    -0.028 C 
ATOM      3  C   LIG A   1      -6.392  -2.023 127.999  0.00  0.00    +0.027 C 
ATOM      4  C   LIG A   1      -6.581  -3.036 129.129  0.00  0.00    +0.004 C 
ATOM      5  C   LIG A   1      -8.056  -3.274 129.426  0.00  0.00    +0.005 C 
ATOM      6  C   LIG A   1      -8.801  -3.762 128.180  0.00  0.00    +0.030 C 
ENDROOT
BRANCH   1   7
ATOM      7  C   LIG A   1      -9.429  -3.086 125.776  0.00  0.00    +0.030 C 
BRANCH   7   8
ATOM      8  C   LIG A   1      -8.736  -3.655 124.533  0.00  0.00    +0.004 C 
BRANCH   8   9
ATOM      9  C   LIG A   1      -9.281  -3.029 123.244  0.00  0.00    +0.000 C 
BRANCH   9  11
ATOM     10  C   LIG A   1      -6.943  -2.072 123.101  0.00  0.00    +0.004 C 
ATOM     11  C   LIG A   1      -8.414  -1.854 122.780  0.00  0.00    -0.003 C 
ENDBRANCH   9  11
ENDBRANCH   8   9
ENDBRANCH   7   8
ENDBRANCH   1   7
TORSDOF 4
ENDMDL
MODEL 6
REMARK VINA RESULT:      -5.1     10.424     11.567
REMARK  Name = NuBBE_2141
REMARK  5 active torsions:
REMARK  status: ('A' for Active; 'I' for Inactive)
REMARK    1  A    between atoms: C_1  and  C_2
REMARK    2  A    between atoms: C_2  and  C_3
REMARK    3  A    between atoms: C_3  and  C_4
REMARK    4  A    between atoms: C_4  and  C_5
REMARK    5  A    between atoms: C_5  and  C_6
REMARK                            x       y       z     vdW  Elec       q    Type
REMARK                         _______ _______ _______ _____ _____    ______ ____
ROOT
ATOM      1  C   LIG A   1      -8.710  -2.867 126.408  0.00  0.00    -0.073 C 
ATOM      2  C   LIG A   1      -8.971  -3.730 127.405  0.00  0.00    -0.028 C 
ATOM      3  C   LIG A   1      -8.436  -3.587 128.802  0.00  0.00    +0.027 C 
ATOM      4  C   LIG A   1      -7.788  -2.229 129.075  0.00  0.00    +0.004 C 
ATOM      5  C   LIG A   1      -6.972  -1.749 127.881  0.00  0.00    +0.005 C 
ATOM      6  C   LIG A   1      -7.837  -1.652 126.622  0.00  0.00    +0.030 C 
ENDROOT
BRANCH   1   7
ATOM      7  C   LIG A   1      -9.287  -3.056 125.022  0.00  0.00    +0.030 C 
BRANCH   7   8
ATOM      8  C   LIG A   1      -8.198  -3.378 123.992  0.00  0.00    +0.004 C 
BRANCH   8   9
ATOM      9  C   LIG A   1      -8.061  -2.267 122.945  0.00  0.00    +0.000 C 
BRANCH   9  11
ATOM     10  C   LIG A   1      -5.648  -2.711 123.563  0.00  0.00    +0.004 C 
ATOM     11  C   LIG A   1      -6.606  -1.816 122.790  0.00  0.00    -0.003 C 
ENDBRANCH   9  11
ENDBRANCH   8   9
ENDBRANCH   7   8
ENDBRANCH   1   7
TORSDOF 4
ENDMDL
MODEL 7
REMARK VINA RESULT:      -5.0      1.112      4.518
REMARK  Name = NuBBE_2141
REMARK  5 active torsions:
REMARK  status: ('A' for Active; 'I' for Inactive)
REMARK    1  A    between atoms: C_1  and  C_2
REMARK    2  A    between atoms: C_2  and  C_3
REMARK    3  A    between atoms: C_3  and  C_4
REMARK    4  A    between atoms: C_4  and  C_5
REMARK    5  A    between atoms: C_5  and  C_6
REMARK                            x       y       z     vdW  Elec       q    Type
REMARK                         _______ _______ _______ _____ _____    ______ ____
ROOT
ATOM      1  C   LIG A   1     -12.172   7.607 129.382  0.00  0.00    -0.073 C 
ATOM      2  C   LIG A   1     -13.248   7.262 128.654  0.00  0.00    -0.028 C 
ATOM      3  C   LIG A   1     -13.246   7.138 127.156  0.00  0.00    +0.027 C 
ATOM      4  C   LIG A   1     -11.847   7.170 126.540  0.00  0.00    +0.004 C 
ATOM      5  C   LIG A   1     -10.954   8.193 127.233  0.00  0.00    +0.005 C 
ATOM      6  C   LIG A   1     -10.840   7.902 128.732  0.00  0.00    +0.030 C 
ENDROOT
BRANCH   1   7
ATOM      7  C   LIG A   1     -12.230   7.705 130.890  0.00  0.00    +0.030 C 
BRANCH   7   8
ATOM      8  C   LIG A   1     -11.995   6.345 131.558  0.00  0.00    +0.004 C 
BRANCH   8   9
ATOM      9  C   LIG A   1     -10.663   6.310 132.316  0.00  0.00    +0.000 C 
BRANCH   9  11
ATOM     10  C   LIG A   1      -8.455   6.766 131.167  0.00  0.00    +0.004 C 
ATOM     11  C   LIG A   1      -9.538   5.734 131.450  0.00  0.00    -0.003 C 
ENDBRANCH   9  11
ENDBRANCH   8   9
ENDBRANCH   7   8
ENDBRANCH   1   7
TORSDOF 4
ENDMDL
MODEL 8
REMARK VINA RESULT:      -4.8     10.733     12.401
REMARK  Name = NuBBE_2141
REMARK  5 active torsions:
REMARK  status: ('A' for Active; 'I' for Inactive)
REMARK    1  A    between atoms: C_1  and  C_2
REMARK    2  A    between atoms: C_2  and  C_3
REMARK    3  A    between atoms: C_3  and  C_4
REMARK    4  A    between atoms: C_4  and  C_5
REMARK    5  A    between atoms: C_5  and  C_6
REMARK                            x       y       z     vdW  Elec       q    Type
REMARK                         _______ _______ _______ _____ _____    ______ ____
ROOT
ATOM      1  C   LIG A   1      -7.877  -3.139 124.569  0.00  0.00    -0.073 C 
ATOM      2  C   LIG A   1      -8.472  -2.733 123.434  0.00  0.00    -0.028 C 
ATOM      3  C   LIG A   1      -7.771  -1.976 122.340  0.00  0.00    +0.027 C 
ATOM      4  C   LIG A   1      -6.251  -1.938 122.498  0.00  0.00    +0.004 C 
ATOM      5  C   LIG A   1      -5.844  -1.749 123.954  0.00  0.00    +0.005 C 
ATOM      6  C   LIG A   1      -6.416  -2.860 124.838  0.00  0.00    +0.030 C 
ENDROOT
BRANCH   1   7
ATOM      7  C   LIG A   1      -8.631  -3.908 125.630  0.00  0.00    +0.030 C 
BRANCH   7   8
ATOM      8  C   LIG A   1      -8.875  -3.059 126.883  0.00  0.00    +0.004 C 
BRANCH   8   9
ATOM      9  C   LIG A   1      -8.930  -3.920 128.150  0.00  0.00    +0.000 C 
BRANCH   9  11
ATOM     10  C   LIG A   1      -7.452  -1.999 128.876  0.00  0.00    +0.004 C 
ATOM     11  C   LIG A   1      -8.026  -3.358 129.251  0.00  0.00    -0.003 C 
ENDBRANCH   9  11
ENDBRANCH   8   9
ENDBRANCH   7   8
ENDBRANCH   1   7
TORSDOF 4
ENDMDL
MODEL 9
REMARK VINA RESULT:      -4.7      9.431     10.962
REMARK  Name = NuBBE_2141
REMARK  5 active torsions:
REMARK  status: ('A' for Active; 'I' for Inactive)
REMARK    1  A    between atoms: C_1  and  C_2
REMARK    2  A    between atoms: C_2  and  C_3
REMARK    3  A    between atoms: C_3  and  C_4
REMARK    4  A    between atoms: C_4  and  C_5
REMARK    5  A    between atoms: C_5  and  C_6
REMARK                            x       y       z     vdW  Elec       q    Type
REMARK                         _______ _______ _______ _____ _____    ______ ____
ROOT
ATOM      1  C   LIG A   1      -7.086   3.453 121.712  0.00  0.00    -0.073 C 
ATOM      2  C   LIG A   1      -5.757   3.649 121.747  0.00  0.00    -0.028 C 
ATOM      3  C   LIG A   1      -4.978   4.332 120.658  0.00  0.00    +0.027 C 
ATOM      4  C   LIG A   1      -5.857   5.032 119.622  0.00  0.00    +0.004 C 
ATOM      5  C   LIG A   1      -7.094   4.207 119.288  0.00  0.00    +0.005 C 
ATOM      6  C   LIG A   1      -7.923   3.919 120.542  0.00  0.00    +0.030 C 
ENDROOT
BRANCH   1   7
ATOM      7  C   LIG A   1      -7.819   2.768 122.844  0.00  0.00    +0.030 C 
BRANCH   7   8
ATOM      8  C   LIG A   1      -9.238   2.354 122.435  0.00  0.00    +0.004 C 
BRANCH   8   9
ATOM      9  C   LIG A   1      -9.765   1.206 123.304  0.00  0.00    +0.000 C 
BRANCH   9  11
ATOM     10  C   LIG A   1      -9.173  -1.212 122.854  0.00  0.00    +0.004 C 
ATOM     11  C   LIG A   1     -10.065  -0.041 122.468  0.00  0.00    -0.003 C 
ENDBRANCH   9  11
ENDBRANCH   8   9
ENDBRANCH   7   8
ENDBRANCH   1   7
TORSDOF 4
ENDMDL
