MODEL 1
REMARK VINA RESULT:      -7.2      0.000      0.000
REMARK  Name = NuBBE_2039
REMARK  13 active torsions:
REMARK  status: ('A' for Active; 'I' for Inactive)
REMARK    1  A    between atoms: C_1  and  C_3
REMARK    2  A    between atoms: C_1  and  C_13
REMARK    3  A    between atoms: C_3  and  C_4
REMARK    4  A    between atoms: C_4  and  C_5
REMARK    5  A    between atoms: C_8  and  O_11
REMARK    6  A    between atoms: O_11  and  C_12
REMARK    7  A    between atoms: C_14  and  O_15
REMARK    8  A    between atoms: O_15  and  C_16
REMARK    9  A    between atoms: C_16  and  C_18
REMARK   10  A    between atoms: C_20  and  O_25
REMARK   11  A    between atoms: C_22  and  O_23
REMARK   12  A    between atoms: O_23  and  C_24
REMARK   13  A    between atoms: O_25  and  C_26
REMARK                            x       y       z     vdW  Elec       q    Type
REMARK                         _______ _______ _______ _____ _____    ______ ____
ROOT
ATOM      1  C   LIG A   1      -8.390  -0.130 126.205  0.00  0.00    +0.101 A 
ATOM      2  C   LIG A   1      -8.780  -1.420 125.797  0.00  0.00    +0.149 A 
ATOM      3  C   LIG A   1      -8.451  -2.530 126.571  0.00  0.00    +0.092 A 
ATOM      4  C   LIG A   1      -7.869  -2.380 127.824  0.00  0.00    +0.127 A 
ATOM      5  C   LIG A   1      -7.587  -1.099 128.296  0.00  0.00    +0.092 A 
ATOM      6  C   LIG A   1      -7.842   0.024 127.493  0.00  0.00    +0.138 A 
ENDROOT
BRANCH   1   7
ATOM      7  C   LIG A   1      -8.495   1.018 125.242  0.00  0.00    +0.171 C 
ATOM      8  O   LIG A   1      -9.485   1.748 125.253  0.00  0.00    -0.292 OA
BRANCH   7   9
ATOM      9  C   LIG A   1      -7.445   1.197 124.153  0.00  0.00    +0.084 C 
BRANCH   9  10
ATOM     10  C   LIG A   1      -6.979   2.644 124.078  0.00  0.00    +0.043 C 
BRANCH  10  11
ATOM     11  C   LIG A   1      -7.040   3.174 122.666  0.00  0.00    -0.047 A 
ATOM     12  C   LIG A   1      -5.872   3.583 122.014  0.00  0.00    +0.007 A 
ATOM     13  C   LIG A   1      -5.929   4.088 120.713  0.00  0.00    +0.046 A 
ATOM     14  C   LIG A   1      -7.151   4.201 120.048  0.00  0.00    +0.120 A 
ATOM     15  C   LIG A   1      -8.314   3.756 120.676  0.00  0.00    +0.046 A 
ATOM     16  C   LIG A   1      -8.258   3.243 121.976  0.00  0.00    +0.007 A 
BRANCH  14  17
ATOM     17  O   LIG A   1      -7.084   4.723 118.785  0.00  0.00    -0.495 OA
ATOM     18  C   LIG A   1      -5.971   5.572 118.529  0.00  0.00    +0.277 C 
ENDBRANCH  14  17
ENDBRANCH  10  11
ENDBRANCH   9  10
ENDBRANCH   7   9
ENDBRANCH   1   7
BRANCH   6  19
ATOM     19  O   LIG A   1      -7.727   1.287 128.012  0.00  0.00    -0.494 OA
ATOM     20  C   LIG A   1      -8.002   1.419 129.405  0.00  0.00    +0.277 C 
ENDBRANCH   6  19
BRANCH   4  21
ATOM     21  O   LIG A   1      -7.579  -3.421 128.666  0.00  0.00    -0.495 OA
ATOM     22  C   LIG A   1      -7.780  -3.147 130.055  0.00  0.00    +0.277 C 
ENDBRANCH   4  21
BRANCH   2  23
ATOM     23  O   LIG A   1      -9.544  -1.596 124.616  0.00  0.00    -0.425 OA
BRANCH  23  24
ATOM     24  C   LIG A   1      -9.188  -2.573 123.679  0.00  0.00    +0.309 C 
ATOM     25  O   LIG A   1      -9.779  -3.633 123.444  0.00  0.00    -0.251 OA
ATOM     26  C   LIG A   1      -7.947  -2.160 122.960  0.00  0.00    +0.136 C 
ENDBRANCH  23  24
ENDBRANCH   2  23
TORSDOF 9
ENDMDL
MODEL 2
REMARK VINA RESULT:      -7.1      1.059      3.402
REMARK  Name = NuBBE_2039
REMARK  13 active torsions:
REMARK  status: ('A' for Active; 'I' for Inactive)
REMARK    1  A    between atoms: C_1  and  C_3
REMARK    2  A    between atoms: C_1  and  C_13
REMARK    3  A    between atoms: C_3  and  C_4
REMARK    4  A    between atoms: C_4  and  C_5
REMARK    5  A    between atoms: C_8  and  O_11
REMARK    6  A    between atoms: O_11  and  C_12
REMARK    7  A    between atoms: C_14  and  O_15
REMARK    8  A    between atoms: O_15  and  C_16
REMARK    9  A    between atoms: C_16  and  C_18
REMARK   10  A    between atoms: C_20  and  O_25
REMARK   11  A    between atoms: C_22  and  O_23
REMARK   12  A    between atoms: O_23  and  C_24
REMARK   13  A    between atoms: O_25  and  C_26
REMARK                            x       y       z     vdW  Elec       q    Type
REMARK                         _______ _______ _______ _____ _____    ______ ____
ROOT
ATOM      1  C   LIG A   1      -8.741  -0.611 125.701  0.00  0.00    +0.101 A 
ATOM      2  C   LIG A   1      -7.951  -0.236 126.805  0.00  0.00    +0.149 A 
ATOM      3  C   LIG A   1      -7.699  -1.146 127.828  0.00  0.00    +0.092 A 
ATOM      4  C   LIG A   1      -8.089  -2.475 127.714  0.00  0.00    +0.127 A 
ATOM      5  C   LIG A   1      -8.766  -2.892 126.570  0.00  0.00    +0.092 A 
ATOM      6  C   LIG A   1      -9.096  -1.968 125.566  0.00  0.00    +0.138 A 
ENDROOT
BRANCH   1   7
ATOM      7  C   LIG A   1      -9.242   0.441 124.752  0.00  0.00    +0.171 C 
ATOM      8  O   LIG A   1     -10.392   0.867 124.850  0.00  0.00    -0.292 OA
BRANCH   7   9
ATOM      9  C   LIG A   1      -8.378   0.879 123.576  0.00  0.00    +0.084 C 
BRANCH   9  10
ATOM     10  C   LIG A   1      -7.916   2.320 123.748  0.00  0.00    +0.043 C 
BRANCH  10  11
ATOM     11  C   LIG A   1      -7.633   2.973 122.417  0.00  0.00    -0.047 A 
ATOM     12  C   LIG A   1      -8.685   3.316 121.562  0.00  0.00    +0.007 A 
ATOM     13  C   LIG A   1      -8.425   3.907 120.323  0.00  0.00    +0.046 A 
ATOM     14  C   LIG A   1      -7.113   4.157 119.918  0.00  0.00    +0.120 A 
ATOM     15  C   LIG A   1      -6.061   3.857 120.783  0.00  0.00    +0.046 A 
ATOM     16  C   LIG A   1      -6.320   3.271 122.027  0.00  0.00    +0.007 A 
BRANCH  14  17
ATOM     17  O   LIG A   1      -6.980   4.724 118.680  0.00  0.00    -0.495 OA
ATOM     18  C   LIG A   1      -5.952   5.702 118.558  0.00  0.00    +0.277 C 
ENDBRANCH  14  17
ENDBRANCH  10  11
ENDBRANCH   9  10
ENDBRANCH   7   9
ENDBRANCH   1   7
BRANCH   6  19
ATOM     19  O   LIG A   1      -9.607  -2.398 124.369  0.00  0.00    -0.494 OA
ATOM     20  C   LIG A   1      -8.701  -3.092 123.514  0.00  0.00    +0.277 C 
ENDBRANCH   6  19
BRANCH   4  21
ATOM     21  O   LIG A   1      -7.817  -3.438 128.650  0.00  0.00    -0.495 OA
ATOM     22  C   LIG A   1      -6.604  -3.242 129.382  0.00  0.00    +0.277 C 
ENDBRANCH   4  21
BRANCH   2  23
ATOM     23  O   LIG A   1      -7.376   1.057 126.865  0.00  0.00    -0.425 OA
BRANCH  23  24
ATOM     24  C   LIG A   1      -8.050   2.105 127.504  0.00  0.00    +0.309 C 
ATOM     25  O   LIG A   1      -9.043   2.018 128.236  0.00  0.00    -0.251 OA
ATOM     26  C   LIG A   1      -7.392   3.405 127.182  0.00  0.00    +0.136 C 
ENDBRANCH  23  24
ENDBRANCH   2  23
TORSDOF 9
ENDMDL
MODEL 3
REMARK VINA RESULT:      -7.0      2.241      3.205
REMARK  Name = NuBBE_2039
REMARK  13 active torsions:
REMARK  status: ('A' for Active; 'I' for Inactive)
REMARK    1  A    between atoms: C_1  and  C_3
REMARK    2  A    between atoms: C_1  and  C_13
REMARK    3  A    between atoms: C_3  and  C_4
REMARK    4  A    between atoms: C_4  and  C_5
REMARK    5  A    between atoms: C_8  and  O_11
REMARK    6  A    between atoms: O_11  and  C_12
REMARK    7  A    between atoms: C_14  and  O_15
REMARK    8  A    between atoms: O_15  and  C_16
REMARK    9  A    between atoms: C_16  and  C_18
REMARK   10  A    between atoms: C_20  and  O_25
REMARK   11  A    between atoms: C_22  and  O_23
REMARK   12  A    between atoms: O_23  and  C_24
REMARK   13  A    between atoms: O_25  and  C_26
REMARK                            x       y       z     vdW  Elec       q    Type
REMARK                         _______ _______ _______ _____ _____    ______ ____
ROOT
ATOM      1  C   LIG A   1      -7.040  -0.883 125.010  0.00  0.00    +0.101 A 
ATOM      2  C   LIG A   1      -7.058  -1.117 123.621  0.00  0.00    +0.149 A 
ATOM      3  C   LIG A   1      -6.111  -1.954 123.038  0.00  0.00    +0.092 A 
ATOM      4  C   LIG A   1      -5.229  -2.689 123.822  0.00  0.00    +0.127 A 
ATOM      5  C   LIG A   1      -5.280  -2.562 125.208  0.00  0.00    +0.092 A 
ATOM      6  C   LIG A   1      -6.177  -1.662 125.805  0.00  0.00    +0.138 A 
ENDROOT
BRANCH   1   7
ATOM      7  C   LIG A   1      -7.871   0.227 125.589  0.00  0.00    +0.171 C 
ATOM      8  O   LIG A   1      -8.964  -0.018 126.098  0.00  0.00    -0.292 OA
BRANCH   7   9
ATOM      9  C   LIG A   1      -7.432   1.675 125.418  0.00  0.00    +0.084 C 
BRANCH   9  10
ATOM     10  C   LIG A   1      -8.443   2.458 124.592  0.00  0.00    +0.043 C 
BRANCH  10  11
ATOM     11  C   LIG A   1      -7.837   2.963 123.306  0.00  0.00    -0.047 A 
ATOM     12  C   LIG A   1      -8.642   3.174 122.181  0.00  0.00    +0.007 A 
ATOM     13  C   LIG A   1      -8.080   3.627 120.986  0.00  0.00    +0.046 A 
ATOM     14  C   LIG A   1      -6.708   3.867 120.892  0.00  0.00    +0.120 A 
ATOM     15  C   LIG A   1      -5.906   3.699 122.020  0.00  0.00    +0.046 A 
ATOM     16  C   LIG A   1      -6.468   3.252 123.221  0.00  0.00    +0.007 A 
BRANCH  14  17
ATOM     17  O   LIG A   1      -6.270   4.292 119.667  0.00  0.00    -0.495 OA
ATOM     18  C   LIG A   1      -7.288   4.551 118.706  0.00  0.00    +0.277 C 
ENDBRANCH  14  17
ENDBRANCH  10  11
ENDBRANCH   9  10
ENDBRANCH   7   9
ENDBRANCH   1   7
BRANCH   6  19
ATOM     19  O   LIG A   1      -6.350  -1.655 127.165  0.00  0.00    -0.494 OA
ATOM     20  C   LIG A   1      -7.244  -2.635 127.687  0.00  0.00    +0.277 C 
ENDBRANCH   6  19
BRANCH   4  21
ATOM     21  O   LIG A   1      -4.317  -3.580 123.321  0.00  0.00    -0.495 OA
ATOM     22  C   LIG A   1      -4.527  -4.941 123.709  0.00  0.00    +0.277 C 
ENDBRANCH   4  21
BRANCH   2  23
ATOM     23  O   LIG A   1      -8.063  -0.532 122.812  0.00  0.00    -0.425 OA
BRANCH  23  24
ATOM     24  C   LIG A   1      -9.376  -1.017 122.848  0.00  0.00    +0.309 C 
ATOM     25  O   LIG A   1      -9.743  -2.157 123.157  0.00  0.00    -0.251 OA
ATOM     26  C   LIG A   1     -10.328   0.063 122.452  0.00  0.00    +0.136 C 
ENDBRANCH  23  24
ENDBRANCH   2  23
TORSDOF 9
ENDMDL
MODEL 4
REMARK VINA RESULT:      -7.0      2.364      6.677
REMARK  Name = NuBBE_2039
REMARK  13 active torsions:
REMARK  status: ('A' for Active; 'I' for Inactive)
REMARK    1  A    between atoms: C_1  and  C_3
REMARK    2  A    between atoms: C_1  and  C_13
REMARK    3  A    between atoms: C_3  and  C_4
REMARK    4  A    between atoms: C_4  and  C_5
REMARK    5  A    between atoms: C_8  and  O_11
REMARK    6  A    between atoms: O_11  and  C_12
REMARK    7  A    between atoms: C_14  and  O_15
REMARK    8  A    between atoms: O_15  and  C_16
REMARK    9  A    between atoms: C_16  and  C_18
REMARK   10  A    between atoms: C_20  and  O_25
REMARK   11  A    between atoms: C_22  and  O_23
REMARK   12  A    between atoms: O_23  and  C_24
REMARK   13  A    between atoms: O_25  and  C_26
REMARK                            x       y       z     vdW  Elec       q    Type
REMARK                         _______ _______ _______ _____ _____    ______ ____
ROOT
ATOM      1  C   LIG A   1      -9.009   1.872 123.461  0.00  0.00    +0.101 A 
ATOM      2  C   LIG A   1      -8.464   1.843 124.759  0.00  0.00    +0.149 A 
ATOM      3  C   LIG A   1      -7.284   2.525 125.040  0.00  0.00    +0.092 A 
ATOM      4  C   LIG A   1      -6.703   3.365 124.098  0.00  0.00    +0.127 A 
ATOM      5  C   LIG A   1      -7.299   3.501 122.846  0.00  0.00    +0.092 A 
ATOM      6  C   LIG A   1      -8.445   2.758 122.522  0.00  0.00    +0.138 A 
ENDROOT
BRANCH   1   7
ATOM      7  C   LIG A   1     -10.109   0.917 123.094  0.00  0.00    +0.171 C 
ATOM      8  O   LIG A   1     -11.251   1.095 123.515  0.00  0.00    -0.292 OA
BRANCH   7   9
ATOM      9  C   LIG A   1      -9.787  -0.354 122.318  0.00  0.00    +0.084 C 
BRANCH   9  10
ATOM     10  C   LIG A   1      -9.784  -1.567 123.237  0.00  0.00    +0.043 C 
BRANCH  10  11
ATOM     11  C   LIG A   1      -8.390  -2.110 123.435  0.00  0.00    -0.047 A 
ATOM     12  C   LIG A   1      -7.285  -1.419 122.926  0.00  0.00    +0.007 A 
ATOM     13  C   LIG A   1      -5.995  -1.927 123.095  0.00  0.00    +0.046 A 
ATOM     14  C   LIG A   1      -5.790  -3.134 123.765  0.00  0.00    +0.120 A 
ATOM     15  C   LIG A   1      -6.882  -3.806 124.312  0.00  0.00    +0.046 A 
ATOM     16  C   LIG A   1      -8.174  -3.295 124.150  0.00  0.00    +0.007 A 
BRANCH  14  17
ATOM     17  O   LIG A   1      -4.486  -3.539 123.855  0.00  0.00    -0.495 OA
ATOM     18  C   LIG A   1      -4.233  -4.887 123.472  0.00  0.00    +0.277 C 
ENDBRANCH  14  17
ENDBRANCH  10  11
ENDBRANCH   9  10
ENDBRANCH   7   9
ENDBRANCH   1   7
BRANCH   6  19
ATOM     19  O   LIG A   1      -9.130   3.011 121.363  0.00  0.00    -0.494 OA
ATOM     20  C   LIG A   1      -8.501   3.903 120.445  0.00  0.00    +0.277 C 
ENDBRANCH   6  19
BRANCH   4  21
ATOM     21  O   LIG A   1      -5.582   4.118 124.327  0.00  0.00    -0.495 OA
ATOM     22  C   LIG A   1      -5.430   4.580 125.672  0.00  0.00    +0.277 C 
ENDBRANCH   4  21
BRANCH   2  23
ATOM     23  O   LIG A   1      -9.132   1.149 125.798  0.00  0.00    -0.425 OA
BRANCH  23  24
ATOM     24  C   LIG A   1      -8.441   0.760 126.952  0.00  0.00    +0.309 C 
ATOM     25  O   LIG A   1      -8.387   1.365 128.030  0.00  0.00    -0.251 OA
ATOM     26  C   LIG A   1      -7.744  -0.538 126.715  0.00  0.00    +0.136 C 
ENDBRANCH  23  24
ENDBRANCH   2  23
TORSDOF 9
ENDMDL
MODEL 5
REMARK VINA RESULT:      -6.9      3.152      4.562
REMARK  Name = NuBBE_2039
REMARK  13 active torsions:
REMARK  status: ('A' for Active; 'I' for Inactive)
REMARK    1  A    between atoms: C_1  and  C_3
REMARK    2  A    between atoms: C_1  and  C_13
REMARK    3  A    between atoms: C_3  and  C_4
REMARK    4  A    between atoms: C_4  and  C_5
REMARK    5  A    between atoms: C_8  and  O_11
REMARK    6  A    between atoms: O_11  and  C_12
REMARK    7  A    between atoms: C_14  and  O_15
REMARK    8  A    between atoms: O_15  and  C_16
REMARK    9  A    between atoms: C_16  and  C_18
REMARK   10  A    between atoms: C_20  and  O_25
REMARK   11  A    between atoms: C_22  and  O_23
REMARK   12  A    between atoms: O_23  and  C_24
REMARK   13  A    between atoms: O_25  and  C_26
REMARK                            x       y       z     vdW  Elec       q    Type
REMARK                         _______ _______ _______ _____ _____    ______ ____
ROOT
ATOM      1  C   LIG A   1      -9.018  -0.103 126.108  0.00  0.00    +0.101 A 
ATOM      2  C   LIG A   1      -8.924  -1.494 126.301  0.00  0.00    +0.149 A 
ATOM      3  C   LIG A   1      -8.132  -2.008 127.324  0.00  0.00    +0.092 A 
ATOM      4  C   LIG A   1      -7.543  -1.168 128.262  0.00  0.00    +0.127 A 
ATOM      5  C   LIG A   1      -7.728   0.209 128.156  0.00  0.00    +0.092 A 
ATOM      6  C   LIG A   1      -8.459   0.745 127.084  0.00  0.00    +0.138 A 
ENDROOT
BRANCH   1   7
ATOM      7  C   LIG A   1      -9.635   0.433 124.847  0.00  0.00    +0.171 C 
ATOM      8  O   LIG A   1     -10.812   0.794 124.837  0.00  0.00    -0.292 OA
BRANCH   7   9
ATOM      9  C   LIG A   1      -8.852   0.397 123.541  0.00  0.00    +0.084 C 
BRANCH   9  10
ATOM     10  C   LIG A   1      -7.382   0.714 123.779  0.00  0.00    +0.043 C 
BRANCH  10  11
ATOM     11  C   LIG A   1      -6.530  -0.531 123.719  0.00  0.00    -0.047 A 
ATOM     12  C   LIG A   1      -5.749  -0.906 124.817  0.00  0.00    +0.007 A 
ATOM     13  C   LIG A   1      -4.948  -2.049 124.758  0.00  0.00    +0.046 A 
ATOM     14  C   LIG A   1      -4.908  -2.827 123.600  0.00  0.00    +0.120 A 
ATOM     15  C   LIG A   1      -5.716  -2.484 122.517  0.00  0.00    +0.046 A 
ATOM     16  C   LIG A   1      -6.524  -1.343 122.577  0.00  0.00    +0.007 A 
BRANCH  14  17
ATOM     17  O   LIG A   1      -4.077  -3.913 123.653  0.00  0.00    -0.495 OA
ATOM     18  C   LIG A   1      -4.721  -5.182 123.640  0.00  0.00    +0.277 C 
ENDBRANCH  14  17
ENDBRANCH  10  11
ENDBRANCH   9  10
ENDBRANCH   7   9
ENDBRANCH   1   7
BRANCH   6  19
ATOM     19  O   LIG A   1      -8.787   2.076 127.065  0.00  0.00    -0.494 OA
ATOM     20  C   LIG A   1      -7.801   2.971 127.575  0.00  0.00    +0.277 C 
ENDBRANCH   6  19
BRANCH   4  21
ATOM     21  O   LIG A   1      -6.807  -1.606 129.331  0.00  0.00    -0.495 OA
ATOM     22  C   LIG A   1      -6.192  -0.573 130.105  0.00  0.00    +0.277 C 
ENDBRANCH   4  21
BRANCH   2  23
ATOM     23  O   LIG A   1      -9.663  -2.381 125.480  0.00  0.00    -0.425 OA
BRANCH  23  24
ATOM     24  C   LIG A   1      -9.005  -3.259 124.611  0.00  0.00    +0.309 C 
ATOM     25  O   LIG A   1      -8.042  -3.990 124.874  0.00  0.00    -0.251 OA
ATOM     26  C   LIG A   1      -9.638  -3.207 123.260  0.00  0.00    +0.136 C 
ENDBRANCH  23  24
ENDBRANCH   2  23
TORSDOF 9
ENDMDL
MODEL 6
REMARK VINA RESULT:      -6.6      8.832     10.807
REMARK  Name = NuBBE_2039
REMARK  13 active torsions:
REMARK  status: ('A' for Active; 'I' for Inactive)
REMARK    1  A    between atoms: C_1  and  C_3
REMARK    2  A    between atoms: C_1  and  C_13
REMARK    3  A    between atoms: C_3  and  C_4
REMARK    4  A    between atoms: C_4  and  C_5
REMARK    5  A    between atoms: C_8  and  O_11
REMARK    6  A    between atoms: O_11  and  C_12
REMARK    7  A    between atoms: C_14  and  O_15
REMARK    8  A    between atoms: O_15  and  C_16
REMARK    9  A    between atoms: C_16  and  C_18
REMARK   10  A    between atoms: C_20  and  O_25
REMARK   11  A    between atoms: C_22  and  O_23
REMARK   12  A    between atoms: O_23  and  C_24
REMARK   13  A    between atoms: O_25  and  C_26
REMARK                            x       y       z     vdW  Elec       q    Type
REMARK                         _______ _______ _______ _____ _____    ______ ____
ROOT
ATOM      1  C   LIG A   1      -4.846   6.536 131.679  0.00  0.00    +0.101 A 
ATOM      2  C   LIG A   1      -4.049   7.418 130.924  0.00  0.00    +0.149 A 
ATOM      3  C   LIG A   1      -2.981   8.082 131.520  0.00  0.00    +0.092 A 
ATOM      4  C   LIG A   1      -2.586   7.780 132.818  0.00  0.00    +0.127 A 
ATOM      5  C   LIG A   1      -3.291   6.818 133.538  0.00  0.00    +0.092 A 
ATOM      6  C   LIG A   1      -4.418   6.198 132.978  0.00  0.00    +0.138 A 
ENDROOT
BRANCH   1   7
ATOM      7  C   LIG A   1      -6.152   6.047 131.118  0.00  0.00    +0.171 C 
ATOM      8  O   LIG A   1      -6.214   4.954 130.556  0.00  0.00    -0.292 OA
BRANCH   7   9
ATOM      9  C   LIG A   1      -7.369   6.962 131.114  0.00  0.00    +0.084 C 
BRANCH   9  10
ATOM     10  C   LIG A   1      -8.573   6.270 131.739  0.00  0.00    +0.043 C 
BRANCH  10  11
ATOM     11  C   LIG A   1      -9.861   6.690 131.074  0.00  0.00    -0.047 A 
ATOM     12  C   LIG A   1      -9.835   7.384 129.859  0.00  0.00    +0.007 A 
ATOM     13  C   LIG A   1     -11.025   7.787 129.250  0.00  0.00    +0.046 A 
ATOM     14  C   LIG A   1     -12.256   7.513 129.847  0.00  0.00    +0.120 A 
ATOM     15  C   LIG A   1     -12.292   6.784 131.036  0.00  0.00    +0.046 A 
ATOM     16  C   LIG A   1     -11.102   6.373 131.644  0.00  0.00    +0.007 A 
BRANCH  14  17
ATOM     17  O   LIG A   1     -13.352   7.970 129.167  0.00  0.00    -0.495 OA
ATOM     18  C   LIG A   1     -13.222   9.265 128.591  0.00  0.00    +0.277 C 
ENDBRANCH  14  17
ENDBRANCH  10  11
ENDBRANCH   9  10
ENDBRANCH   7   9
ENDBRANCH   1   7
BRANCH   6  19
ATOM     19  O   LIG A   1      -5.011   5.136 133.610  0.00  0.00    -0.494 OA
ATOM     20  C   LIG A   1      -5.807   5.452 134.751  0.00  0.00    +0.277 C 
ENDBRANCH   6  19
BRANCH   4  21
ATOM     21  O   LIG A   1      -1.506   8.345 133.443  0.00  0.00    -0.495 OA
ATOM     22  C   LIG A   1      -0.240   7.791 133.076  0.00  0.00    +0.277 C 
ENDBRANCH   4  21
BRANCH   2  23
ATOM     23  O   LIG A   1      -4.306   7.608 129.544  0.00  0.00    -0.425 OA
BRANCH  23  24
ATOM     24  C   LIG A   1      -3.826   6.692 128.599  0.00  0.00    +0.309 C 
ATOM     25  O   LIG A   1      -4.494   5.929 127.893  0.00  0.00    -0.251 OA
ATOM     26  C   LIG A   1      -2.336   6.753 128.544  0.00  0.00    +0.136 C 
ENDBRANCH  23  24
ENDBRANCH   2  23
TORSDOF 9
ENDMDL
MODEL 7
REMARK VINA RESULT:      -6.5      2.565      7.404
REMARK  Name = NuBBE_2039
REMARK  13 active torsions:
REMARK  status: ('A' for Active; 'I' for Inactive)
REMARK    1  A    between atoms: C_1  and  C_3
REMARK    2  A    between atoms: C_1  and  C_13
REMARK    3  A    between atoms: C_3  and  C_4
REMARK    4  A    between atoms: C_4  and  C_5
REMARK    5  A    between atoms: C_8  and  O_11
REMARK    6  A    between atoms: O_11  and  C_12
REMARK    7  A    between atoms: C_14  and  O_15
REMARK    8  A    between atoms: O_15  and  C_16
REMARK    9  A    between atoms: C_16  and  C_18
REMARK   10  A    between atoms: C_20  and  O_25
REMARK   11  A    between atoms: C_22  and  O_23
REMARK   12  A    between atoms: O_23  and  C_24
REMARK   13  A    between atoms: O_25  and  C_26
REMARK                            x       y       z     vdW  Elec       q    Type
REMARK                         _______ _______ _______ _____ _____    ______ ____
ROOT
ATOM      1  C   LIG A   1      -7.268   3.856 124.854  0.00  0.00    +0.101 A 
ATOM      2  C   LIG A   1      -6.004   4.466 124.741  0.00  0.00    +0.149 A 
ATOM      3  C   LIG A   1      -5.267   4.342 123.567  0.00  0.00    +0.092 A 
ATOM      4  C   LIG A   1      -5.818   3.747 122.438  0.00  0.00    +0.127 A 
ATOM      5  C   LIG A   1      -7.117   3.246 122.496  0.00  0.00    +0.092 A 
ATOM      6  C   LIG A   1      -7.842   3.294 123.696  0.00  0.00    +0.138 A 
ENDROOT
BRANCH   1   7
ATOM      7  C   LIG A   1      -7.927   3.751 126.200  0.00  0.00    +0.171 C 
ATOM      8  O   LIG A   1      -8.389   4.754 126.744  0.00  0.00    -0.292 OA
BRANCH   7   9
ATOM      9  C   LIG A   1      -7.899   2.432 126.961  0.00  0.00    +0.084 C 
BRANCH   9  10
ATOM     10  C   LIG A   1      -6.667   1.617 126.592  0.00  0.00    +0.043 C 
BRANCH  10  11
ATOM     11  C   LIG A   1      -7.033   0.390 125.794  0.00  0.00    -0.047 A 
ATOM     12  C   LIG A   1      -8.119  -0.404 126.178  0.00  0.00    +0.007 A 
ATOM     13  C   LIG A   1      -8.450  -1.549 125.450  0.00  0.00    +0.046 A 
ATOM     14  C   LIG A   1      -7.699  -1.922 124.334  0.00  0.00    +0.120 A 
ATOM     15  C   LIG A   1      -6.642  -1.112 123.920  0.00  0.00    +0.046 A 
ATOM     16  C   LIG A   1      -6.313   0.039 124.644  0.00  0.00    +0.007 A 
BRANCH  14  17
ATOM     17  O   LIG A   1      -8.108  -3.069 123.710  0.00  0.00    -0.495 OA
ATOM     18  C   LIG A   1      -9.509  -3.185 123.492  0.00  0.00    +0.277 C 
ENDBRANCH  14  17
ENDBRANCH  10  11
ENDBRANCH   9  10
ENDBRANCH   7   9
ENDBRANCH   1   7
BRANCH   6  19
ATOM     19  O   LIG A   1      -9.171   2.960 123.717  0.00  0.00    -0.494 OA
ATOM     20  C   LIG A   1      -9.498   1.664 123.220  0.00  0.00    +0.277 C 
ENDBRANCH   6  19
BRANCH   4  21
ATOM     21  O   LIG A   1      -5.177   3.650 121.231  0.00  0.00    -0.495 OA
ATOM     22  C   LIG A   1      -5.481   4.692 120.300  0.00  0.00    +0.277 C 
ENDBRANCH   4  21
BRANCH   2  23
ATOM     23  O   LIG A   1      -5.489   5.243 125.808  0.00  0.00    -0.425 OA
BRANCH  23  24
ATOM     24  C   LIG A   1      -4.536   4.706 126.682  0.00  0.00    +0.309 C 
ATOM     25  O   LIG A   1      -3.472   4.152 126.379  0.00  0.00    -0.251 OA
ATOM     26  C   LIG A   1      -4.979   4.893 128.095  0.00  0.00    +0.136 C 
ENDBRANCH  23  24
ENDBRANCH   2  23
TORSDOF 9
ENDMDL
MODEL 8
REMARK VINA RESULT:      -6.4      2.639      3.600
REMARK  Name = NuBBE_2039
REMARK  13 active torsions:
REMARK  status: ('A' for Active; 'I' for Inactive)
REMARK    1  A    between atoms: C_1  and  C_3
REMARK    2  A    between atoms: C_1  and  C_13
REMARK    3  A    between atoms: C_3  and  C_4
REMARK    4  A    between atoms: C_4  and  C_5
REMARK    5  A    between atoms: C_8  and  O_11
REMARK    6  A    between atoms: O_11  and  C_12
REMARK    7  A    between atoms: C_14  and  O_15
REMARK    8  A    between atoms: O_15  and  C_16
REMARK    9  A    between atoms: C_16  and  C_18
REMARK   10  A    between atoms: C_20  and  O_25
REMARK   11  A    between atoms: C_22  and  O_23
REMARK   12  A    between atoms: O_23  and  C_24
REMARK   13  A    between atoms: O_25  and  C_26
REMARK                            x       y       z     vdW  Elec       q    Type
REMARK                         _______ _______ _______ _____ _____    ______ ____
ROOT
ATOM      1  C   LIG A   1      -8.936   0.191 125.980  0.00  0.00    +0.101 A 
ATOM      2  C   LIG A   1      -8.854  -1.213 125.912  0.00  0.00    +0.149 A 
ATOM      3  C   LIG A   1      -8.174  -1.925 126.896  0.00  0.00    +0.092 A 
ATOM      4  C   LIG A   1      -7.694  -1.288 128.035  0.00  0.00    +0.127 A 
ATOM      5  C   LIG A   1      -7.876   0.086 128.176  0.00  0.00    +0.092 A 
ATOM      6  C   LIG A   1      -8.491   0.828 127.155  0.00  0.00    +0.138 A 
ENDROOT
BRANCH   1   7
ATOM      7  C   LIG A   1      -9.417   0.967 124.787  0.00  0.00    +0.171 C 
ATOM      8  O   LIG A   1     -10.622   1.073 124.560  0.00  0.00    -0.292 OA
BRANCH   7   9
ATOM      9  C   LIG A   1      -8.414   1.504 123.774  0.00  0.00    +0.084 C 
BRANCH   9  10
ATOM     10  C   LIG A   1      -8.247   3.011 123.919  0.00  0.00    +0.043 C 
BRANCH  10  11
ATOM     11  C   LIG A   1      -7.010   3.358 124.710  0.00  0.00    -0.047 A 
ATOM     12  C   LIG A   1      -6.794   4.671 125.142  0.00  0.00    +0.007 A 
ATOM     13  C   LIG A   1      -5.642   4.998 125.861  0.00  0.00    +0.046 A 
ATOM     14  C   LIG A   1      -4.686   4.023 126.152  0.00  0.00    +0.120 A 
ATOM     15  C   LIG A   1      -4.915   2.704 125.762  0.00  0.00    +0.046 A 
ATOM     16  C   LIG A   1      -6.072   2.373 125.048  0.00  0.00    +0.007 A 
BRANCH  14  17
ATOM     17  O   LIG A   1      -3.593   4.463 126.847  0.00  0.00    -0.495 OA
ATOM     18  C   LIG A   1      -2.902   3.471 127.598  0.00  0.00    +0.277 C 
ENDBRANCH  14  17
ENDBRANCH  10  11
ENDBRANCH   9  10
ENDBRANCH   7   9
ENDBRANCH   1   7
BRANCH   6  19
ATOM     19  O   LIG A   1      -8.823   2.142 127.358  0.00  0.00    -0.494 OA
ATOM     20  C   LIG A   1      -7.989   2.867 128.258  0.00  0.00    +0.277 C 
ENDBRANCH   6  19
BRANCH   4  21
ATOM     21  O   LIG A   1      -7.076  -1.934 129.073  0.00  0.00    -0.495 OA
ATOM     22  C   LIG A   1      -7.759  -3.093 129.556  0.00  0.00    +0.277 C 
ENDBRANCH   4  21
BRANCH   2  23
ATOM     23  O   LIG A   1      -9.495  -1.916 124.862  0.00  0.00    -0.425 OA
BRANCH  23  24
ATOM     24  C   LIG A   1      -8.765  -2.779 124.035  0.00  0.00    +0.309 C 
ATOM     25  O   LIG A   1      -8.424  -3.941 124.285  0.00  0.00    -0.251 OA
ATOM     26  C   LIG A   1      -8.433  -2.093 122.752  0.00  0.00    +0.136 C 
ENDBRANCH  23  24
ENDBRANCH   2  23
TORSDOF 9
ENDMDL
MODEL 9
REMARK VINA RESULT:      -6.3      2.413      8.807
REMARK  Name = NuBBE_2039
REMARK  13 active torsions:
REMARK  status: ('A' for Active; 'I' for Inactive)
REMARK    1  A    between atoms: C_1  and  C_3
REMARK    2  A    between atoms: C_1  and  C_13
REMARK    3  A    between atoms: C_3  and  C_4
REMARK    4  A    between atoms: C_4  and  C_5
REMARK    5  A    between atoms: C_8  and  O_11
REMARK    6  A    between atoms: O_11  and  C_12
REMARK    7  A    between atoms: C_14  and  O_15
REMARK    8  A    between atoms: O_15  and  C_16
REMARK    9  A    between atoms: C_16  and  C_18
REMARK   10  A    between atoms: C_20  and  O_25
REMARK   11  A    between atoms: C_22  and  O_23
REMARK   12  A    between atoms: O_23  and  C_24
REMARK   13  A    between atoms: O_25  and  C_26
REMARK                            x       y       z     vdW  Elec       q    Type
REMARK                         _______ _______ _______ _____ _____    ______ ____
ROOT
ATOM      1  C   LIG A   1      -6.606  -0.566 125.940  0.00  0.00    +0.101 A 
ATOM      2  C   LIG A   1      -7.395  -0.974 124.847  0.00  0.00    +0.149 A 
ATOM      3  C   LIG A   1      -7.786  -0.052 123.881  0.00  0.00    +0.092 A 
ATOM      4  C   LIG A   1      -7.288   1.245 123.889  0.00  0.00    +0.127 A 
ATOM      5  C   LIG A   1      -6.406   1.631 124.897  0.00  0.00    +0.092 A 
ATOM      6  C   LIG A   1      -6.066   0.735 125.922  0.00  0.00    +0.138 A 
ENDROOT
BRANCH   1   7
ATOM      7  C   LIG A   1      -6.427  -1.486 127.114  0.00  0.00    +0.171 C 
ATOM      8  O   LIG A   1      -5.500  -2.295 127.133  0.00  0.00    -0.292 OA
BRANCH   7   9
ATOM      9  C   LIG A   1      -7.475  -1.523 128.219  0.00  0.00    +0.084 C 
BRANCH   9  10
ATOM     10  C   LIG A   1      -7.803  -2.957 128.611  0.00  0.00    +0.043 C 
BRANCH  10  11
ATOM     11  C   LIG A   1      -7.179  -3.328 129.934  0.00  0.00    -0.047 A 
ATOM     12  C   LIG A   1      -6.164  -4.289 129.990  0.00  0.00    +0.007 A 
ATOM     13  C   LIG A   1      -5.595  -4.644 131.215  0.00  0.00    +0.046 A 
ATOM     14  C   LIG A   1      -6.035  -4.054 132.400  0.00  0.00    +0.120 A 
ATOM     15  C   LIG A   1      -7.016  -3.064 132.347  0.00  0.00    +0.046 A 
ATOM     16  C   LIG A   1      -7.583  -2.702 131.121  0.00  0.00    +0.007 A 
BRANCH  14  17
ATOM     17  O   LIG A   1      -5.416  -4.492 133.538  0.00  0.00    -0.495 OA
ATOM     18  C   LIG A   1      -6.168  -5.398 134.339  0.00  0.00    +0.277 C 
ENDBRANCH  14  17
ENDBRANCH  10  11
ENDBRANCH   9  10
ENDBRANCH   7   9
ENDBRANCH   1   7
BRANCH   6  19
ATOM     19  O   LIG A   1      -5.076   1.048 126.816  0.00  0.00    -0.494 OA
ATOM     20  C   LIG A   1      -4.310   2.214 126.519  0.00  0.00    +0.277 C 
ENDBRANCH   6  19
BRANCH   4  21
ATOM     21  O   LIG A   1      -7.576   2.184 122.934  0.00  0.00    -0.495 OA
ATOM     22  C   LIG A   1      -6.606   3.227 122.801  0.00  0.00    +0.277 C 
ENDBRANCH   4  21
BRANCH   2  23
ATOM     23  O   LIG A   1      -7.767  -2.334 124.704  0.00  0.00    -0.425 OA
BRANCH  23  24
ATOM     24  C   LIG A   1      -9.113  -2.714 124.770  0.00  0.00    +0.309 C 
ATOM     25  O   LIG A   1      -9.901  -2.510 125.700  0.00  0.00    -0.251 OA
ATOM     26  C   LIG A   1      -9.502  -3.427 123.518  0.00  0.00    +0.136 C 
ENDBRANCH  23  24
ENDBRANCH   2  23
TORSDOF 9
ENDMDL
