MODEL 1
REMARK VINA RESULT:      -8.4      0.000      0.000
REMARK  Name = NuBBE_2304
REMARK  2 active torsions:
REMARK  status: ('A' for Active; 'I' for Inactive)
REMARK    1  A    between atoms: C_1  and  O_26
REMARK    2  A    between atoms: C_14  and  C_16
REMARK                            x       y       z     vdW  Elec       q    Type
REMARK                         _______ _______ _______ _____ _____    ______ ____
ROOT
ATOM      1  C   LIG A   1      -8.680   2.491 123.078  0.00  0.00    +0.139 A 
ATOM      2  C   LIG A   1      -9.743   1.962 122.341  0.00  0.00    +0.047 A 
ATOM      3  C   LIG A   1     -10.100   0.620 122.472  0.00  0.00    +0.004 A 
ATOM      4  C   LIG A   1      -9.375  -0.212 123.321  0.00  0.00    +0.006 A 
ATOM      5  C   LIG A   1      -8.297   0.312 124.037  0.00  0.00    -0.013 A 
ATOM      6  C   LIG A   1      -7.304  -0.445 124.917  0.00  0.00    +0.036 C 
ATOM      7  C   LIG A   1      -7.945  -1.520 125.793  0.00  0.00    +0.075 C 
ATOM      8  C   LIG A   1      -7.513  -1.526 127.271  0.00  0.00    -0.013 C 
ATOM      9  C   LIG A   1      -7.970  -0.184 127.870  0.00  0.00    +0.010 C 
ATOM     10  C   LIG A   1      -7.603   1.039 127.001  0.00  0.00    +0.028 C 
ATOM     11  C   LIG A   1      -6.703   0.750 125.741  0.00  0.00    +0.053 C 
ATOM     12  N   LIG A   1      -6.842   1.952 124.797  0.00  0.00    -0.261 N 
ATOM     13  C   LIG A   1      -7.958   1.668 123.945  0.00  0.00    +0.082 A 
ATOM     14  C   LIG A   1      -6.430   3.248 125.060  0.00  0.00    +0.217 C 
ATOM     15  O   LIG A   1      -7.166   4.234 124.959  0.00  0.00    -0.276 OA
ATOM     16  C   LIG A   1      -4.979   3.471 125.388  0.00  0.00    +0.110 C 
ATOM     17  C   LIG A   1      -5.262   0.483 126.223  0.00  0.00    +0.027 C 
ATOM     18  C   LIG A   1      -5.095  -0.462 127.407  0.00  0.00    +0.003 C 
ATOM     19  C   LIG A   1      -5.971  -1.705 127.468  0.00  0.00    +0.008 C 
ATOM     20  C   LIG A   1      -8.222  -2.752 127.963  0.00  0.00    +0.009 C 
ATOM     21  C   LIG A   1      -9.013  -3.663 126.994  0.00  0.00    +0.016 C 
ATOM     22  C   LIG A   1      -8.304  -3.929 125.649  0.00  0.00    +0.085 C 
ATOM     23  N   LIG A   1      -7.498  -2.796 125.257  0.00  0.00    -0.298 NA
ATOM     24  C   LIG A   1      -7.061  -2.640 123.891  0.00  0.00    +0.086 C 
ATOM     25  C   LIG A   1      -6.391  -1.262 123.968  0.00  0.00    +0.030 C 
ENDROOT
BRANCH   1  26
ATOM     26  O   LIG A   1      -8.443   3.817 122.865  0.00  0.00    -0.505 OA
ATOM     27  H   LIG A   1      -8.701   4.017 121.939  0.00  0.00    +0.292 HD
ENDBRANCH   1  26
TORSDOF 1
ENDMDL
MODEL 2
REMARK VINA RESULT:      -8.3      2.666      5.274
REMARK  Name = NuBBE_2304
REMARK  2 active torsions:
REMARK  status: ('A' for Active; 'I' for Inactive)
REMARK    1  A    between atoms: C_1  and  O_26
REMARK    2  A    between atoms: C_14  and  C_16
REMARK                            x       y       z     vdW  Elec       q    Type
REMARK                         _______ _______ _______ _____ _____    ______ ____
ROOT
ATOM      1  C   LIG A   1      -8.437  -3.145 125.621  0.00  0.00    +0.139 A 
ATOM      2  C   LIG A   1      -8.709  -3.646 124.345  0.00  0.00    +0.047 A 
ATOM      3  C   LIG A   1      -8.851  -2.782 123.259  0.00  0.00    +0.004 A 
ATOM      4  C   LIG A   1      -8.754  -1.406 123.447  0.00  0.00    +0.006 A 
ATOM      5  C   LIG A   1      -8.507  -0.906 124.728  0.00  0.00    -0.013 A 
ATOM      6  C   LIG A   1      -8.486   0.555 125.171  0.00  0.00    +0.036 C 
ATOM      7  C   LIG A   1      -7.797   1.494 124.183  0.00  0.00    +0.075 C 
ATOM      8  C   LIG A   1      -6.783   2.482 124.790  0.00  0.00    -0.013 C 
ATOM      9  C   LIG A   1      -5.655   1.634 125.404  0.00  0.00    +0.010 C 
ATOM     10  C   LIG A   1      -6.162   0.468 126.280  0.00  0.00    +0.028 C 
ATOM     11  C   LIG A   1      -7.716   0.415 126.534  0.00  0.00    +0.053 C 
ATOM     12  N   LIG A   1      -8.054  -1.007 127.001  0.00  0.00    -0.261 N 
ATOM     13  C   LIG A   1      -8.319  -1.768 125.816  0.00  0.00    +0.082 A 
ATOM     14  C   LIG A   1      -7.626  -1.603 128.176  0.00  0.00    +0.217 C 
ATOM     15  O   LIG A   1      -7.054  -2.696 128.220  0.00  0.00    -0.276 OA
ATOM     16  C   LIG A   1      -7.969  -0.925 129.473  0.00  0.00    +0.110 C 
ATOM     17  C   LIG A   1      -8.082   1.520 127.546  0.00  0.00    +0.027 C 
ATOM     18  C   LIG A   1      -7.478   2.901 127.308  0.00  0.00    +0.003 C 
ATOM     19  C   LIG A   1      -7.405   3.419 125.879  0.00  0.00    +0.008 C 
ATOM     20  C   LIG A   1      -6.262   3.399 123.620  0.00  0.00    +0.009 C 
ATOM     21  C   LIG A   1      -6.973   3.172 122.265  0.00  0.00    +0.016 C 
ATOM     22  C   LIG A   1      -8.499   2.972 122.372  0.00  0.00    +0.085 C 
ATOM     23  N   LIG A   1      -8.849   2.324 123.616  0.00  0.00    -0.298 NA
ATOM     24  C   LIG A   1     -10.133   1.686 123.779  0.00  0.00    +0.086 C 
ATOM     25  C   LIG A   1      -9.955   1.051 125.164  0.00  0.00    +0.030 C 
ENDROOT
BRANCH   1  26
ATOM     26  O   LIG A   1      -8.310  -4.095 126.590  0.00  0.00    -0.505 OA
ATOM     27  H   LIG A   1      -7.848  -3.679 127.351  0.00  0.00    +0.292 HD
ENDBRANCH   1  26
TORSDOF 1
ENDMDL
MODEL 3
REMARK VINA RESULT:      -8.0      2.712      5.249
REMARK  Name = NuBBE_2304
REMARK  2 active torsions:
REMARK  status: ('A' for Active; 'I' for Inactive)
REMARK    1  A    between atoms: C_1  and  O_26
REMARK    2  A    between atoms: C_14  and  C_16
REMARK                            x       y       z     vdW  Elec       q    Type
REMARK                         _______ _______ _______ _____ _____    ______ ____
ROOT
ATOM      1  C   LIG A   1      -7.476   0.214 129.736  0.00  0.00    +0.139 A 
ATOM      2  C   LIG A   1      -8.288   1.334 129.931  0.00  0.00    +0.047 A 
ATOM      3  C   LIG A   1      -8.828   2.019 128.841  0.00  0.00    +0.004 A 
ATOM      4  C   LIG A   1      -8.534   1.605 127.545  0.00  0.00    +0.006 A 
ATOM      5  C   LIG A   1      -7.701   0.501 127.351  0.00  0.00    -0.013 A 
ATOM      6  C   LIG A   1      -7.158  -0.038 126.030  0.00  0.00    +0.036 C 
ATOM      7  C   LIG A   1      -8.179  -0.041 124.894  0.00  0.00    +0.075 C 
ATOM      8  C   LIG A   1      -8.269  -1.344 124.076  0.00  0.00    -0.013 C 
ATOM      9  C   LIG A   1      -8.733  -2.444 125.047  0.00  0.00    +0.010 C 
ATOM     10  C   LIG A   1      -7.952  -2.464 126.379  0.00  0.00    +0.028 C 
ATOM     11  C   LIG A   1      -6.726  -1.481 126.480  0.00  0.00    +0.053 C 
ATOM     12  N   LIG A   1      -6.396  -1.315 127.970  0.00  0.00    -0.261 N 
ATOM     13  C   LIG A   1      -7.190  -0.219 128.439  0.00  0.00    +0.082 A 
ATOM     14  C   LIG A   1      -5.942  -2.310 128.820  0.00  0.00    +0.217 C 
ATOM     15  O   LIG A   1      -6.477  -2.586 129.898  0.00  0.00    -0.276 OA
ATOM     16  C   LIG A   1      -4.668  -3.020 128.453  0.00  0.00    +0.110 C 
ATOM     17  C   LIG A   1      -5.572  -2.054 125.633  0.00  0.00    +0.027 C 
ATOM     18  C   LIG A   1      -5.925  -2.559 124.238  0.00  0.00    +0.003 C 
ATOM     19  C   LIG A   1      -6.914  -1.753 123.408  0.00  0.00    +0.008 C 
ATOM     20  C   LIG A   1      -9.310  -1.100 122.919  0.00  0.00    +0.009 C 
ATOM     21  C   LIG A   1      -9.837   0.351 122.827  0.00  0.00    +0.016 C 
ATOM     22  C   LIG A   1      -8.758   1.434 123.039  0.00  0.00    +0.085 C 
ATOM     23  N   LIG A   1      -7.737   0.974 123.951  0.00  0.00    -0.298 NA
ATOM     24  C   LIG A   1      -6.854   1.911 124.602  0.00  0.00    +0.086 C 
ATOM     25  C   LIG A   1      -6.086   0.968 125.538  0.00  0.00    +0.030 C 
ENDROOT
BRANCH   1  26
ATOM     26  O   LIG A   1      -7.023  -0.368 130.882  0.00  0.00    -0.505 OA
ATOM     27  H   LIG A   1      -7.360   0.165 131.635  0.00  0.00    +0.292 HD
ENDBRANCH   1  26
TORSDOF 1
ENDMDL
MODEL 4
REMARK VINA RESULT:      -8.0      1.527      4.081
REMARK  Name = NuBBE_2304
REMARK  2 active torsions:
REMARK  status: ('A' for Active; 'I' for Inactive)
REMARK    1  A    between atoms: C_1  and  O_26
REMARK    2  A    between atoms: C_14  and  C_16
REMARK                            x       y       z     vdW  Elec       q    Type
REMARK                         _______ _______ _______ _____ _____    ______ ____
ROOT
ATOM      1  C   LIG A   1      -5.636   4.063 124.305  0.00  0.00    +0.139 A 
ATOM      2  C   LIG A   1      -4.782   4.180 125.404  0.00  0.00    +0.047 A 
ATOM      3  C   LIG A   1      -4.753   3.192 126.388  0.00  0.00    +0.004 A 
ATOM      4  C   LIG A   1      -5.602   2.092 126.296  0.00  0.00    +0.006 A 
ATOM      5  C   LIG A   1      -6.473   1.990 125.209  0.00  0.00    -0.013 A 
ATOM      6  C   LIG A   1      -7.561   0.943 124.981  0.00  0.00    +0.036 C 
ATOM      7  C   LIG A   1      -7.145  -0.477 125.357  0.00  0.00    +0.075 C 
ATOM      8  C   LIG A   1      -7.470  -1.569 124.320  0.00  0.00    -0.013 C 
ATOM      9  C   LIG A   1      -6.665  -1.228 123.053  0.00  0.00    +0.010 C 
ATOM     10  C   LIG A   1      -6.780   0.251 122.625  0.00  0.00    +0.028 C 
ATOM     11  C   LIG A   1      -7.801   1.132 123.439  0.00  0.00    +0.053 C 
ATOM     12  N   LIG A   1      -7.436   2.601 123.189  0.00  0.00    -0.261 N 
ATOM     13  C   LIG A   1      -6.478   2.955 124.193  0.00  0.00    +0.082 A 
ATOM     14  C   LIG A   1      -7.505   3.264 121.974  0.00  0.00    +0.217 C 
ATOM     15  O   LIG A   1      -6.560   3.885 121.479  0.00  0.00    -0.276 OA
ATOM     16  C   LIG A   1      -8.834   3.309 121.273  0.00  0.00    +0.110 C 
ATOM     17  C   LIG A   1      -9.230   0.748 123.003  0.00  0.00    +0.027 C 
ATOM     18  C   LIG A   1      -9.545  -0.740 122.904  0.00  0.00    +0.003 C 
ATOM     19  C   LIG A   1      -8.994  -1.667 123.978  0.00  0.00    +0.008 C 
ATOM     20  C   LIG A   1      -7.036  -2.951 124.941  0.00  0.00    +0.009 C 
ATOM     21  C   LIG A   1      -6.553  -2.868 126.408  0.00  0.00    +0.016 C 
ATOM     22  C   LIG A   1      -7.389  -1.930 127.302  0.00  0.00    +0.085 C 
ATOM     23  N   LIG A   1      -7.921  -0.825 126.537  0.00  0.00    -0.298 NA
ATOM     24  C   LIG A   1      -8.393   0.368 127.196  0.00  0.00    +0.086 C 
ATOM     25  C   LIG A   1      -8.704   1.253 125.981  0.00  0.00    +0.030 C 
ENDROOT
BRANCH   1  26
ATOM     26  O   LIG A   1      -5.559   5.090 123.412  0.00  0.00    -0.505 OA
ATOM     27  H   LIG A   1      -6.007   4.798 122.588  0.00  0.00    +0.292 HD
ENDBRANCH   1  26
TORSDOF 1
ENDMDL
MODEL 5
REMARK VINA RESULT:      -8.0      7.552     10.096
REMARK  Name = NuBBE_2304
REMARK  2 active torsions:
REMARK  status: ('A' for Active; 'I' for Inactive)
REMARK    1  A    between atoms: C_1  and  O_26
REMARK    2  A    between atoms: C_14  and  C_16
REMARK                            x       y       z     vdW  Elec       q    Type
REMARK                         _______ _______ _______ _____ _____    ______ ____
ROOT
ATOM      1  C   LIG A   1      -8.114   5.845 133.952  0.00  0.00    +0.139 A 
ATOM      2  C   LIG A   1      -7.703   5.799 135.287  0.00  0.00    +0.047 A 
ATOM      3  C   LIG A   1      -6.373   5.531 135.612  0.00  0.00    +0.004 A 
ATOM      4  C   LIG A   1      -5.448   5.275 134.602  0.00  0.00    +0.006 A 
ATOM      5  C   LIG A   1      -5.866   5.297 133.270  0.00  0.00    -0.013 A 
ATOM      6  C   LIG A   1      -5.054   4.928 132.031  0.00  0.00    +0.036 C 
ATOM      7  C   LIG A   1      -3.614   5.438 132.058  0.00  0.00    +0.075 C 
ATOM      8  C   LIG A   1      -3.124   6.132 130.773  0.00  0.00    -0.013 C 
ATOM      9  C   LIG A   1      -3.999   7.385 130.587  0.00  0.00    +0.010 C 
ATOM     10  C   LIG A   1      -5.510   7.114 130.746  0.00  0.00    +0.028 C 
ATOM     11  C   LIG A   1      -5.931   5.606 130.917  0.00  0.00    +0.053 C 
ATOM     12  N   LIG A   1      -7.347   5.591 131.509  0.00  0.00    -0.261 N 
ATOM     13  C   LIG A   1      -7.190   5.609 132.932  0.00  0.00    +0.082 A 
ATOM     14  C   LIG A   1      -8.494   6.064 130.891  0.00  0.00    +0.217 C 
ATOM     15  O   LIG A   1      -9.263   6.880 131.407  0.00  0.00    -0.276 OA
ATOM     16  C   LIG A   1      -8.871   5.470 129.562  0.00  0.00    +0.110 C 
ATOM     17  C   LIG A   1      -5.807   4.907 129.547  0.00  0.00    +0.027 C 
ATOM     18  C   LIG A   1      -4.534   5.171 128.752  0.00  0.00    +0.003 C 
ATOM     19  C   LIG A   1      -3.211   5.222 129.503  0.00  0.00    +0.008 C 
ATOM     20  C   LIG A   1      -1.606   6.498 130.988  0.00  0.00    +0.009 C 
ATOM     21  C   LIG A   1      -1.001   5.967 132.308  0.00  0.00    +0.016 C 
ATOM     22  C   LIG A   1      -1.434   4.532 132.675  0.00  0.00    +0.085 C 
ATOM     23  N   LIG A   1      -2.772   4.260 132.203  0.00  0.00    -0.298 NA
ATOM     24  C   LIG A   1      -3.536   3.162 132.745  0.00  0.00    +0.086 C 
ATOM     25  C   LIG A   1      -4.882   3.387 132.045  0.00  0.00    +0.030 C 
ENDROOT
BRANCH   1  26
ATOM     26  O   LIG A   1      -9.435   6.128 133.772  0.00  0.00    -0.505 OA
ATOM     27  H   LIG A   1      -9.907   5.273 133.667  0.00  0.00    +0.292 HD
ENDBRANCH   1  26
TORSDOF 1
ENDMDL
MODEL 6
REMARK VINA RESULT:      -7.8      1.741      2.434
REMARK  Name = NuBBE_2304
REMARK  2 active torsions:
REMARK  status: ('A' for Active; 'I' for Inactive)
REMARK    1  A    between atoms: C_1  and  O_26
REMARK    2  A    between atoms: C_14  and  C_16
REMARK                            x       y       z     vdW  Elec       q    Type
REMARK                         _______ _______ _______ _____ _____    ______ ____
ROOT
ATOM      1  C   LIG A   1      -6.564   3.873 124.061  0.00  0.00    +0.139 A 
ATOM      2  C   LIG A   1      -6.391   3.712 122.684  0.00  0.00    +0.047 A 
ATOM      3  C   LIG A   1      -6.422   2.442 122.108  0.00  0.00    +0.004 A 
ATOM      4  C   LIG A   1      -6.596   1.318 122.910  0.00  0.00    +0.006 A 
ATOM      5  C   LIG A   1      -6.743   1.478 124.290  0.00  0.00    -0.013 A 
ATOM      6  C   LIG A   1      -6.821   0.385 125.354  0.00  0.00    +0.036 C 
ATOM      7  C   LIG A   1      -7.672  -0.816 124.948  0.00  0.00    +0.075 C 
ATOM      8  C   LIG A   1      -8.685  -1.307 126.000  0.00  0.00    -0.013 C 
ATOM      9  C   LIG A   1      -9.681  -0.156 126.224  0.00  0.00    +0.010 C 
ATOM     10  C   LIG A   1      -9.006   1.216 126.437  0.00  0.00    +0.028 C 
ATOM     11  C   LIG A   1      -7.435   1.207 126.545  0.00  0.00    +0.053 C 
ATOM     12  N   LIG A   1      -6.951   2.641 126.287  0.00  0.00    -0.261 N 
ATOM     13  C   LIG A   1      -6.758   2.753 124.872  0.00  0.00    +0.082 A 
ATOM     14  C   LIG A   1      -7.213   3.745 127.082  0.00  0.00    +0.217 C 
ATOM     15  O   LIG A   1      -7.699   4.796 126.655  0.00  0.00    -0.276 OA
ATOM     16  C   LIG A   1      -6.786   3.690 128.523  0.00  0.00    +0.110 C 
ATOM     17  C   LIG A   1      -7.045   0.644 127.927  0.00  0.00    +0.027 C 
ATOM     18  C   LIG A   1      -7.764  -0.621 128.384  0.00  0.00    +0.003 C 
ATOM     19  C   LIG A   1      -8.021  -1.715 127.358  0.00  0.00    +0.008 C 
ATOM     20  C   LIG A   1      -9.387  -2.590 125.414  0.00  0.00    +0.009 C 
ATOM     21  C   LIG A   1      -8.805  -3.076 124.066  0.00  0.00    +0.016 C 
ATOM     22  C   LIG A   1      -7.266  -3.017 123.977  0.00  0.00    +0.085 C 
ATOM     23  N   LIG A   1      -6.745  -1.922 124.762  0.00  0.00    -0.298 NA
ATOM     24  C   LIG A   1      -5.410  -1.424 124.538  0.00  0.00    +0.086 C 
ATOM     25  C   LIG A   1      -5.399  -0.218 125.486  0.00  0.00    +0.030 C 
ENDROOT
BRANCH   1  26
ATOM     26  O   LIG A   1      -6.523   5.165 124.494  0.00  0.00    -0.505 OA
ATOM     27  H   LIG A   1      -6.793   5.735 123.741  0.00  0.00    +0.292 HD
ENDBRANCH   1  26
TORSDOF 1
ENDMDL
MODEL 7
REMARK VINA RESULT:      -7.7      5.703      7.932
REMARK  Name = NuBBE_2304
REMARK  2 active torsions:
REMARK  status: ('A' for Active; 'I' for Inactive)
REMARK    1  A    between atoms: C_1  and  O_26
REMARK    2  A    between atoms: C_14  and  C_16
REMARK                            x       y       z     vdW  Elec       q    Type
REMARK                         _______ _______ _______ _____ _____    ______ ____
ROOT
ATOM      1  C   LIG A   1      -3.461   4.522 127.606  0.00  0.00    +0.139 A 
ATOM      2  C   LIG A   1      -4.108   4.060 126.457  0.00  0.00    +0.047 A 
ATOM      3  C   LIG A   1      -5.474   3.781 126.475  0.00  0.00    +0.004 A 
ATOM      4  C   LIG A   1      -6.199   3.931 127.654  0.00  0.00    +0.006 A 
ATOM      5  C   LIG A   1      -5.546   4.368 128.809  0.00  0.00    -0.013 A 
ATOM      6  C   LIG A   1      -6.119   4.481 130.220  0.00  0.00    +0.036 C 
ATOM      7  C   LIG A   1      -7.539   5.039 130.270  0.00  0.00    +0.075 C 
ATOM      8  C   LIG A   1      -7.788   6.149 131.309  0.00  0.00    -0.013 C 
ATOM      9  C   LIG A   1      -6.895   7.336 130.909  0.00  0.00    +0.010 C 
ATOM     10  C   LIG A   1      -5.437   6.937 130.593  0.00  0.00    +0.028 C 
ATOM     11  C   LIG A   1      -5.053   5.435 130.871  0.00  0.00    +0.053 C 
ATOM     12  N   LIG A   1      -3.769   5.140 130.085  0.00  0.00    -0.261 N 
ATOM     13  C   LIG A   1      -4.183   4.693 128.789  0.00  0.00    +0.082 A 
ATOM     14  C   LIG A   1      -2.529   5.719 130.301  0.00  0.00    +0.217 C 
ATOM     15  O   LIG A   1      -1.868   6.270 129.416  0.00  0.00    -0.276 OA
ATOM     16  C   LIG A   1      -1.915   5.579 131.666  0.00  0.00    +0.110 C 
ATOM     17  C   LIG A   1      -4.925   5.239 132.396  0.00  0.00    +0.027 C 
ATOM     18  C   LIG A   1      -6.032   5.829 133.262  0.00  0.00    +0.003 C 
ATOM     19  C   LIG A   1      -7.470   5.708 132.777  0.00  0.00    +0.008 C 
ATOM     20  C   LIG A   1      -9.319   6.515 131.248  0.00  0.00    +0.009 C 
ATOM     21  C   LIG A   1     -10.155   5.613 130.310  0.00  0.00    +0.016 C 
ATOM     22  C   LIG A   1      -9.795   4.114 130.379  0.00  0.00    +0.085 C 
ATOM     23  N   LIG A   1      -8.392   3.933 130.677  0.00  0.00    -0.298 NA
ATOM     24  C   LIG A   1      -7.740   2.674 130.415  0.00  0.00    +0.086 C 
ATOM     25  C   LIG A   1      -6.288   3.036 130.755  0.00  0.00    +0.030 C 
ENDROOT
BRANCH   1  26
ATOM     26  O   LIG A   1      -2.129   4.768 127.450  0.00  0.00    -0.505 OA
ATOM     27  H   LIG A   1      -1.692   3.909 127.259  0.00  0.00    +0.292 HD
ENDBRANCH   1  26
TORSDOF 1
ENDMDL
MODEL 8
REMARK VINA RESULT:      -7.5      1.567      4.128
REMARK  Name = NuBBE_2304
REMARK  2 active torsions:
REMARK  status: ('A' for Active; 'I' for Inactive)
REMARK    1  A    between atoms: C_1  and  O_26
REMARK    2  A    between atoms: C_14  and  C_16
REMARK                            x       y       z     vdW  Elec       q    Type
REMARK                         _______ _______ _______ _____ _____    ______ ____
ROOT
ATOM      1  C   LIG A   1      -5.960   3.596 124.598  0.00  0.00    +0.139 A 
ATOM      2  C   LIG A   1      -4.882   4.213 125.237  0.00  0.00    +0.047 A 
ATOM      3  C   LIG A   1      -4.330   3.660 126.393  0.00  0.00    +0.004 A 
ATOM      4  C   LIG A   1      -4.874   2.500 126.938  0.00  0.00    +0.006 A 
ATOM      5  C   LIG A   1      -5.969   1.899 126.313  0.00  0.00    -0.013 A 
ATOM      6  C   LIG A   1      -6.787   0.708 126.806  0.00  0.00    +0.036 C 
ATOM      7  C   LIG A   1      -5.946  -0.413 127.414  0.00  0.00    +0.075 C 
ATOM      8  C   LIG A   1      -6.279  -1.838 126.934  0.00  0.00    -0.013 C 
ATOM      9  C   LIG A   1      -5.982  -1.876 125.425  0.00  0.00    +0.010 C 
ATOM     10  C   LIG A   1      -6.573  -0.681 124.646  0.00  0.00    +0.028 C 
ATOM     11  C   LIG A   1      -7.499   0.293 125.467  0.00  0.00    +0.053 C 
ATOM     12  N   LIG A   1      -7.592   1.607 124.680  0.00  0.00    -0.261 N 
ATOM     13  C   LIG A   1      -6.502   2.422 125.127  0.00  0.00    +0.082 A 
ATOM     14  C   LIG A   1      -8.166   1.770 123.430  0.00  0.00    +0.217 C 
ATOM     15  O   LIG A   1      -7.586   2.289 122.472  0.00  0.00    -0.276 OA
ATOM     16  C   LIG A   1      -9.610   1.384 123.265  0.00  0.00    +0.110 C 
ATOM     17  C   LIG A   1      -8.854  -0.406 125.700  0.00  0.00    +0.027 C 
ATOM     18  C   LIG A   1      -8.811  -1.857 126.166  0.00  0.00    +0.003 C 
ATOM     19  C   LIG A   1      -7.766  -2.252 127.200  0.00  0.00    +0.008 C 
ATOM     20  C   LIG A   1      -5.362  -2.833 127.742  0.00  0.00    +0.009 C 
ATOM     21  C   LIG A   1      -4.512  -2.163 128.848  0.00  0.00    +0.016 C 
ATOM     22  C   LIG A   1      -5.259  -1.083 129.658  0.00  0.00    +0.085 C 
ATOM     23  N   LIG A   1      -6.241  -0.409 128.839  0.00  0.00    -0.298 NA
ATOM     24  C   LIG A   1      -6.780   0.868 129.236  0.00  0.00    +0.086 C 
ATOM     25  C   LIG A   1      -7.633   1.205 128.006  0.00  0.00    +0.030 C 
ENDROOT
BRANCH   1  26
ATOM     26  O   LIG A   1      -6.396   4.231 123.474  0.00  0.00    -0.505 OA
ATOM     27  H   LIG A   1      -5.824   5.018 123.340  0.00  0.00    +0.292 HD
ENDBRANCH   1  26
TORSDOF 1
ENDMDL
MODEL 9
REMARK VINA RESULT:      -7.4      3.656      6.372
REMARK  Name = NuBBE_2304
REMARK  2 active torsions:
REMARK  status: ('A' for Active; 'I' for Inactive)
REMARK    1  A    between atoms: C_1  and  O_26
REMARK    2  A    between atoms: C_14  and  C_16
REMARK                            x       y       z     vdW  Elec       q    Type
REMARK                         _______ _______ _______ _____ _____    ______ ____
ROOT
ATOM      1  C   LIG A   1      -7.378  -1.081 131.860  0.00  0.00    +0.139 A 
ATOM      2  C   LIG A   1      -8.195  -0.051 132.333  0.00  0.00    +0.047 A 
ATOM      3  C   LIG A   1      -8.717   0.901 131.458  0.00  0.00    +0.004 A 
ATOM      4  C   LIG A   1      -8.401   0.848 130.103  0.00  0.00    +0.006 A 
ATOM      5  C   LIG A   1      -7.564  -0.167 129.635  0.00  0.00    -0.013 A 
ATOM      6  C   LIG A   1      -6.998  -0.336 128.227  0.00  0.00    +0.036 C 
ATOM      7  C   LIG A   1      -8.000  -0.032 127.115  0.00  0.00    +0.075 C 
ATOM      8  C   LIG A   1      -8.075  -1.069 125.978  0.00  0.00    -0.013 C 
ATOM      9  C   LIG A   1      -8.554  -2.386 126.612  0.00  0.00    +0.010 C 
ATOM     10  C   LIG A   1      -7.795  -2.764 127.903  0.00  0.00    +0.028 C 
ATOM     11  C   LIG A   1      -6.572  -1.848 128.283  0.00  0.00    +0.053 C 
ATOM     12  N   LIG A   1      -6.267  -2.087 129.768  0.00  0.00    -0.261 N 
ATOM     13  C   LIG A   1      -7.070  -1.154 130.500  0.00  0.00    +0.082 A 
ATOM     14  C   LIG A   1      -5.826  -3.274 130.329  0.00  0.00    +0.217 C 
ATOM     15  O   LIG A   1      -6.379  -3.827 131.285  0.00  0.00    -0.276 OA
ATOM     16  C   LIG A   1      -4.546  -3.865 129.807  0.00  0.00    +0.110 C 
ATOM     17  C   LIG A   1      -5.403  -2.178 127.333  0.00  0.00    +0.027 C 
ATOM     18  C   LIG A   1      -5.732  -2.291 125.848  0.00  0.00    +0.003 C 
ATOM     19  C   LIG A   1      -6.708  -1.289 125.247  0.00  0.00    +0.008 C 
ATOM     20  C   LIG A   1      -9.097  -0.522 124.910  0.00  0.00    +0.009 C 
ATOM     21  C   LIG A   1      -9.623   0.904 125.201  0.00  0.00    +0.016 C 
ATOM     22  C   LIG A   1      -8.549   1.887 125.712  0.00  0.00    +0.085 C 
ATOM     23  N   LIG A   1      -7.543   1.197 126.485  0.00  0.00    -0.298 NA
ATOM     24  C   LIG A   1      -6.672   1.923 127.377  0.00  0.00    +0.086 C 
ATOM     25  C   LIG A   1      -5.919   0.761 128.039  0.00  0.00    +0.030 C 
ENDROOT
BRANCH   1  26
ATOM     26  O   LIG A   1      -6.944  -1.949 132.816  0.00  0.00    -0.505 OA
ATOM     27  H   LIG A   1      -6.379  -1.442 133.439  0.00  0.00    +0.292 HD
ENDBRANCH   1  26
TORSDOF 1
ENDMDL
