MODEL 1
REMARK VINA RESULT:      -6.8      0.000      0.000
REMARK  Name = NuBBE_1218
REMARK  13 active torsions:
REMARK  status: ('A' for Active; 'I' for Inactive)
REMARK    1  A    between atoms: C_4  and  C_20
REMARK    2  A    between atoms: C_8  and  O_9
REMARK    3  A    between atoms: O_9  and  C_10
REMARK    4  A    between atoms: C_11  and  O_12
REMARK    5  A    between atoms: O_12  and  C_13
REMARK    6  A    between atoms: C_14  and  O_15
REMARK    7  A    between atoms: O_15  and  C_16
REMARK    8  A    between atoms: C_17  and  O_18
REMARK    9  A    between atoms: O_18  and  C_19
REMARK   10  A    between atoms: C_23  and  O_28
REMARK   11  A    between atoms: C_24  and  O_25
REMARK   12  A    between atoms: O_25  and  C_26
REMARK   13  A    between atoms: O_28  and  C_29
REMARK                            x       y       z     vdW  Elec       q    Type
REMARK                         _______ _______ _______ _____ _____    ______ ____
ROOT
ATOM      1  O   LIG A   1      -5.837   0.118 129.396  0.00  0.00    -0.287 OA
ATOM      2  C   LIG A   1      -6.993   0.521 129.078  0.00  0.00    +0.197 A 
ATOM      3  C   LIG A   1      -7.616   1.551 129.881  0.00  0.00    +0.098 A 
ATOM      4  C   LIG A   1      -8.304   2.450 129.170  0.00  0.00    +0.140 A 
ATOM      5  O   LIG A   1      -8.404   2.379 127.781  0.00  0.00    -0.451 OA
ATOM      6  C   LIG A   1      -8.354   1.117 127.205  0.00  0.00    +0.188 A 
ATOM      7  C   LIG A   1      -7.741   0.058 127.906  0.00  0.00    +0.113 A 
ATOM      8  C   LIG A   1      -7.927  -1.252 127.458  0.00  0.00    +0.180 A 
ATOM      9  C   LIG A   1      -8.679  -1.453 126.245  0.00  0.00    +0.208 A 
ATOM     10  C   LIG A   1      -9.142  -0.352 125.441  0.00  0.00    +0.211 A 
ATOM     11  C   LIG A   1      -8.967   0.949 125.946  0.00  0.00    +0.209 A 
ENDROOT
BRANCH   4  12
ATOM     12  C   LIG A   1      -8.939   3.633 129.784  0.00  0.00    +0.021 A 
ATOM     13  C   LIG A   1     -10.243   3.590 130.275  0.00  0.00    +0.015 A 
ATOM     14  C   LIG A   1     -10.813   4.722 130.867  0.00  0.00    +0.050 A 
ATOM     15  C   LIG A   1     -10.120   5.952 130.961  0.00  0.00    +0.162 A 
ATOM     16  C   LIG A   1      -8.799   6.010 130.475  0.00  0.00    +0.162 A 
ATOM     17  C   LIG A   1      -8.247   4.849 129.885  0.00  0.00    +0.061 A 
BRANCH  16  18
ATOM     18  O   LIG A   1      -7.842   6.996 130.468  0.00  0.00    -0.491 OA
ATOM     19  C   LIG A   1      -6.617   6.800 131.124  0.00  0.00    +0.277 C 
ENDBRANCH  16  18
BRANCH  15  20
ATOM     20  O   LIG A   1     -10.893   6.906 131.582  0.00  0.00    -0.491 OA
ATOM     21  C   LIG A   1     -12.283   6.910 131.307  0.00  0.00    +0.277 C 
ENDBRANCH  15  20
ENDBRANCH   4  12
BRANCH   8  22
ATOM     22  O   LIG A   1      -7.525  -2.409 128.096  0.00  0.00    -0.490 OA
ATOM     23  C   LIG A   1      -8.142  -2.831 129.309  0.00  0.00    +0.277 C 
ENDBRANCH   8  22
BRANCH   9  24
ATOM     24  O   LIG A   1      -8.960  -2.790 125.994  0.00  0.00    -0.488 OA
ATOM     25  C   LIG A   1      -8.140  -3.600 125.155  0.00  0.00    +0.277 C 
ENDBRANCH   9  24
BRANCH  10  26
ATOM     26  O   LIG A   1      -9.706  -0.728 124.256  0.00  0.00    -0.488 OA
ATOM     27  C   LIG A   1      -9.098  -0.734 122.982  0.00  0.00    +0.277 C 
ENDBRANCH  10  26
BRANCH  11  28
ATOM     28  O   LIG A   1      -9.430   2.132 125.423  0.00  0.00    -0.488 OA
ATOM     29  C   LIG A   1      -8.742   2.710 124.325  0.00  0.00    +0.277 C 
ENDBRANCH  11  28
TORSDOF 7
ENDMDL
MODEL 2
REMARK VINA RESULT:      -6.8      2.925      5.289
REMARK  Name = NuBBE_1218
REMARK  13 active torsions:
REMARK  status: ('A' for Active; 'I' for Inactive)
REMARK    1  A    between atoms: C_4  and  C_20
REMARK    2  A    between atoms: C_8  and  O_9
REMARK    3  A    between atoms: O_9  and  C_10
REMARK    4  A    between atoms: C_11  and  O_12
REMARK    5  A    between atoms: O_12  and  C_13
REMARK    6  A    between atoms: C_14  and  O_15
REMARK    7  A    between atoms: O_15  and  C_16
REMARK    8  A    between atoms: C_17  and  O_18
REMARK    9  A    between atoms: O_18  and  C_19
REMARK   10  A    between atoms: C_23  and  O_28
REMARK   11  A    between atoms: C_24  and  O_25
REMARK   12  A    between atoms: O_25  and  C_26
REMARK   13  A    between atoms: O_28  and  C_29
REMARK                            x       y       z     vdW  Elec       q    Type
REMARK                         _______ _______ _______ _____ _____    ______ ____
ROOT
ATOM      1  O   LIG A   1      -6.552   5.191 133.232  0.00  0.00    -0.287 OA
ATOM      2  C   LIG A   1      -7.605   4.783 132.661  0.00  0.00    +0.197 A 
ATOM      3  C   LIG A   1      -8.663   5.733 132.389  0.00  0.00    +0.098 A 
ATOM      4  C   LIG A   1      -9.267   5.548 131.211  0.00  0.00    +0.140 A 
ATOM      5  O   LIG A   1      -8.899   4.522 130.341  0.00  0.00    -0.451 OA
ATOM      6  C   LIG A   1      -8.391   3.361 130.907  0.00  0.00    +0.188 A 
ATOM      7  C   LIG A   1      -7.817   3.411 132.194  0.00  0.00    +0.113 A 
ATOM      8  C   LIG A   1      -7.557   2.215 132.870  0.00  0.00    +0.180 A 
ATOM      9  C   LIG A   1      -7.818   0.976 132.180  0.00  0.00    +0.208 A 
ATOM     10  C   LIG A   1      -8.229   0.942 130.800  0.00  0.00    +0.211 A 
ATOM     11  C   LIG A   1      -8.516   2.165 130.170  0.00  0.00    +0.209 A 
ENDROOT
BRANCH   4  12
ATOM     12  C   LIG A   1     -10.309   6.460 130.700  0.00  0.00    +0.021 A 
ATOM     13  C   LIG A   1     -11.480   6.705 131.413  0.00  0.00    +0.015 A 
ATOM     14  C   LIG A   1     -12.443   7.587 130.912  0.00  0.00    +0.050 A 
ATOM     15  C   LIG A   1     -12.293   8.234 129.661  0.00  0.00    +0.162 A 
ATOM     16  C   LIG A   1     -11.112   8.000 128.930  0.00  0.00    +0.162 A 
ATOM     17  C   LIG A   1     -10.154   7.107 129.464  0.00  0.00    +0.061 A 
BRANCH  16  18
ATOM     18  O   LIG A   1     -10.624   8.501 127.747  0.00  0.00    -0.491 OA
ATOM     19  C   LIG A   1     -10.875   7.834 126.538  0.00  0.00    +0.277 C 
ENDBRANCH  16  18
BRANCH  15  20
ATOM     20  O   LIG A   1     -13.370   9.046 129.395  0.00  0.00    -0.491 OA
ATOM     21  C   LIG A   1     -13.265  10.416 129.739  0.00  0.00    +0.277 C 
ENDBRANCH  15  20
ENDBRANCH   4  12
BRANCH   8  22
ATOM     22  O   LIG A   1      -7.137   2.079 134.178  0.00  0.00    -0.490 OA
ATOM     23  C   LIG A   1      -5.758   2.184 134.522  0.00  0.00    +0.277 C 
ENDBRANCH   8  22
BRANCH   9  24
ATOM     24  O   LIG A   1      -7.702  -0.138 133.000  0.00  0.00    -0.488 OA
ATOM     25  C   LIG A   1      -6.564  -0.995 132.971  0.00  0.00    +0.277 C 
ENDBRANCH   9  24
BRANCH  10  26
ATOM     26  O   LIG A   1      -8.287  -0.314 130.270  0.00  0.00    -0.488 OA
ATOM     27  C   LIG A   1      -7.376  -0.907 129.369  0.00  0.00    +0.277 C 
ENDBRANCH  10  26
BRANCH  11  28
ATOM     28  O   LIG A   1      -9.036   2.373 128.915  0.00  0.00    -0.488 OA
ATOM     29  C   LIG A   1      -8.173   2.277 127.793  0.00  0.00    +0.277 C 
ENDBRANCH  11  28
TORSDOF 7
ENDMDL
MODEL 3
REMARK VINA RESULT:      -6.8      3.451      5.961
REMARK  Name = NuBBE_1218
REMARK  13 active torsions:
REMARK  status: ('A' for Active; 'I' for Inactive)
REMARK    1  A    between atoms: C_4  and  C_20
REMARK    2  A    between atoms: C_8  and  O_9
REMARK    3  A    between atoms: O_9  and  C_10
REMARK    4  A    between atoms: C_11  and  O_12
REMARK    5  A    between atoms: O_12  and  C_13
REMARK    6  A    between atoms: C_14  and  O_15
REMARK    7  A    between atoms: O_15  and  C_16
REMARK    8  A    between atoms: C_17  and  O_18
REMARK    9  A    between atoms: O_18  and  C_19
REMARK   10  A    between atoms: C_23  and  O_28
REMARK   11  A    between atoms: C_24  and  O_25
REMARK   12  A    between atoms: O_25  and  C_26
REMARK   13  A    between atoms: O_28  and  C_29
REMARK                            x       y       z     vdW  Elec       q    Type
REMARK                         _______ _______ _______ _____ _____    ______ ____
ROOT
ATOM      1  O   LIG A   1     -10.287   1.766 131.865  0.00  0.00    -0.287 OA
ATOM      2  C   LIG A   1      -9.746   2.761 131.300  0.00  0.00    +0.197 A 
ATOM      3  C   LIG A   1     -10.596   3.765 130.697  0.00  0.00    +0.098 A 
ATOM      4  C   LIG A   1     -10.160   5.017 130.869  0.00  0.00    +0.140 A 
ATOM      5  O   LIG A   1      -8.987   5.306 131.566  0.00  0.00    -0.451 OA
ATOM      6  C   LIG A   1      -7.978   4.353 131.533  0.00  0.00    +0.188 A 
ATOM      7  C   LIG A   1      -8.303   3.009 131.259  0.00  0.00    +0.113 A 
ATOM      8  C   LIG A   1      -7.276   2.109 130.959  0.00  0.00    +0.180 A 
ATOM      9  C   LIG A   1      -5.917   2.586 131.020  0.00  0.00    +0.208 A 
ATOM     10  C   LIG A   1      -5.592   3.911 131.480  0.00  0.00    +0.211 A 
ATOM     11  C   LIG A   1      -6.654   4.796 131.736  0.00  0.00    +0.209 A 
ENDROOT
BRANCH   4  12
ATOM     12  C   LIG A   1     -10.924   6.195 130.413  0.00  0.00    +0.021 A 
ATOM     13  C   LIG A   1     -12.009   6.687 131.137  0.00  0.00    +0.015 A 
ATOM     14  C   LIG A   1     -12.705   7.815 130.689  0.00  0.00    +0.050 A 
ATOM     15  C   LIG A   1     -12.369   8.477 129.484  0.00  0.00    +0.162 A 
ATOM     16  C   LIG A   1     -11.272   7.995 128.744  0.00  0.00    +0.162 A 
ATOM     17  C   LIG A   1     -10.585   6.855 129.223  0.00  0.00    +0.061 A 
BRANCH  16  18
ATOM     18  O   LIG A   1     -10.649   8.426 127.597  0.00  0.00    -0.491 OA
ATOM     19  C   LIG A   1     -10.919   7.806 126.367  0.00  0.00    +0.277 C 
ENDBRANCH  16  18
BRANCH  15  20
ATOM     20  O   LIG A   1     -13.198   9.553 129.266  0.00  0.00    -0.491 OA
ATOM     21  C   LIG A   1     -13.268  10.547 130.273  0.00  0.00    +0.277 C 
ENDBRANCH  15  20
ENDBRANCH   4  12
BRANCH   8  22
ATOM     22  O   LIG A   1      -7.420   0.804 130.530  0.00  0.00    -0.490 OA
ATOM     23  C   LIG A   1      -7.873   0.510 129.211  0.00  0.00    +0.277 C 
ENDBRANCH   8  22
BRANCH   9  24
ATOM     24  O   LIG A   1      -4.997   1.670 130.527  0.00  0.00    -0.488 OA
ATOM     25  C   LIG A   1      -4.217   0.834 131.379  0.00  0.00    +0.277 C 
ENDBRANCH   9  24
BRANCH  10  26
ATOM     26  O   LIG A   1      -4.254   4.140 131.612  0.00  0.00    -0.488 OA
ATOM     27  C   LIG A   1      -3.388   4.728 130.665  0.00  0.00    +0.277 C 
ENDBRANCH  10  26
BRANCH  11  28
ATOM     28  O   LIG A   1      -6.589   6.129 132.061  0.00  0.00    -0.488 OA
ATOM     29  C   LIG A   1      -6.208   7.059 131.059  0.00  0.00    +0.277 C 
ENDBRANCH  11  28
TORSDOF 7
ENDMDL
MODEL 4
REMARK VINA RESULT:      -6.7      2.908      5.659
REMARK  Name = NuBBE_1218
REMARK  13 active torsions:
REMARK  status: ('A' for Active; 'I' for Inactive)
REMARK    1  A    between atoms: C_4  and  C_20
REMARK    2  A    between atoms: C_8  and  O_9
REMARK    3  A    between atoms: O_9  and  C_10
REMARK    4  A    between atoms: C_11  and  O_12
REMARK    5  A    between atoms: O_12  and  C_13
REMARK    6  A    between atoms: C_14  and  O_15
REMARK    7  A    between atoms: O_15  and  C_16
REMARK    8  A    between atoms: C_17  and  O_18
REMARK    9  A    between atoms: O_18  and  C_19
REMARK   10  A    between atoms: C_23  and  O_28
REMARK   11  A    between atoms: C_24  and  O_25
REMARK   12  A    between atoms: O_25  and  C_26
REMARK   13  A    between atoms: O_28  and  C_29
REMARK                            x       y       z     vdW  Elec       q    Type
REMARK                         _______ _______ _______ _____ _____    ______ ____
ROOT
ATOM      1  O   LIG A   1      -7.305  -3.361 125.944  0.00  0.00    -0.287 OA
ATOM      2  C   LIG A   1      -7.813  -2.485 126.704  0.00  0.00    +0.197 A 
ATOM      3  C   LIG A   1      -7.902  -2.762 128.122  0.00  0.00    +0.098 A 
ATOM      4  C   LIG A   1      -7.644  -1.703 128.897  0.00  0.00    +0.140 A 
ATOM      5  O   LIG A   1      -7.326  -0.453 128.365  0.00  0.00    -0.451 OA
ATOM      6  C   LIG A   1      -7.868  -0.133 127.128  0.00  0.00    +0.188 A 
ATOM      7  C   LIG A   1      -8.273  -1.167 126.259  0.00  0.00    +0.113 A 
ATOM      8  C   LIG A   1      -9.059  -0.853 125.147  0.00  0.00    +0.180 A 
ATOM      9  C   LIG A   1      -9.353   0.536 124.896  0.00  0.00    +0.208 A 
ATOM     10  C   LIG A   1      -8.779   1.594 125.686  0.00  0.00    +0.211 A 
ATOM     11  C   LIG A   1      -8.026   1.234 126.818  0.00  0.00    +0.209 A 
ENDROOT
BRANCH   4  12
ATOM     12  C   LIG A   1      -7.591  -1.789 130.369  0.00  0.00    +0.021 A 
ATOM     13  C   LIG A   1      -7.399  -3.004 131.023  0.00  0.00    +0.015 A 
ATOM     14  C   LIG A   1      -7.336  -3.054 132.420  0.00  0.00    +0.050 A 
ATOM     15  C   LIG A   1      -7.499  -1.899 133.222  0.00  0.00    +0.162 A 
ATOM     16  C   LIG A   1      -7.689  -0.662 132.575  0.00  0.00    +0.162 A 
ATOM     17  C   LIG A   1      -7.744  -0.642 131.162  0.00  0.00    +0.061 A 
BRANCH  16  18
ATOM     18  O   LIG A   1      -7.811   0.629 133.031  0.00  0.00    -0.491 OA
ATOM     19  C   LIG A   1      -8.651   1.538 132.371  0.00  0.00    +0.277 C 
ENDBRANCH  16  18
BRANCH  15  20
ATOM     20  O   LIG A   1      -7.396  -2.209 134.558  0.00  0.00    -0.491 OA
ATOM     21  C   LIG A   1      -8.051  -3.379 135.017  0.00  0.00    +0.277 C 
ENDBRANCH  15  20
ENDBRANCH   4  12
BRANCH   8  22
ATOM     22  O   LIG A   1      -9.659  -1.745 124.280  0.00  0.00    -0.490 OA
ATOM     23  C   LIG A   1      -8.927  -2.337 123.211  0.00  0.00    +0.277 C 
ENDBRANCH   8  22
BRANCH   9  24
ATOM     24  O   LIG A   1     -10.285   0.720 123.883  0.00  0.00    -0.488 OA
ATOM     25  C   LIG A   1      -9.917   1.138 122.571  0.00  0.00    +0.277 C 
ENDBRANCH   9  24
BRANCH  10  26
ATOM     26  O   LIG A   1      -9.048   2.846 125.217  0.00  0.00    -0.488 OA
ATOM     27  C   LIG A   1      -8.118   3.850 124.871  0.00  0.00    +0.277 C 
ENDBRANCH  10  26
BRANCH  11  28
ATOM     28  O   LIG A   1      -7.491   2.057 127.779  0.00  0.00    -0.488 OA
ATOM     29  C   LIG A   1      -8.366   2.709 128.684  0.00  0.00    +0.277 C 
ENDBRANCH  11  28
TORSDOF 7
ENDMDL
MODEL 5
REMARK VINA RESULT:      -6.6      3.576      8.243
REMARK  Name = NuBBE_1218
REMARK  13 active torsions:
REMARK  status: ('A' for Active; 'I' for Inactive)
REMARK    1  A    between atoms: C_4  and  C_20
REMARK    2  A    between atoms: C_8  and  O_9
REMARK    3  A    between atoms: O_9  and  C_10
REMARK    4  A    between atoms: C_11  and  O_12
REMARK    5  A    between atoms: O_12  and  C_13
REMARK    6  A    between atoms: C_14  and  O_15
REMARK    7  A    between atoms: O_15  and  C_16
REMARK    8  A    between atoms: C_17  and  O_18
REMARK    9  A    between atoms: O_18  and  C_19
REMARK   10  A    between atoms: C_23  and  O_28
REMARK   11  A    between atoms: C_24  and  O_25
REMARK   12  A    between atoms: O_25  and  C_26
REMARK   13  A    between atoms: O_28  and  C_29
REMARK                            x       y       z     vdW  Elec       q    Type
REMARK                         _______ _______ _______ _____ _____    ______ ____
ROOT
ATOM      1  O   LIG A   1      -2.531   3.099 126.940  0.00  0.00    -0.287 OA
ATOM      2  C   LIG A   1      -3.662   3.621 126.716  0.00  0.00    +0.197 A 
ATOM      3  C   LIG A   1      -4.074   3.823 125.343  0.00  0.00    +0.098 A 
ATOM      4  C   LIG A   1      -5.370   3.575 125.125  0.00  0.00    +0.140 A 
ATOM      5  O   LIG A   1      -6.229   3.164 126.145  0.00  0.00    -0.451 OA
ATOM      6  C   LIG A   1      -5.943   3.602 127.431  0.00  0.00    +0.188 A 
ATOM      7  C   LIG A   1      -4.627   3.989 127.755  0.00  0.00    +0.113 A 
ATOM      8  C   LIG A   1      -4.395   4.678 128.948  0.00  0.00    +0.180 A 
ATOM      9  C   LIG A   1      -5.511   4.892 129.835  0.00  0.00    +0.208 A 
ATOM     10  C   LIG A   1      -6.811   4.330 129.577  0.00  0.00    +0.211 A 
ATOM     11  C   LIG A   1      -7.012   3.676 128.348  0.00  0.00    +0.209 A 
ENDROOT
BRANCH   4  12
ATOM     12  C   LIG A   1      -5.976   3.631 123.780  0.00  0.00    +0.021 A 
ATOM     13  C   LIG A   1      -5.293   4.175 122.694  0.00  0.00    +0.015 A 
ATOM     14  C   LIG A   1      -5.885   4.200 121.427  0.00  0.00    +0.050 A 
ATOM     15  C   LIG A   1      -7.196   3.718 121.199  0.00  0.00    +0.162 A 
ATOM     16  C   LIG A   1      -7.898   3.161 122.286  0.00  0.00    +0.162 A 
ATOM     17  C   LIG A   1      -7.272   3.145 123.555  0.00  0.00    +0.061 A 
BRANCH  16  18
ATOM     18  O   LIG A   1      -9.127   2.557 122.403  0.00  0.00    -0.491 OA
ATOM     19  C   LIG A   1      -9.481   1.890 123.586  0.00  0.00    +0.277 C 
ENDBRANCH  16  18
BRANCH  15  20
ATOM     20  O   LIG A   1      -7.547   3.853 119.877  0.00  0.00    -0.491 OA
ATOM     21  C   LIG A   1      -6.775   4.730 119.075  0.00  0.00    +0.277 C 
ENDBRANCH  15  20
ENDBRANCH   4  12
BRANCH   8  22
ATOM     22  O   LIG A   1      -3.207   5.254 129.353  0.00  0.00    -0.490 OA
ATOM     23  C   LIG A   1      -2.644   6.355 128.644  0.00  0.00    +0.277 C 
ENDBRANCH   8  22
BRANCH   9  24
ATOM     24  O   LIG A   1      -5.211   5.740 130.893  0.00  0.00    -0.488 OA
ATOM     25  C   LIG A   1      -5.591   7.114 130.905  0.00  0.00    +0.277 C 
ENDBRANCH   9  24
BRANCH  10  26
ATOM     26  O   LIG A   1      -7.705   4.510 130.592  0.00  0.00    -0.488 OA
ATOM     27  C   LIG A   1      -8.158   3.543 131.516  0.00  0.00    +0.277 C 
ENDBRANCH  10  26
BRANCH  11  28
ATOM     28  O   LIG A   1      -8.183   3.176 127.834  0.00  0.00    -0.488 OA
ATOM     29  C   LIG A   1      -8.576   1.858 128.186  0.00  0.00    +0.277 C 
ENDBRANCH  11  28
TORSDOF 7
ENDMDL
MODEL 6
REMARK VINA RESULT:      -6.6      4.469      8.639
REMARK  Name = NuBBE_1218
REMARK  13 active torsions:
REMARK  status: ('A' for Active; 'I' for Inactive)
REMARK    1  A    between atoms: C_4  and  C_20
REMARK    2  A    between atoms: C_8  and  O_9
REMARK    3  A    between atoms: O_9  and  C_10
REMARK    4  A    between atoms: C_11  and  O_12
REMARK    5  A    between atoms: O_12  and  C_13
REMARK    6  A    between atoms: C_14  and  O_15
REMARK    7  A    between atoms: O_15  and  C_16
REMARK    8  A    between atoms: C_17  and  O_18
REMARK    9  A    between atoms: O_18  and  C_19
REMARK   10  A    between atoms: C_23  and  O_28
REMARK   11  A    between atoms: C_24  and  O_25
REMARK   12  A    between atoms: O_25  and  C_26
REMARK   13  A    between atoms: O_28  and  C_29
REMARK                            x       y       z     vdW  Elec       q    Type
REMARK                         _______ _______ _______ _____ _____    ______ ____
ROOT
ATOM      1  O   LIG A   1      -5.611  -5.392 132.399  0.00  0.00    -0.287 OA
ATOM      2  C   LIG A   1      -5.458  -4.407 131.620  0.00  0.00    +0.197 A 
ATOM      3  C   LIG A   1      -6.089  -4.445 130.318  0.00  0.00    +0.098 A 
ATOM      4  C   LIG A   1      -6.595  -3.271 129.926  0.00  0.00    +0.140 A 
ATOM      5  O   LIG A   1      -6.506  -2.124 130.716  0.00  0.00    -0.451 OA
ATOM      6  C   LIG A   1      -5.409  -2.017 131.559  0.00  0.00    +0.188 A 
ATOM      7  C   LIG A   1      -4.727  -3.184 131.962  0.00  0.00    +0.113 A 
ATOM      8  C   LIG A   1      -3.479  -3.064 132.578  0.00  0.00    +0.180 A 
ATOM      9  C   LIG A   1      -2.980  -1.738 132.846  0.00  0.00    +0.208 A 
ATOM     10  C   LIG A   1      -3.769  -0.560 132.596  0.00  0.00    +0.211 A 
ATOM     11  C   LIG A   1      -5.003  -0.722 131.941  0.00  0.00    +0.209 A 
ENDROOT
BRANCH   4  12
ATOM     12  C   LIG A   1      -7.358  -3.112 128.673  0.00  0.00    +0.021 A 
ATOM     13  C   LIG A   1      -8.552  -3.796 128.453  0.00  0.00    +0.015 A 
ATOM     14  C   LIG A   1      -9.263  -3.613 127.263  0.00  0.00    +0.050 A 
ATOM     15  C   LIG A   1      -8.795  -2.768 126.228  0.00  0.00    +0.162 A 
ATOM     16  C   LIG A   1      -7.591  -2.066 126.437  0.00  0.00    +0.162 A 
ATOM     17  C   LIG A   1      -6.896  -2.267 127.652  0.00  0.00    +0.061 A 
BRANCH  16  18
ATOM     18  O   LIG A   1      -6.902  -1.138 125.693  0.00  0.00    -0.491 OA
ATOM     19  C   LIG A   1      -5.565  -0.838 125.996  0.00  0.00    +0.277 C 
ENDBRANCH  16  18
BRANCH  15  20
ATOM     20  O   LIG A   1      -9.669  -2.758 125.167  0.00  0.00    -0.491 OA
ATOM     21  C   LIG A   1      -9.198  -3.232 123.918  0.00  0.00    +0.277 C 
ENDBRANCH  15  20
ENDBRANCH   4  12
BRANCH   8  22
ATOM     22  O   LIG A   1      -2.616  -4.091 132.904  0.00  0.00    -0.490 OA
ATOM     23  C   LIG A   1      -2.779  -4.835 134.108  0.00  0.00    +0.277 C 
ENDBRANCH   8  22
BRANCH   9  24
ATOM     24  O   LIG A   1      -1.663  -1.731 133.286  0.00  0.00    -0.488 OA
ATOM     25  C   LIG A   1      -1.315  -1.544 134.656  0.00  0.00    +0.277 C 
ENDBRANCH   9  24
BRANCH  10  26
ATOM     26  O   LIG A   1      -3.198   0.596 133.044  0.00  0.00    -0.488 OA
ATOM     27  C   LIG A   1      -3.681   1.454 134.056  0.00  0.00    +0.277 C 
ENDBRANCH  10  26
BRANCH  11  28
ATOM     28  O   LIG A   1      -5.860   0.253 131.492  0.00  0.00    -0.488 OA
ATOM     29  C   LIG A   1      -5.414   1.143 130.481  0.00  0.00    +0.277 C 
ENDBRANCH  11  28
TORSDOF 7
ENDMDL
MODEL 7
REMARK VINA RESULT:      -6.5      1.447      2.130
REMARK  Name = NuBBE_1218
REMARK  13 active torsions:
REMARK  status: ('A' for Active; 'I' for Inactive)
REMARK    1  A    between atoms: C_4  and  C_20
REMARK    2  A    between atoms: C_8  and  O_9
REMARK    3  A    between atoms: O_9  and  C_10
REMARK    4  A    between atoms: C_11  and  O_12
REMARK    5  A    between atoms: O_12  and  C_13
REMARK    6  A    between atoms: C_14  and  O_15
REMARK    7  A    between atoms: O_15  and  C_16
REMARK    8  A    between atoms: C_17  and  O_18
REMARK    9  A    between atoms: O_18  and  C_19
REMARK   10  A    between atoms: C_23  and  O_28
REMARK   11  A    between atoms: C_24  and  O_25
REMARK   12  A    between atoms: O_25  and  C_26
REMARK   13  A    between atoms: O_28  and  C_29
REMARK                            x       y       z     vdW  Elec       q    Type
REMARK                         _______ _______ _______ _____ _____    ______ ____
ROOT
ATOM      1  O   LIG A   1      -5.853  -1.082 128.474  0.00  0.00    -0.287 OA
ATOM      2  C   LIG A   1      -6.943  -0.445 128.381  0.00  0.00    +0.197 A 
ATOM      3  C   LIG A   1      -7.329   0.433 129.465  0.00  0.00    +0.098 A 
ATOM      4  C   LIG A   1      -7.899   1.573 129.061  0.00  0.00    +0.140 A 
ATOM      5  O   LIG A   1      -8.097   1.866 127.711  0.00  0.00    -0.451 OA
ATOM      6  C   LIG A   1      -8.298   0.795 126.852  0.00  0.00    +0.188 A 
ATOM      7  C   LIG A   1      -7.830  -0.484 127.216  0.00  0.00    +0.113 A 
ATOM      8  C   LIG A   1      -8.264  -1.599 126.494  0.00  0.00    +0.180 A 
ATOM      9  C   LIG A   1      -9.115  -1.377 125.351  0.00  0.00    +0.208 A 
ATOM     10  C   LIG A   1      -9.434  -0.053 124.882  0.00  0.00    +0.211 A 
ATOM     11  C   LIG A   1      -9.010   1.039 125.659  0.00  0.00    +0.209 A 
ENDROOT
BRANCH   4  12
ATOM     12  C   LIG A   1      -8.284   2.646 129.998  0.00  0.00    +0.021 A 
ATOM     13  C   LIG A   1      -7.386   3.155 130.935  0.00  0.00    +0.015 A 
ATOM     14  C   LIG A   1      -7.774   4.184 131.800  0.00  0.00    +0.050 A 
ATOM     15  C   LIG A   1      -9.083   4.722 131.791  0.00  0.00    +0.162 A 
ATOM     16  C   LIG A   1     -10.001   4.221 130.846  0.00  0.00    +0.162 A 
ATOM     17  C   LIG A   1      -9.580   3.184 129.982  0.00  0.00    +0.061 A 
BRANCH  16  18
ATOM     18  O   LIG A   1     -11.296   4.552 130.526  0.00  0.00    -0.491 OA
ATOM     19  C   LIG A   1     -11.609   5.849 130.090  0.00  0.00    +0.277 C 
ENDBRANCH  16  18
BRANCH  15  20
ATOM     20  O   LIG A   1      -9.212   5.717 132.731  0.00  0.00    -0.491 OA
ATOM     21  C   LIG A   1      -8.311   5.714 133.824  0.00  0.00    +0.277 C 
ENDBRANCH  15  20
ENDBRANCH   4  12
BRANCH   8  22
ATOM     22  O   LIG A   1      -8.024  -2.925 126.796  0.00  0.00    -0.490 OA
ATOM     23  C   LIG A   1      -8.679  -3.558 127.892  0.00  0.00    +0.277 C 
ENDBRANCH   8  22
BRANCH   9  24
ATOM     24  O   LIG A   1      -9.633  -2.551 124.823  0.00  0.00    -0.488 OA
ATOM     25  C   LIG A   1      -9.098  -3.166 123.653  0.00  0.00    +0.277 C 
ENDBRANCH   9  24
BRANCH  10  26
ATOM     26  O   LIG A   1     -10.127  -0.034 123.707  0.00  0.00    -0.488 OA
ATOM     27  C   LIG A   1      -9.760   0.611 122.506  0.00  0.00    +0.277 C 
ENDBRANCH  10  26
BRANCH  11  28
ATOM     28  O   LIG A   1      -9.298   2.370 125.481  0.00  0.00    -0.488 OA
ATOM     29  C   LIG A   1      -8.454   3.146 124.644  0.00  0.00    +0.277 C 
ENDBRANCH  11  28
TORSDOF 7
ENDMDL
MODEL 8
REMARK VINA RESULT:      -6.3      4.948      6.988
REMARK  Name = NuBBE_1218
REMARK  13 active torsions:
REMARK  status: ('A' for Active; 'I' for Inactive)
REMARK    1  A    between atoms: C_4  and  C_20
REMARK    2  A    between atoms: C_8  and  O_9
REMARK    3  A    between atoms: O_9  and  C_10
REMARK    4  A    between atoms: C_11  and  O_12
REMARK    5  A    between atoms: O_12  and  C_13
REMARK    6  A    between atoms: C_14  and  O_15
REMARK    7  A    between atoms: O_15  and  C_16
REMARK    8  A    between atoms: C_17  and  O_18
REMARK    9  A    between atoms: O_18  and  C_19
REMARK   10  A    between atoms: C_23  and  O_28
REMARK   11  A    between atoms: C_24  and  O_25
REMARK   12  A    between atoms: O_25  and  C_26
REMARK   13  A    between atoms: O_28  and  C_29
REMARK                            x       y       z     vdW  Elec       q    Type
REMARK                         _______ _______ _______ _____ _____    ______ ____
ROOT
ATOM      1  O   LIG A   1      -5.041   6.538 131.246  0.00  0.00    -0.287 OA
ATOM      2  C   LIG A   1      -6.170   6.083 131.592  0.00  0.00    +0.197 A 
ATOM      3  C   LIG A   1      -7.357   6.838 131.252  0.00  0.00    +0.098 A 
ATOM      4  C   LIG A   1      -8.392   6.079 130.877  0.00  0.00    +0.140 A 
ATOM      5  O   LIG A   1      -8.314   4.687 130.831  0.00  0.00    -0.451 OA
ATOM      6  C   LIG A   1      -7.451   4.070 131.726  0.00  0.00    +0.188 A 
ATOM      7  C   LIG A   1      -6.376   4.801 132.270  0.00  0.00    +0.113 A 
ATOM      8  C   LIG A   1      -5.679   4.276 133.362  0.00  0.00    +0.180 A 
ATOM      9  C   LIG A   1      -6.047   2.964 133.832  0.00  0.00    +0.208 A 
ATOM     10  C   LIG A   1      -7.022   2.153 133.151  0.00  0.00    +0.211 A 
ATOM     11  C   LIG A   1      -7.726   2.733 132.081  0.00  0.00    +0.209 A 
ENDROOT
BRANCH   4  12
ATOM     12  C   LIG A   1      -9.668   6.651 130.403  0.00  0.00    +0.021 A 
ATOM     13  C   LIG A   1     -10.814   6.638 131.196  0.00  0.00    +0.015 A 
ATOM     14  C   LIG A   1     -12.005   7.202 130.727  0.00  0.00    +0.050 A 
ATOM     15  C   LIG A   1     -12.111   7.771 129.435  0.00  0.00    +0.162 A 
ATOM     16  C   LIG A   1     -10.959   7.797 128.623  0.00  0.00    +0.162 A 
ATOM     17  C   LIG A   1      -9.768   7.223 129.126  0.00  0.00    +0.061 A 
BRANCH  16  18
ATOM     18  O   LIG A   1     -10.697   8.317 127.379  0.00  0.00    -0.491 OA
ATOM     19  C   LIG A   1     -11.018   7.588 126.223  0.00  0.00    +0.277 C 
ENDBRANCH  16  18
BRANCH  15  20
ATOM     20  O   LIG A   1     -13.378   8.256 129.213  0.00  0.00    -0.491 OA
ATOM     21  C   LIG A   1     -13.509   9.618 128.846  0.00  0.00    +0.277 C 
ENDBRANCH  15  20
ENDBRANCH   4  12
BRANCH   8  22
ATOM     22  O   LIG A   1      -4.704   4.913 134.104  0.00  0.00    -0.490 OA
ATOM     23  C   LIG A   1      -5.026   6.013 134.950  0.00  0.00    +0.277 C 
ENDBRANCH   8  22
BRANCH   9  24
ATOM     24  O   LIG A   1      -5.424   2.620 135.025  0.00  0.00    -0.488 OA
ATOM     25  C   LIG A   1      -4.249   1.814 135.070  0.00  0.00    +0.277 C 
ENDBRANCH   9  24
BRANCH  10  26
ATOM     26  O   LIG A   1      -7.137   0.887 133.649  0.00  0.00    -0.488 OA
ATOM     27  C   LIG A   1      -6.967  -0.327 132.949  0.00  0.00    +0.277 C 
ENDBRANCH  10  26
BRANCH  11  28
ATOM     28  O   LIG A   1      -8.775   2.203 131.369  0.00  0.00    -0.488 OA
ATOM     29  C   LIG A   1      -9.993   1.934 132.044  0.00  0.00    +0.277 C 
ENDBRANCH  11  28
TORSDOF 7
ENDMDL
MODEL 9
REMARK VINA RESULT:      -6.3      3.629      6.259
REMARK  Name = NuBBE_1218
REMARK  13 active torsions:
REMARK  status: ('A' for Active; 'I' for Inactive)
REMARK    1  A    between atoms: C_4  and  C_20
REMARK    2  A    between atoms: C_8  and  O_9
REMARK    3  A    between atoms: O_9  and  C_10
REMARK    4  A    between atoms: C_11  and  O_12
REMARK    5  A    between atoms: O_12  and  C_13
REMARK    6  A    between atoms: C_14  and  O_15
REMARK    7  A    between atoms: O_15  and  C_16
REMARK    8  A    between atoms: C_17  and  O_18
REMARK    9  A    between atoms: O_18  and  C_19
REMARK   10  A    between atoms: C_23  and  O_28
REMARK   11  A    between atoms: C_24  and  O_25
REMARK   12  A    between atoms: O_25  and  C_26
REMARK   13  A    between atoms: O_28  and  C_29
REMARK                            x       y       z     vdW  Elec       q    Type
REMARK                         _______ _______ _______ _____ _____    ______ ____
ROOT
ATOM      1  O   LIG A   1      -7.314  -3.398 125.865  0.00  0.00    -0.287 OA
ATOM      2  C   LIG A   1      -7.805  -2.536 126.650  0.00  0.00    +0.197 A 
ATOM      3  C   LIG A   1      -7.883  -2.844 128.062  0.00  0.00    +0.098 A 
ATOM      4  C   LIG A   1      -7.606  -1.807 128.859  0.00  0.00    +0.140 A 
ATOM      5  O   LIG A   1      -7.280  -0.549 128.353  0.00  0.00    -0.451 OA
ATOM      6  C   LIG A   1      -7.831  -0.194 127.130  0.00  0.00    +0.188 A 
ATOM      7  C   LIG A   1      -8.256  -1.203 126.241  0.00  0.00    +0.113 A 
ATOM      8  C   LIG A   1      -9.048  -0.855 125.144  0.00  0.00    +0.180 A 
ATOM      9  C   LIG A   1      -9.330   0.543 124.929  0.00  0.00    +0.208 A 
ATOM     10  C   LIG A   1      -8.737   1.576 125.738  0.00  0.00    +0.211 A 
ATOM     11  C   LIG A   1      -7.977   1.181 126.853  0.00  0.00    +0.209 A 
ENDROOT
BRANCH   4  12
ATOM     12  C   LIG A   1      -7.540  -1.928 130.329  0.00  0.00    +0.021 A 
ATOM     13  C   LIG A   1      -8.085  -0.958 131.167  0.00  0.00    +0.015 A 
ATOM     14  C   LIG A   1      -8.023  -1.108 132.556  0.00  0.00    +0.050 A 
ATOM     15  C   LIG A   1      -7.382  -2.213 133.166  0.00  0.00    +0.162 A 
ATOM     16  C   LIG A   1      -6.829  -3.205 132.332  0.00  0.00    +0.162 A 
ATOM     17  C   LIG A   1      -6.912  -3.029 130.931  0.00  0.00    +0.061 A 
BRANCH  16  18
ATOM     18  O   LIG A   1      -6.212  -4.407 132.582  0.00  0.00    -0.491 OA
ATOM     19  C   LIG A   1      -4.834  -4.456 132.839  0.00  0.00    +0.277 C 
ENDBRANCH  16  18
BRANCH  15  20
ATOM     20  O   LIG A   1      -7.455  -2.129 134.537  0.00  0.00    -0.491 OA
ATOM     21  C   LIG A   1      -6.255  -1.881 135.249  0.00  0.00    +0.277 C 
ENDBRANCH  15  20
ENDBRANCH   4  12
BRANCH   8  22
ATOM     22  O   LIG A   1      -9.667  -1.719 124.263  0.00  0.00    -0.490 OA
ATOM     23  C   LIG A   1      -8.955  -2.285 123.167  0.00  0.00    +0.277 C 
ENDBRANCH   8  22
BRANCH   9  24
ATOM     24  O   LIG A   1     -10.270   0.760 123.930  0.00  0.00    -0.488 OA
ATOM     25  C   LIG A   1      -9.909   1.190 122.620  0.00  0.00    +0.277 C 
ENDBRANCH   9  24
BRANCH  10  26
ATOM     26  O   LIG A   1      -8.998   2.842 125.301  0.00  0.00    -0.488 OA
ATOM     27  C   LIG A   1      -8.096   3.740 124.690  0.00  0.00    +0.277 C 
ENDBRANCH  10  26
BRANCH  11  28
ATOM     28  O   LIG A   1      -7.424   1.976 127.828  0.00  0.00    -0.488 OA
ATOM     29  C   LIG A   1      -6.171   2.594 127.577  0.00  0.00    +0.277 C 
ENDBRANCH  11  28
TORSDOF 7
ENDMDL
