MODEL 1
REMARK VINA RESULT:      -8.5      0.000      0.000
REMARK  Name = NuBBE_1327
REMARK  7 active torsions:
REMARK  status: ('A' for Active; 'I' for Inactive)
REMARK    1  A    between atoms: C_4  and  C_18
REMARK    2  A    between atoms: C_14  and  C_15
REMARK    3  A    between atoms: C_14  and  C_17
REMARK    4  A    between atoms: C_21  and  O_26
REMARK    5  A    between atoms: C_22  and  O_23
REMARK    6  A    between atoms: O_23  and  C_24
REMARK    7  A    between atoms: O_26  and  C_27
REMARK                            x       y       z     vdW  Elec       q    Type
REMARK                         _______ _______ _______ _____ _____    ______ ____
ROOT
ATOM      1  O   LIG A   1      -9.238   3.845 134.373  0.00  0.00    -0.292 OA
ATOM      2  C   LIG A   1      -8.960   4.684 133.527  0.00  0.00    +0.171 C 
ATOM      3  C   LIG A   1     -10.011   5.502 132.826  0.00  0.00    +0.129 C 
ATOM      4  C   LIG A   1      -9.509   5.846 131.432  0.00  0.00    +0.211 C 
ATOM      5  O   LIG A   1      -8.264   6.556 131.492  0.00  0.00    -0.482 OA
ATOM      6  C   LIG A   1      -7.277   5.932 132.205  0.00  0.00    +0.142 A 
ATOM      7  C   LIG A   1      -7.552   4.996 133.203  0.00  0.00    +0.060 A 
ATOM      8  C   LIG A   1      -6.511   4.399 133.917  0.00  0.00    +0.019 A 
ATOM      9  C   LIG A   1      -5.190   4.750 133.634  0.00  0.00    +0.047 A 
ATOM     10  C   LIG A   1      -4.912   5.689 132.639  0.00  0.00    +0.132 A 
ATOM     11  C   LIG A   1      -5.950   6.297 131.926  0.00  0.00    +0.059 A 
ATOM     12  C   LIG A   1      -5.624   7.299 130.915  0.00  0.00    +0.015 C 
ATOM     13  C   LIG A   1      -4.338   7.488 130.607  0.00  0.00    +0.020 C 
ATOM     14  C   LIG A   1      -3.215   6.725 131.268  0.00  0.00    +0.123 C 
ATOM     15  C   LIG A   1      -2.137   7.716 131.721  0.00  0.00    +0.060 C 
ATOM     16  O   LIG A   1      -3.590   5.980 132.447  0.00  0.00    -0.481 OA
ATOM     17  C   LIG A   1      -2.615   5.728 130.271  0.00  0.00    +0.060 C 
ENDROOT
BRANCH   4  18
ATOM     18  C   LIG A   1     -10.489   6.737 130.686  0.00  0.00    -0.003 A 
ATOM     19  C   LIG A   1     -11.737   7.045 131.229  0.00  0.00    +0.011 A 
ATOM     20  C   LIG A   1     -12.631   7.844 130.511  0.00  0.00    +0.050 A 
ATOM     21  C   LIG A   1     -12.309   8.343 129.240  0.00  0.00    +0.162 A 
ATOM     22  C   LIG A   1     -11.048   8.065 128.689  0.00  0.00    +0.162 A 
ATOM     23  C   LIG A   1     -10.157   7.269 129.426  0.00  0.00    +0.056 A 
BRANCH  22  24
ATOM     24  O   LIG A   1     -10.727   8.603 127.470  0.00  0.00    -0.491 OA
ATOM     25  C   LIG A   1     -10.875   7.773 126.322  0.00  0.00    +0.277 C 
ENDBRANCH  22  24
BRANCH  21  26
ATOM     26  O   LIG A   1     -13.299   9.130 128.710  0.00  0.00    -0.491 OA
ATOM     27  C   LIG A   1     -13.440  10.445 129.232  0.00  0.00    +0.277 C 
ENDBRANCH  21  26
ENDBRANCH   4  18
TORSDOF 3
ENDMDL
MODEL 2
REMARK VINA RESULT:      -8.4      8.391      9.970
REMARK  Name = NuBBE_1327
REMARK  7 active torsions:
REMARK  status: ('A' for Active; 'I' for Inactive)
REMARK    1  A    between atoms: C_4  and  C_18
REMARK    2  A    between atoms: C_14  and  C_15
REMARK    3  A    between atoms: C_14  and  C_17
REMARK    4  A    between atoms: C_21  and  O_26
REMARK    5  A    between atoms: C_22  and  O_23
REMARK    6  A    between atoms: O_23  and  C_24
REMARK    7  A    between atoms: O_26  and  C_27
REMARK                            x       y       z     vdW  Elec       q    Type
REMARK                         _______ _______ _______ _____ _____    ______ ____
ROOT
ATOM      1  O   LIG A   1      -9.728  -2.975 124.178  0.00  0.00    -0.292 OA
ATOM      2  C   LIG A   1      -9.062  -2.189 124.839  0.00  0.00    +0.171 C 
ATOM      3  C   LIG A   1      -8.644  -0.843 124.311  0.00  0.00    +0.129 C 
ATOM      4  C   LIG A   1      -7.320  -0.459 124.954  0.00  0.00    +0.211 C 
ATOM      5  O   LIG A   1      -7.427  -0.437 126.384  0.00  0.00    -0.482 OA
ATOM      6  C   LIG A   1      -7.904  -1.590 126.946  0.00  0.00    +0.142 A 
ATOM      7  C   LIG A   1      -8.696  -2.495 126.238  0.00  0.00    +0.060 A 
ATOM      8  C   LIG A   1      -9.175  -3.651 126.860  0.00  0.00    +0.019 A 
ATOM      9  C   LIG A   1      -8.864  -3.893 128.199  0.00  0.00    +0.047 A 
ATOM     10  C   LIG A   1      -8.075  -2.987 128.911  0.00  0.00    +0.132 A 
ATOM     11  C   LIG A   1      -7.599  -1.824 128.297  0.00  0.00    +0.059 A 
ATOM     12  C   LIG A   1      -6.805  -0.884 129.081  0.00  0.00    +0.015 C 
ATOM     13  C   LIG A   1      -6.438  -1.242 130.314  0.00  0.00    +0.020 C 
ATOM     14  C   LIG A   1      -6.822  -2.565 130.932  0.00  0.00    +0.123 C 
ATOM     15  C   LIG A   1      -7.386  -2.316 132.335  0.00  0.00    +0.060 C 
ATOM     16  O   LIG A   1      -7.840  -3.302 130.220  0.00  0.00    -0.481 OA
ATOM     17  C   LIG A   1      -5.587  -3.468 131.023  0.00  0.00    +0.060 C 
ENDROOT
BRANCH   4  18
ATOM     18  C   LIG A   1      -6.869   0.927 124.525  0.00  0.00    -0.003 A 
ATOM     19  C   LIG A   1      -7.111   1.394 123.233  0.00  0.00    +0.011 A 
ATOM     20  C   LIG A   1      -6.662   2.662 122.854  0.00  0.00    +0.050 A 
ATOM     21  C   LIG A   1      -5.956   3.485 123.745  0.00  0.00    +0.162 A 
ATOM     22  C   LIG A   1      -5.725   3.043 125.056  0.00  0.00    +0.162 A 
ATOM     23  C   LIG A   1      -6.191   1.771 125.426  0.00  0.00    +0.056 A 
BRANCH  22  24
ATOM     24  O   LIG A   1      -5.082   3.878 125.932  0.00  0.00    -0.491 OA
ATOM     25  C   LIG A   1      -3.726   3.581 126.254  0.00  0.00    +0.277 C 
ENDBRANCH  22  24
BRANCH  21  26
ATOM     26  O   LIG A   1      -5.627   4.700 123.201  0.00  0.00    -0.491 OA
ATOM     27  C   LIG A   1      -4.841   4.696 122.017  0.00  0.00    +0.277 C 
ENDBRANCH  21  26
ENDBRANCH   4  18
TORSDOF 3
ENDMDL
MODEL 3
REMARK VINA RESULT:      -8.0      2.058      7.600
REMARK  Name = NuBBE_1327
REMARK  7 active torsions:
REMARK  status: ('A' for Active; 'I' for Inactive)
REMARK    1  A    between atoms: C_4  and  C_18
REMARK    2  A    between atoms: C_14  and  C_15
REMARK    3  A    between atoms: C_14  and  C_17
REMARK    4  A    between atoms: C_21  and  O_26
REMARK    5  A    between atoms: C_22  and  O_23
REMARK    6  A    between atoms: O_23  and  C_24
REMARK    7  A    between atoms: O_26  and  C_27
REMARK                            x       y       z     vdW  Elec       q    Type
REMARK                         _______ _______ _______ _____ _____    ______ ____
ROOT
ATOM      1  O   LIG A   1      -8.260   5.191 134.069  0.00  0.00    -0.292 OA
ATOM      2  C   LIG A   1      -8.153   5.377 132.865  0.00  0.00    +0.171 C 
ATOM      3  C   LIG A   1      -6.905   5.024 132.102  0.00  0.00    +0.129 C 
ATOM      4  C   LIG A   1      -6.767   5.981 130.927  0.00  0.00    +0.211 C 
ATOM      5  O   LIG A   1      -7.920   5.925 130.076  0.00  0.00    -0.482 OA
ATOM      6  C   LIG A   1      -9.115   6.129 130.709  0.00  0.00    +0.142 A 
ATOM      7  C   LIG A   1      -9.290   5.894 132.073  0.00  0.00    +0.060 A 
ATOM      8  C   LIG A   1     -10.535   6.099 132.672  0.00  0.00    +0.019 A 
ATOM      9  C   LIG A   1     -11.610   6.533 131.895  0.00  0.00    +0.047 A 
ATOM     10  C   LIG A   1     -11.440   6.765 130.529  0.00  0.00    +0.132 A 
ATOM     11  C   LIG A   1     -10.198   6.554 129.922  0.00  0.00    +0.059 A 
ATOM     12  C   LIG A   1     -10.065   6.775 128.485  0.00  0.00    +0.015 C 
ATOM     13  C   LIG A   1     -11.098   7.313 127.831  0.00  0.00    +0.020 C 
ATOM     14  C   LIG A   1     -12.394   7.686 128.510  0.00  0.00    +0.123 C 
ATOM     15  C   LIG A   1     -13.564   7.120 127.697  0.00  0.00    +0.060 C 
ATOM     16  O   LIG A   1     -12.555   7.171 129.850  0.00  0.00    -0.481 OA
ATOM     17  C   LIG A   1     -12.511   9.212 128.592  0.00  0.00    +0.060 C 
ENDROOT
BRANCH   4  18
ATOM     18  C   LIG A   1      -5.564   5.639 130.063  0.00  0.00    -0.003 A 
ATOM     19  C   LIG A   1      -5.676   4.750 128.994  0.00  0.00    +0.011 A 
ATOM     20  C   LIG A   1      -4.550   4.430 128.232  0.00  0.00    +0.050 A 
ATOM     21  C   LIG A   1      -3.290   4.978 128.521  0.00  0.00    +0.162 A 
ATOM     22  C   LIG A   1      -3.163   5.895 129.576  0.00  0.00    +0.162 A 
ATOM     23  C   LIG A   1      -4.306   6.214 130.327  0.00  0.00    +0.056 A 
BRANCH  22  24
ATOM     24  O   LIG A   1      -1.939   6.463 129.814  0.00  0.00    -0.491 OA
ATOM     25  C   LIG A   1      -1.502   6.549 131.167  0.00  0.00    +0.277 C 
ENDBRANCH  22  24
BRANCH  21  26
ATOM     26  O   LIG A   1      -2.317   4.571 127.645  0.00  0.00    -0.491 OA
ATOM     27  C   LIG A   1      -2.660   3.550 126.716  0.00  0.00    +0.277 C 
ENDBRANCH  21  26
ENDBRANCH   4  18
TORSDOF 3
ENDMDL
MODEL 4
REMARK VINA RESULT:      -8.0      2.017      7.311
REMARK  Name = NuBBE_1327
REMARK  7 active torsions:
REMARK  status: ('A' for Active; 'I' for Inactive)
REMARK    1  A    between atoms: C_4  and  C_18
REMARK    2  A    between atoms: C_14  and  C_15
REMARK    3  A    between atoms: C_14  and  C_17
REMARK    4  A    between atoms: C_21  and  O_26
REMARK    5  A    between atoms: C_22  and  O_23
REMARK    6  A    between atoms: O_23  and  C_24
REMARK    7  A    between atoms: O_26  and  C_27
REMARK                            x       y       z     vdW  Elec       q    Type
REMARK                         _______ _______ _______ _____ _____    ______ ____
ROOT
ATOM      1  O   LIG A   1      -7.788   1.704 132.261  0.00  0.00    -0.292 OA
ATOM      2  C   LIG A   1      -7.708   2.878 131.925  0.00  0.00    +0.171 C 
ATOM      3  C   LIG A   1      -6.421   3.654 132.008  0.00  0.00    +0.129 C 
ATOM      4  C   LIG A   1      -6.752   5.118 132.257  0.00  0.00    +0.211 C 
ATOM      5  O   LIG A   1      -7.598   5.639 131.223  0.00  0.00    -0.482 OA
ATOM      6  C   LIG A   1      -8.747   4.929 131.004  0.00  0.00    +0.142 A 
ATOM      7  C   LIG A   1      -8.869   3.580 131.339  0.00  0.00    +0.060 A 
ATOM      8  C   LIG A   1     -10.056   2.892 131.079  0.00  0.00    +0.019 A 
ATOM      9  C   LIG A   1     -11.122   3.559 130.473  0.00  0.00    +0.047 A 
ATOM     10  C   LIG A   1     -11.002   4.908 130.132  0.00  0.00    +0.132 A 
ATOM     11  C   LIG A   1      -9.813   5.601 130.382  0.00  0.00    +0.059 A 
ATOM     12  C   LIG A   1      -9.712   7.001 129.983  0.00  0.00    +0.015 C 
ATOM     13  C   LIG A   1     -10.811   7.609 129.529  0.00  0.00    +0.020 C 
ATOM     14  C   LIG A   1     -12.141   6.907 129.398  0.00  0.00    +0.123 C 
ATOM     15  C   LIG A   1     -12.717   7.185 128.005  0.00  0.00    +0.060 C 
ATOM     16  O   LIG A   1     -12.092   5.470 129.527  0.00  0.00    -0.481 OA
ATOM     17  C   LIG A   1     -13.105   7.428 130.470  0.00  0.00    +0.060 C 
ENDROOT
BRANCH   4  18
ATOM     18  C   LIG A   1      -5.501   5.980 132.279  0.00  0.00    -0.003 A 
ATOM     19  C   LIG A   1      -4.701   6.057 133.419  0.00  0.00    +0.011 A 
ATOM     20  C   LIG A   1      -3.571   6.879 133.423  0.00  0.00    +0.050 A 
ATOM     21  C   LIG A   1      -3.219   7.647 132.302  0.00  0.00    +0.162 A 
ATOM     22  C   LIG A   1      -3.998   7.563 131.138  0.00  0.00    +0.162 A 
ATOM     23  C   LIG A   1      -5.125   6.725 131.145  0.00  0.00    +0.056 A 
BRANCH  22  24
ATOM     24  O   LIG A   1      -3.613   8.277 130.033  0.00  0.00    -0.491 OA
ATOM     25  C   LIG A   1      -3.421   7.559 128.817  0.00  0.00    +0.277 C 
ENDBRANCH  22  24
BRANCH  21  26
ATOM     26  O   LIG A   1      -2.065   8.363 132.487  0.00  0.00    -0.491 OA
ATOM     27  C   LIG A   1      -0.903   7.641 132.874  0.00  0.00    +0.277 C 
ENDBRANCH  21  26
ENDBRANCH   4  18
TORSDOF 3
ENDMDL
MODEL 5
REMARK VINA RESULT:      -7.9      3.122      7.415
REMARK  Name = NuBBE_1327
REMARK  7 active torsions:
REMARK  status: ('A' for Active; 'I' for Inactive)
REMARK    1  A    between atoms: C_4  and  C_18
REMARK    2  A    between atoms: C_14  and  C_15
REMARK    3  A    between atoms: C_14  and  C_17
REMARK    4  A    between atoms: C_21  and  O_26
REMARK    5  A    between atoms: C_22  and  O_23
REMARK    6  A    between atoms: O_23  and  C_24
REMARK    7  A    between atoms: O_26  and  C_27
REMARK                            x       y       z     vdW  Elec       q    Type
REMARK                         _______ _______ _______ _____ _____    ______ ____
ROOT
ATOM      1  O   LIG A   1      -7.379   4.643 133.632  0.00  0.00    -0.292 OA
ATOM      2  C   LIG A   1      -7.487   4.836 132.429  0.00  0.00    +0.171 C 
ATOM      3  C   LIG A   1      -6.442   4.387 131.443  0.00  0.00    +0.129 C 
ATOM      4  C   LIG A   1      -6.448   5.345 130.260  0.00  0.00    +0.211 C 
ATOM      5  O   LIG A   1      -7.742   5.398 129.645  0.00  0.00    -0.482 OA
ATOM      6  C   LIG A   1      -8.774   5.694 130.494  0.00  0.00    +0.142 A 
ATOM      7  C   LIG A   1      -8.705   5.458 131.867  0.00  0.00    +0.060 A 
ATOM      8  C   LIG A   1      -9.791   5.760 132.692  0.00  0.00    +0.019 A 
ATOM      9  C   LIG A   1     -10.953   6.295 132.133  0.00  0.00    +0.047 A 
ATOM     10  C   LIG A   1     -11.027   6.529 130.758  0.00  0.00    +0.132 A 
ATOM     11  C   LIG A   1      -9.946   6.221 129.926  0.00  0.00    +0.059 A 
ATOM     12  C   LIG A   1     -10.070   6.448 128.490  0.00  0.00    +0.015 C 
ATOM     13  C   LIG A   1     -11.158   7.082 128.043  0.00  0.00    +0.020 C 
ATOM     14  C   LIG A   1     -12.264   7.555 128.956  0.00  0.00    +0.123 C 
ATOM     15  C   LIG A   1     -13.612   7.101 128.383  0.00  0.00    +0.060 C 
ATOM     16  O   LIG A   1     -12.212   7.038 130.303  0.00  0.00    -0.481 OA
ATOM     17  C   LIG A   1     -12.232   9.084 129.053  0.00  0.00    +0.060 C 
ENDROOT
BRANCH   4  18
ATOM     18  C   LIG A   1      -5.466   4.913 129.184  0.00  0.00    -0.003 A 
ATOM     19  C   LIG A   1      -4.090   5.049 129.369  0.00  0.00    +0.011 A 
ATOM     20  C   LIG A   1      -3.209   4.671 128.353  0.00  0.00    +0.050 A 
ATOM     21  C   LIG A   1      -3.675   4.159 127.132  0.00  0.00    +0.162 A 
ATOM     22  C   LIG A   1      -5.055   3.991 126.937  0.00  0.00    +0.162 A 
ATOM     23  C   LIG A   1      -5.927   4.366 127.971  0.00  0.00    +0.056 A 
BRANCH  22  24
ATOM     24  O   LIG A   1      -5.493   3.440 125.762  0.00  0.00    -0.491 OA
ATOM     25  C   LIG A   1      -5.806   4.329 124.693  0.00  0.00    +0.277 C 
ENDBRANCH  22  24
BRANCH  21  26
ATOM     26  O   LIG A   1      -2.661   3.816 126.276  0.00  0.00    -0.491 OA
ATOM     27  C   LIG A   1      -1.630   2.980 126.785  0.00  0.00    +0.277 C 
ENDBRANCH  21  26
ENDBRANCH   4  18
TORSDOF 3
ENDMDL
MODEL 6
REMARK VINA RESULT:      -7.7      2.173      7.653
REMARK  Name = NuBBE_1327
REMARK  7 active torsions:
REMARK  status: ('A' for Active; 'I' for Inactive)
REMARK    1  A    between atoms: C_4  and  C_18
REMARK    2  A    between atoms: C_14  and  C_15
REMARK    3  A    between atoms: C_14  and  C_17
REMARK    4  A    between atoms: C_21  and  O_26
REMARK    5  A    between atoms: C_22  and  O_23
REMARK    6  A    between atoms: O_23  and  C_24
REMARK    7  A    between atoms: O_26  and  C_27
REMARK                            x       y       z     vdW  Elec       q    Type
REMARK                         _______ _______ _______ _____ _____    ______ ____
ROOT
ATOM      1  O   LIG A   1      -7.274   1.725 132.199  0.00  0.00    -0.292 OA
ATOM      2  C   LIG A   1      -7.254   2.919 131.930  0.00  0.00    +0.171 C 
ATOM      3  C   LIG A   1      -6.010   3.754 132.061  0.00  0.00    +0.129 C 
ATOM      4  C   LIG A   1      -6.417   5.183 132.390  0.00  0.00    +0.211 C 
ATOM      5  O   LIG A   1      -7.287   5.717 131.382  0.00  0.00    -0.482 OA
ATOM      6  C   LIG A   1      -8.397   4.962 131.119  0.00  0.00    +0.142 A 
ATOM      7  C   LIG A   1      -8.449   3.591 131.378  0.00  0.00    +0.060 A 
ATOM      8  C   LIG A   1      -9.599   2.858 131.074  0.00  0.00    +0.019 A 
ATOM      9  C   LIG A   1     -10.696   3.503 130.501  0.00  0.00    +0.047 A 
ATOM     10  C   LIG A   1     -10.646   4.873 130.237  0.00  0.00    +0.132 A 
ATOM     11  C   LIG A   1      -9.495   5.611 130.531  0.00  0.00    +0.059 A 
ATOM     12  C   LIG A   1      -9.466   7.035 130.211  0.00  0.00    +0.015 C 
ATOM     13  C   LIG A   1     -10.594   7.609 129.786  0.00  0.00    +0.020 C 
ATOM     14  C   LIG A   1     -11.886   6.848 129.610  0.00  0.00    +0.123 C 
ATOM     15  C   LIG A   1     -12.473   7.173 128.231  0.00  0.00    +0.060 C 
ATOM     16  O   LIG A   1     -11.763   5.410 129.659  0.00  0.00    -0.481 OA
ATOM     17  C   LIG A   1     -12.878   7.258 130.704  0.00  0.00    +0.060 C 
ENDROOT
BRANCH   4  18
ATOM     18  C   LIG A   1      -5.212   6.106 132.465  0.00  0.00    -0.003 A 
ATOM     19  C   LIG A   1      -4.821   6.870 131.366  0.00  0.00    +0.011 A 
ATOM     20  C   LIG A   1      -3.694   7.691 131.452  0.00  0.00    +0.050 A 
ATOM     21  C   LIG A   1      -2.927   7.761 132.625  0.00  0.00    +0.162 A 
ATOM     22  C   LIG A   1      -3.320   7.020 133.750  0.00  0.00    +0.162 A 
ATOM     23  C   LIG A   1      -4.461   6.208 133.652  0.00  0.00    +0.056 A 
BRANCH  22  24
ATOM     24  O   LIG A   1      -2.594   7.140 134.907  0.00  0.00    -0.491 OA
ATOM     25  C   LIG A   1      -2.898   6.245 135.973  0.00  0.00    +0.277 C 
ENDBRANCH  22  24
BRANCH  21  26
ATOM     26  O   LIG A   1      -1.881   8.642 132.527  0.00  0.00    -0.491 OA
ATOM     27  C   LIG A   1      -2.137  10.001 132.857  0.00  0.00    +0.277 C 
ENDBRANCH  21  26
ENDBRANCH   4  18
TORSDOF 3
ENDMDL
MODEL 7
REMARK VINA RESULT:      -7.5      8.726     11.900
REMARK  Name = NuBBE_1327
REMARK  7 active torsions:
REMARK  status: ('A' for Active; 'I' for Inactive)
REMARK    1  A    between atoms: C_4  and  C_18
REMARK    2  A    between atoms: C_14  and  C_15
REMARK    3  A    between atoms: C_14  and  C_17
REMARK    4  A    between atoms: C_21  and  O_26
REMARK    5  A    between atoms: C_22  and  O_23
REMARK    6  A    between atoms: O_23  and  C_24
REMARK    7  A    between atoms: O_26  and  C_27
REMARK                            x       y       z     vdW  Elec       q    Type
REMARK                         _______ _______ _______ _____ _____    ______ ____
ROOT
ATOM      1  O   LIG A   1      -7.863   1.913 129.687  0.00  0.00    -0.292 OA
ATOM      2  C   LIG A   1      -7.612   0.758 129.374  0.00  0.00    +0.171 C 
ATOM      3  C   LIG A   1      -7.002  -0.225 130.337  0.00  0.00    +0.129 C 
ATOM      4  C   LIG A   1      -6.164  -1.221 129.548  0.00  0.00    +0.211 C 
ATOM      5  O   LIG A   1      -6.956  -1.896 128.561  0.00  0.00    -0.482 OA
ATOM      6  C   LIG A   1      -7.635  -1.074 127.705  0.00  0.00    +0.142 A 
ATOM      7  C   LIG A   1      -7.973   0.239 128.037  0.00  0.00    +0.060 A 
ATOM      8  C   LIG A   1      -8.685   1.036 127.136  0.00  0.00    +0.019 A 
ATOM      9  C   LIG A   1      -9.065   0.508 125.901  0.00  0.00    +0.047 A 
ATOM     10  C   LIG A   1      -8.732  -0.807 125.568  0.00  0.00    +0.132 A 
ATOM     11  C   LIG A   1      -8.028  -1.612 126.468  0.00  0.00    +0.059 A 
ATOM     12  C   LIG A   1      -7.726  -2.991 126.099  0.00  0.00    +0.015 C 
ATOM     13  C   LIG A   1      -8.005  -3.386 124.854  0.00  0.00    +0.020 C 
ATOM     14  C   LIG A   1      -8.630  -2.475 123.825  0.00  0.00    +0.123 C 
ATOM     15  C   LIG A   1      -9.809  -3.200 123.167  0.00  0.00    +0.060 C 
ATOM     16  O   LIG A   1      -9.164  -1.238 124.344  0.00  0.00    -0.481 OA
ATOM     17  C   LIG A   1      -7.588  -2.110 122.761  0.00  0.00    +0.060 C 
ENDROOT
BRANCH   4  18
ATOM     18  C   LIG A   1      -5.573  -2.293 130.448  0.00  0.00    -0.003 A 
ATOM     19  C   LIG A   1      -6.132  -3.570 130.508  0.00  0.00    +0.011 A 
ATOM     20  C   LIG A   1      -5.587  -4.530 131.364  0.00  0.00    +0.050 A 
ATOM     21  C   LIG A   1      -4.485  -4.240 132.184  0.00  0.00    +0.162 A 
ATOM     22  C   LIG A   1      -3.894  -2.969 132.119  0.00  0.00    +0.162 A 
ATOM     23  C   LIG A   1      -4.446  -2.018 131.246  0.00  0.00    +0.056 A 
BRANCH  22  24
ATOM     24  O   LIG A   1      -2.786  -2.716 132.885  0.00  0.00    -0.491 OA
ATOM     25  C   LIG A   1      -2.652  -1.411 133.441  0.00  0.00    +0.277 C 
ENDBRANCH  22  24
BRANCH  21  26
ATOM     26  O   LIG A   1      -4.077  -5.317 132.928  0.00  0.00    -0.491 OA
ATOM     27  C   LIG A   1      -4.662  -5.483 134.213  0.00  0.00    +0.277 C 
ENDBRANCH  21  26
ENDBRANCH   4  18
TORSDOF 3
ENDMDL
MODEL 8
REMARK VINA RESULT:      -7.5      8.588     11.184
REMARK  Name = NuBBE_1327
REMARK  7 active torsions:
REMARK  status: ('A' for Active; 'I' for Inactive)
REMARK    1  A    between atoms: C_4  and  C_18
REMARK    2  A    between atoms: C_14  and  C_15
REMARK    3  A    between atoms: C_14  and  C_17
REMARK    4  A    between atoms: C_21  and  O_26
REMARK    5  A    between atoms: C_22  and  O_23
REMARK    6  A    between atoms: O_23  and  C_24
REMARK    7  A    between atoms: O_26  and  C_27
REMARK                            x       y       z     vdW  Elec       q    Type
REMARK                         _______ _______ _______ _____ _____    ______ ____
ROOT
ATOM      1  O   LIG A   1      -9.804  -2.949 124.425  0.00  0.00    -0.292 OA
ATOM      2  C   LIG A   1      -8.956  -2.366 125.086  0.00  0.00    +0.171 C 
ATOM      3  C   LIG A   1      -8.222  -3.029 126.221  0.00  0.00    +0.129 C 
ATOM      4  C   LIG A   1      -7.856  -1.967 127.248  0.00  0.00    +0.211 C 
ATOM      5  O   LIG A   1      -7.058  -0.931 126.658  0.00  0.00    -0.482 OA
ATOM      6  C   LIG A   1      -7.602  -0.343 125.550  0.00  0.00    +0.142 A 
ATOM      7  C   LIG A   1      -8.546  -0.987 124.748  0.00  0.00    +0.060 A 
ATOM      8  C   LIG A   1      -9.061  -0.353 123.614  0.00  0.00    +0.019 A 
ATOM      9  C   LIG A   1      -8.619   0.929 123.281  0.00  0.00    +0.047 A 
ATOM     10  C   LIG A   1      -7.671   1.574 124.079  0.00  0.00    +0.132 A 
ATOM     11  C   LIG A   1      -7.146   0.941 125.210  0.00  0.00    +0.059 A 
ATOM     12  C   LIG A   1      -6.133   1.632 126.002  0.00  0.00    +0.015 C 
ATOM     13  C   LIG A   1      -5.855   2.903 125.700  0.00  0.00    +0.020 C 
ATOM     14  C   LIG A   1      -6.530   3.644 124.570  0.00  0.00    +0.123 C 
ATOM     15  C   LIG A   1      -5.460   4.336 123.718  0.00  0.00    +0.060 C 
ATOM     16  O   LIG A   1      -7.289   2.818 123.661  0.00  0.00    -0.481 OA
ATOM     17  C   LIG A   1      -7.491   4.691 125.144  0.00  0.00    +0.060 C 
ENDROOT
BRANCH   4  18
ATOM     18  C   LIG A   1      -7.044  -2.550 128.393  0.00  0.00    -0.003 A 
ATOM     19  C   LIG A   1      -7.666  -3.216 129.449  0.00  0.00    +0.011 A 
ATOM     20  C   LIG A   1      -6.901  -3.719 130.504  0.00  0.00    +0.050 A 
ATOM     21  C   LIG A   1      -5.506  -3.562 130.537  0.00  0.00    +0.162 A 
ATOM     22  C   LIG A   1      -4.860  -2.917 129.471  0.00  0.00    +0.162 A 
ATOM     23  C   LIG A   1      -5.642  -2.426 128.413  0.00  0.00    +0.056 A 
BRANCH  22  24
ATOM     24  O   LIG A   1      -3.493  -2.818 129.489  0.00  0.00    -0.491 OA
ATOM     25  C   LIG A   1      -2.746  -3.885 128.911  0.00  0.00    +0.277 C 
ENDBRANCH  22  24
BRANCH  21  26
ATOM     26  O   LIG A   1      -4.929  -4.149 131.633  0.00  0.00    -0.491 OA
ATOM     27  C   LIG A   1      -4.963  -3.425 132.856  0.00  0.00    +0.277 C 
ENDBRANCH  21  26
ENDBRANCH   4  18
TORSDOF 3
ENDMDL
MODEL 9
REMARK VINA RESULT:      -7.5      5.811      7.969
REMARK  Name = NuBBE_1327
REMARK  7 active torsions:
REMARK  status: ('A' for Active; 'I' for Inactive)
REMARK    1  A    between atoms: C_4  and  C_18
REMARK    2  A    between atoms: C_14  and  C_15
REMARK    3  A    between atoms: C_14  and  C_17
REMARK    4  A    between atoms: C_21  and  O_26
REMARK    5  A    between atoms: C_22  and  O_23
REMARK    6  A    between atoms: O_23  and  C_24
REMARK    7  A    between atoms: O_26  and  C_27
REMARK                            x       y       z     vdW  Elec       q    Type
REMARK                         _______ _______ _______ _____ _____    ______ ____
ROOT
ATOM      1  O   LIG A   1      -6.443   0.677 134.178  0.00  0.00    -0.292 OA
ATOM      2  C   LIG A   1      -7.095   0.867 133.160  0.00  0.00    +0.171 C 
ATOM      3  C   LIG A   1      -7.251  -0.183 132.094  0.00  0.00    +0.129 C 
ATOM      4  C   LIG A   1      -7.417   0.510 130.750  0.00  0.00    +0.211 C 
ATOM      5  O   LIG A   1      -8.544   1.398 130.762  0.00  0.00    -0.482 OA
ATOM      6  C   LIG A   1      -8.539   2.323 131.770  0.00  0.00    +0.142 A 
ATOM      7  C   LIG A   1      -7.838   2.129 132.961  0.00  0.00    +0.060 A 
ATOM      8  C   LIG A   1      -7.878   3.095 133.970  0.00  0.00    +0.019 A 
ATOM      9  C   LIG A   1      -8.632   4.255 133.784  0.00  0.00    +0.047 A 
ATOM     10  C   LIG A   1      -9.338   4.450 132.595  0.00  0.00    +0.132 A 
ATOM     11  C   LIG A   1      -9.309   3.483 131.585  0.00  0.00    +0.059 A 
ATOM     12  C   LIG A   1     -10.085   3.706 130.369  0.00  0.00    +0.015 C 
ATOM     13  C   LIG A   1     -10.676   4.892 130.206  0.00  0.00    +0.020 C 
ATOM     14  C   LIG A   1     -10.586   6.001 131.227  0.00  0.00    +0.123 C 
ATOM     15  C   LIG A   1     -11.994   6.546 131.496  0.00  0.00    +0.060 C 
ATOM     16  O   LIG A   1     -10.060   5.608 132.514  0.00  0.00    -0.481 OA
ATOM     17  C   LIG A   1      -9.690   7.123 130.692  0.00  0.00    +0.060 C 
ENDROOT
BRANCH   4  18
ATOM     18  C   LIG A   1      -7.655  -0.488 129.629  0.00  0.00    -0.003 A 
ATOM     19  C   LIG A   1      -7.942  -1.825 129.905  0.00  0.00    +0.011 A 
ATOM     20  C   LIG A   1      -8.130  -2.729 128.857  0.00  0.00    +0.050 A 
ATOM     21  C   LIG A   1      -8.026  -2.327 127.516  0.00  0.00    +0.162 A 
ATOM     22  C   LIG A   1      -7.764  -0.981 127.218  0.00  0.00    +0.162 A 
ATOM     23  C   LIG A   1      -7.588  -0.082 128.282  0.00  0.00    +0.056 A 
BRANCH  22  24
ATOM     24  O   LIG A   1      -7.719  -0.592 125.905  0.00  0.00    -0.491 OA
ATOM     25  C   LIG A   1      -6.447  -0.584 125.261  0.00  0.00    +0.277 C 
ENDBRANCH  22  24
BRANCH  21  26
ATOM     26  O   LIG A   1      -8.273  -3.347 126.633  0.00  0.00    -0.491 OA
ATOM     27  C   LIG A   1      -9.500  -3.308 125.916  0.00  0.00    +0.277 C 
ENDBRANCH  21  26
ENDBRANCH   4  18
TORSDOF 3
ENDMDL
