MODEL 1
REMARK VINA RESULT:      -8.8      0.000      0.000
REMARK  Name = NuBBE_622
REMARK  1 active torsions:
REMARK  status: ('A' for Active; 'I' for Inactive)
REMARK    1  A    between atoms: C_1  and  C_2
REMARK                            x       y       z     vdW  Elec       q    Type
REMARK                         _______ _______ _______ _____ _____    ______ ____
ROOT
ATOM      1  C   LIG A   1      -8.535   5.965 133.416  0.00  0.00    +0.052 C 
ATOM      2  C   LIG A   1      -8.026   5.959 132.005  0.00  0.00    +0.041 C 
ATOM      3  C   LIG A   1      -8.627   6.328 130.844  0.00  0.00    +0.020 C 
ATOM      4  C   LIG A   1      -9.949   6.955 130.673  0.00  0.00    +0.067 A 
ATOM      5  C   LIG A   1     -10.529   7.599 129.584  0.00  0.00    +0.150 A 
ATOM      6  C   LIG A   1     -11.892   7.942 129.609  0.00  0.00    +0.018 A 
ATOM      7  C   LIG A   1     -12.635   7.670 130.760  0.00  0.00    +0.015 A 
ATOM      8  C   LIG A   1     -12.143   6.682 131.609  0.00  0.00    +0.047 A 
ATOM      9  C   LIG A   1     -10.890   6.175 131.312  0.00  0.00    +0.132 A 
ATOM     10  O   LIG A   1     -10.660   4.793 131.280  0.00  0.00    -0.487 OA
ATOM     11  C   LIG A   1      -9.840   4.410 130.071  0.00  0.00    +0.278 C 
ATOM     12  C   LIG A   1      -8.488   5.195 129.908  0.00  0.00    +0.245 C 
ATOM     13  O   LIG A   1      -7.382   4.442 130.405  0.00  0.00    -0.450 OA
ATOM     14  C   LIG A   1      -7.116   4.839 131.659  0.00  0.00    +0.336 C 
ATOM     15  O   LIG A   1      -6.319   4.305 132.430  0.00  0.00    -0.245 OA
ATOM     16  C   LIG A   1     -12.589   8.211 128.357  0.00  0.00    +0.018 A 
ATOM     17  C   LIG A   1     -12.014   7.801 127.221  0.00  0.00    +0.092 A 
ATOM     18  C   LIG A   1     -10.639   7.262 127.205  0.00  0.00    +0.337 A 
ATOM     19  O   LIG A   1     -10.203   6.670 126.227  0.00  0.00    -0.245 OA
ATOM     20  O   LIG A   1      -9.865   7.523 128.335  0.00  0.00    -0.421 OA
ENDROOT
TORSDOF 0
ENDMDL
MODEL 2
REMARK VINA RESULT:      -7.5      1.999      5.048
REMARK  Name = NuBBE_622
REMARK  1 active torsions:
REMARK  status: ('A' for Active; 'I' for Inactive)
REMARK    1  A    between atoms: C_1  and  C_2
REMARK                            x       y       z     vdW  Elec       q    Type
REMARK                         _______ _______ _______ _____ _____    ______ ____
ROOT
ATOM      1  C   LIG A   1     -12.874   7.767 131.539  0.00  0.00    +0.052 C 
ATOM      2  C   LIG A   1     -12.569   7.031 130.267  0.00  0.00    +0.041 C 
ATOM      3  C   LIG A   1     -11.732   5.990 130.024  0.00  0.00    +0.020 C 
ATOM      4  C   LIG A   1     -10.954   5.211 131.004  0.00  0.00    +0.067 A 
ATOM      5  C   LIG A   1     -10.294   3.991 130.895  0.00  0.00    +0.150 A 
ATOM      6  C   LIG A   1      -9.450   3.548 131.928  0.00  0.00    +0.018 A 
ATOM      7  C   LIG A   1      -9.327   4.329 133.079  0.00  0.00    +0.015 A 
ATOM      8  C   LIG A   1      -9.646   5.679 132.962  0.00  0.00    +0.047 A 
ATOM      9  C   LIG A   1     -10.202   6.084 131.761  0.00  0.00    +0.132 A 
ATOM     10  O   LIG A   1      -9.720   7.215 131.088  0.00  0.00    -0.487 OA
ATOM     11  C   LIG A   1      -9.571   6.942 129.611  0.00  0.00    +0.278 C 
ATOM     12  C   LIG A   1     -10.861   6.390 128.902  0.00  0.00    +0.245 C 
ATOM     13  O   LIG A   1     -11.577   7.429 128.235  0.00  0.00    -0.450 OA
ATOM     14  C   LIG A   1     -12.562   7.860 129.036  0.00  0.00    +0.336 C 
ATOM     15  O   LIG A   1     -13.282   8.837 128.832  0.00  0.00    -0.245 OA
ATOM     16  C   LIG A   1      -8.451   2.523 131.652  0.00  0.00    +0.018 A 
ATOM     17  C   LIG A   1      -8.142   2.281 130.373  0.00  0.00    +0.092 A 
ATOM     18  C   LIG A   1      -8.908   2.888 129.267  0.00  0.00    +0.337 A 
ATOM     19  O   LIG A   1      -8.488   2.865 128.118  0.00  0.00    -0.245 OA
ATOM     20  O   LIG A   1     -10.151   3.424 129.604  0.00  0.00    -0.421 OA
ENDROOT
TORSDOF 0
ENDMDL
MODEL 3
REMARK VINA RESULT:      -7.5      7.417      9.807
REMARK  Name = NuBBE_622
REMARK  1 active torsions:
REMARK  status: ('A' for Active; 'I' for Inactive)
REMARK    1  A    between atoms: C_1  and  C_2
REMARK                            x       y       z     vdW  Elec       q    Type
REMARK                         _______ _______ _______ _____ _____    ______ ____
ROOT
ATOM      1  C   LIG A   1      -8.086   2.738 122.850  0.00  0.00    +0.052 C 
ATOM      2  C   LIG A   1      -7.771   2.373 124.271  0.00  0.00    +0.041 C 
ATOM      3  C   LIG A   1      -7.755   1.166 124.893  0.00  0.00    +0.020 C 
ATOM      4  C   LIG A   1      -7.948  -0.163 124.288  0.00  0.00    +0.067 A 
ATOM      5  C   LIG A   1      -7.693  -1.442 124.774  0.00  0.00    +0.150 A 
ATOM      6  C   LIG A   1      -8.151  -2.570 124.071  0.00  0.00    +0.018 A 
ATOM      7  C   LIG A   1      -8.818  -2.384 122.858  0.00  0.00    +0.015 A 
ATOM      8  C   LIG A   1      -9.402  -1.138 122.645  0.00  0.00    +0.047 A 
ATOM      9  C   LIG A   1      -9.133  -0.157 123.584  0.00  0.00    +0.132 A 
ATOM     10  O   LIG A   1     -10.164   0.618 124.132  0.00  0.00    -0.487 OA
ATOM     11  C   LIG A   1     -10.001   0.755 125.627  0.00  0.00    +0.278 C 
ATOM     12  C   LIG A   1      -8.600   1.292 126.098  0.00  0.00    +0.245 C 
ATOM     13  O   LIG A   1      -8.641   2.692 126.372  0.00  0.00    -0.450 OA
ATOM     14  C   LIG A   1      -8.202   3.358 125.293  0.00  0.00    +0.336 C 
ATOM     15  O   LIG A   1      -8.236   4.578 125.137  0.00  0.00    -0.245 OA
ATOM     16  C   LIG A   1      -8.269  -3.849 124.761  0.00  0.00    +0.018 A 
ATOM     17  C   LIG A   1      -8.264  -3.840 126.099  0.00  0.00    +0.092 A 
ATOM     18  C   LIG A   1      -7.964  -2.610 126.859  0.00  0.00    +0.337 A 
ATOM     19  O   LIG A   1      -8.192  -2.537 128.059  0.00  0.00    -0.245 OA
ATOM     20  O   LIG A   1      -7.356  -1.579 126.143  0.00  0.00    -0.421 OA
ENDROOT
TORSDOF 0
ENDMDL
MODEL 4
REMARK VINA RESULT:      -7.3      7.183      9.771
REMARK  Name = NuBBE_622
REMARK  1 active torsions:
REMARK  status: ('A' for Active; 'I' for Inactive)
REMARK    1  A    between atoms: C_1  and  C_2
REMARK                            x       y       z     vdW  Elec       q    Type
REMARK                         _______ _______ _______ _____ _____    ______ ____
ROOT
ATOM      1  C   LIG A   1      -7.599  -0.979 122.957  0.00  0.00    +0.052 C 
ATOM      2  C   LIG A   1      -7.039  -0.147 124.073  0.00  0.00    +0.041 C 
ATOM      3  C   LIG A   1      -7.045  -0.347 125.417  0.00  0.00    +0.020 C 
ATOM      4  C   LIG A   1      -7.526  -1.530 126.150  0.00  0.00    +0.067 A 
ATOM      5  C   LIG A   1      -7.337  -1.938 127.467  0.00  0.00    +0.150 A 
ATOM      6  C   LIG A   1      -8.072  -3.019 127.986  0.00  0.00    +0.018 A 
ATOM      7  C   LIG A   1      -8.951  -3.702 127.144  0.00  0.00    +0.015 A 
ATOM      8  C   LIG A   1      -9.405  -3.020 126.019  0.00  0.00    +0.047 A 
ATOM      9  C   LIG A   1      -8.823  -1.790 125.761  0.00  0.00    +0.132 A 
ATOM     10  O   LIG A   1      -9.609  -0.667 125.470  0.00  0.00    -0.487 OA
ATOM     11  C   LIG A   1      -9.118   0.545 126.225  0.00  0.00    +0.278 C 
ATOM     12  C   LIG A   1      -7.594   0.877 126.033  0.00  0.00    +0.245 C 
ATOM     13  O   LIG A   1      -7.400   1.898 125.054  0.00  0.00    -0.450 OA
ATOM     14  C   LIG A   1      -7.118   1.322 123.876  0.00  0.00    +0.336 C 
ATOM     15  O   LIG A   1      -7.030   1.900 122.793  0.00  0.00    -0.245 OA
ATOM     16  C   LIG A   1      -8.201  -3.173 129.430  0.00  0.00    +0.018 A 
ATOM     17  C   LIG A   1      -7.913  -2.118 130.200  0.00  0.00    +0.092 A 
ATOM     18  C   LIG A   1      -7.307  -0.896 129.636  0.00  0.00    +0.337 A 
ATOM     19  O   LIG A   1      -7.266   0.145 130.278  0.00  0.00    -0.245 OA
ATOM     20  O   LIG A   1      -6.739  -1.022 128.368  0.00  0.00    -0.421 OA
ENDROOT
TORSDOF 0
ENDMDL
MODEL 5
REMARK VINA RESULT:      -7.2      7.604      9.930
REMARK  Name = NuBBE_622
REMARK  1 active torsions:
REMARK  status: ('A' for Active; 'I' for Inactive)
REMARK    1  A    between atoms: C_1  and  C_2
REMARK                            x       y       z     vdW  Elec       q    Type
REMARK                         _______ _______ _______ _____ _____    ______ ____
ROOT
ATOM      1  C   LIG A   1      -6.673  -3.807 124.282  0.00  0.00    +0.052 C 
ATOM      2  C   LIG A   1      -6.370  -2.373 124.600  0.00  0.00    +0.041 C 
ATOM      3  C   LIG A   1      -6.568  -1.655 125.736  0.00  0.00    +0.020 C 
ATOM      4  C   LIG A   1      -7.052  -2.145 127.039  0.00  0.00    +0.067 A 
ATOM      5  C   LIG A   1      -7.037  -1.566 128.304  0.00  0.00    +0.150 A 
ATOM      6  C   LIG A   1      -7.746  -2.160 129.363  0.00  0.00    +0.018 A 
ATOM      7  C   LIG A   1      -8.420  -3.361 129.133  0.00  0.00    +0.015 A 
ATOM      8  C   LIG A   1      -8.751  -3.655 127.813  0.00  0.00    +0.047 A 
ATOM      9  C   LIG A   1      -8.245  -2.808 126.841  0.00  0.00    +0.132 A 
ATOM     10  O   LIG A   1      -9.071  -2.291 125.834  0.00  0.00    -0.487 OA
ATOM     11  C   LIG A   1      -8.812  -0.818 125.626  0.00  0.00    +0.278 C 
ATOM     12  C   LIG A   1      -7.311  -0.438 125.354  0.00  0.00    +0.245 C 
ATOM     13  O   LIG A   1      -7.056  -0.277 123.959  0.00  0.00    -0.450 OA
ATOM     14  C   LIG A   1      -6.544  -1.419 123.476  0.00  0.00    +0.336 C 
ATOM     15  O   LIG A   1      -6.340  -1.672 122.289  0.00  0.00    -0.245 OA
ATOM     16  C   LIG A   1      -8.085  -1.365 130.537  0.00  0.00    +0.018 A 
ATOM     17  C   LIG A   1      -8.014  -0.033 130.432  0.00  0.00    +0.092 A 
ATOM     18  C   LIG A   1      -7.436   0.615 129.238  0.00  0.00    +0.337 A 
ATOM     19  O   LIG A   1      -7.587   1.811 129.032  0.00  0.00    -0.245 OA
ATOM     20  O   LIG A   1      -6.669  -0.201 128.407  0.00  0.00    -0.421 OA
ENDROOT
TORSDOF 0
ENDMDL
MODEL 6
REMARK VINA RESULT:      -7.2      1.825      5.623
REMARK  Name = NuBBE_622
REMARK  1 active torsions:
REMARK  status: ('A' for Active; 'I' for Inactive)
REMARK    1  A    between atoms: C_1  and  C_2
REMARK                            x       y       z     vdW  Elec       q    Type
REMARK                         _______ _______ _______ _____ _____    ______ ____
ROOT
ATOM      1  C   LIG A   1     -10.318   8.334 129.054  0.00  0.00    +0.052 C 
ATOM      2  C   LIG A   1     -10.975   7.240 129.842  0.00  0.00    +0.041 C 
ATOM      3  C   LIG A   1     -10.479   6.419 130.804  0.00  0.00    +0.020 C 
ATOM      4  C   LIG A   1      -9.143   6.461 131.424  0.00  0.00    +0.067 A 
ATOM      5  C   LIG A   1      -8.641   5.856 132.571  0.00  0.00    +0.150 A 
ATOM      6  C   LIG A   1      -7.263   5.894 132.847  0.00  0.00    +0.018 A 
ATOM      7  C   LIG A   1      -6.421   6.590 131.977  0.00  0.00    +0.015 A 
ATOM      8  C   LIG A   1      -6.885   6.795 130.680  0.00  0.00    +0.047 A 
ATOM      9  C   LIG A   1      -8.195   6.428 130.423  0.00  0.00    +0.132 A 
ATOM     10  O   LIG A   1      -8.520   5.658 129.299  0.00  0.00    -0.487 OA
ATOM     11  C   LIG A   1      -9.490   4.558 129.660  0.00  0.00    +0.278 C 
ATOM     12  C   LIG A   1     -10.795   5.036 130.395  0.00  0.00    +0.245 C 
ATOM     13  O   LIG A   1     -11.890   5.163 129.488  0.00  0.00    -0.450 OA
ATOM     14  C   LIG A   1     -11.991   6.446 129.108  0.00  0.00    +0.336 C 
ATOM     15  O   LIG A   1     -12.736   6.880 128.230  0.00  0.00    -0.245 OA
ATOM     16  C   LIG A   1      -6.688   4.931 133.777  0.00  0.00    +0.018 A 
ATOM     17  C   LIG A   1      -7.408   3.844 134.077  0.00  0.00    +0.092 A 
ATOM     18  C   LIG A   1      -8.810   3.704 133.635  0.00  0.00    +0.337 A 
ATOM     19  O   LIG A   1      -9.388   2.628 133.695  0.00  0.00    -0.245 OA
ATOM     20  O   LIG A   1      -9.439   4.875 133.211  0.00  0.00    -0.421 OA
ENDROOT
TORSDOF 0
ENDMDL
MODEL 7
REMARK VINA RESULT:      -7.0      7.384      9.320
REMARK  Name = NuBBE_622
REMARK  1 active torsions:
REMARK  status: ('A' for Active; 'I' for Inactive)
REMARK    1  A    between atoms: C_1  and  C_2
REMARK                            x       y       z     vdW  Elec       q    Type
REMARK                         _______ _______ _______ _____ _____    ______ ____
ROOT
ATOM      1  C   LIG A   1      -8.088  -0.128 130.745  0.00  0.00    +0.052 C 
ATOM      2  C   LIG A   1      -7.247   0.277 129.571  0.00  0.00    +0.041 C 
ATOM      3  C   LIG A   1      -7.090  -0.299 128.351  0.00  0.00    +0.020 C 
ATOM      4  C   LIG A   1      -7.814  -1.459 127.802  0.00  0.00    +0.067 A 
ATOM      5  C   LIG A   1      -7.918  -1.949 126.505  0.00  0.00    +0.150 A 
ATOM      6  C   LIG A   1      -8.516  -3.200 126.267  0.00  0.00    +0.018 A 
ATOM      7  C   LIG A   1      -9.045  -3.911 127.346  0.00  0.00    +0.015 A 
ATOM      8  C   LIG A   1      -8.552  -3.596 128.610  0.00  0.00    +0.047 A 
ATOM      9  C   LIG A   1      -7.703  -2.506 128.692  0.00  0.00    +0.132 A 
ATOM     10  O   LIG A   1      -6.489  -2.589 129.387  0.00  0.00    -0.487 OA
ATOM     11  C   LIG A   1      -5.370  -1.951 128.599  0.00  0.00    +0.278 C 
ATOM     12  C   LIG A   1      -5.639  -0.472 128.139  0.00  0.00    +0.245 C 
ATOM     13  O   LIG A   1      -5.026   0.470 129.019  0.00  0.00    -0.450 OA
ATOM     14  C   LIG A   1      -5.939   0.894 129.905  0.00  0.00    +0.336 C 
ATOM     15  O   LIG A   1      -5.716   1.602 130.887  0.00  0.00    -0.245 OA
ATOM     16  C   LIG A   1      -8.252  -3.897 125.014  0.00  0.00    +0.018 A 
ATOM     17  C   LIG A   1      -7.202  -3.499 124.287  0.00  0.00    +0.092 A 
ATOM     18  C   LIG A   1      -6.443  -2.281 124.633  0.00  0.00    +0.337 A 
ATOM     19  O   LIG A   1      -5.354  -2.048 124.126  0.00  0.00    -0.245 OA
ATOM     20  O   LIG A   1      -7.068  -1.398 125.514  0.00  0.00    -0.421 OA
ENDROOT
TORSDOF 0
ENDMDL
MODEL 8
REMARK VINA RESULT:      -6.9      6.851      8.899
REMARK  Name = NuBBE_622
REMARK  1 active torsions:
REMARK  status: ('A' for Active; 'I' for Inactive)
REMARK    1  A    between atoms: C_1  and  C_2
REMARK                            x       y       z     vdW  Elec       q    Type
REMARK                         _______ _______ _______ _____ _____    ______ ____
ROOT
ATOM      1  C   LIG A   1      -6.668   2.716 127.914  0.00  0.00    +0.052 C 
ATOM      2  C   LIG A   1      -7.885   2.657 127.038  0.00  0.00    +0.041 C 
ATOM      3  C   LIG A   1      -8.299   1.708 126.158  0.00  0.00    +0.020 C 
ATOM      4  C   LIG A   1      -7.693   0.390 125.903  0.00  0.00    +0.067 A 
ATOM      5  C   LIG A   1      -8.176  -0.733 125.239  0.00  0.00    +0.150 A 
ATOM      6  C   LIG A   1      -7.320  -1.812 124.957  0.00  0.00    +0.018 A 
ATOM      7  C   LIG A   1      -5.997  -1.756 125.400  0.00  0.00    +0.015 A 
ATOM      8  C   LIG A   1      -5.473  -0.493 125.662  0.00  0.00    +0.047 A 
ATOM      9  C   LIG A   1      -6.358   0.570 125.608  0.00  0.00    +0.132 A 
ATOM     10  O   LIG A   1      -6.043   1.735 124.897  0.00  0.00    -0.487 OA
ATOM     11  C   LIG A   1      -7.220   2.201 124.075  0.00  0.00    +0.278 C 
ATOM     12  C   LIG A   1      -8.559   2.393 124.876  0.00  0.00    +0.245 C 
ATOM     13  O   LIG A   1      -8.767   3.760 125.228  0.00  0.00    -0.450 OA
ATOM     14  C   LIG A   1      -8.335   3.957 126.482  0.00  0.00    +0.336 C 
ATOM     15  O   LIG A   1      -8.239   5.045 127.049  0.00  0.00    -0.245 OA
ATOM     16  C   LIG A   1      -7.685  -2.769 123.920  0.00  0.00    +0.018 A 
ATOM     17  C   LIG A   1      -8.636  -2.413 123.048  0.00  0.00    +0.092 A 
ATOM     18  C   LIG A   1      -9.424  -1.178 123.231  0.00  0.00    +0.337 A 
ATOM     19  O   LIG A   1     -10.115  -0.729 122.326  0.00  0.00    -0.245 OA
ATOM     20  O   LIG A   1      -9.379  -0.604 124.501  0.00  0.00    -0.421 OA
ENDROOT
TORSDOF 0
ENDMDL
MODEL 9
REMARK VINA RESULT:      -6.8      2.619      4.255
REMARK  Name = NuBBE_622
REMARK  1 active torsions:
REMARK  status: ('A' for Active; 'I' for Inactive)
REMARK    1  A    between atoms: C_1  and  C_2
REMARK                            x       y       z     vdW  Elec       q    Type
REMARK                         _______ _______ _______ _____ _____    ______ ____
ROOT
ATOM      1  C   LIG A   1      -3.560   6.964 132.893  0.00  0.00    +0.052 C 
ATOM      2  C   LIG A   1      -4.083   6.985 131.487  0.00  0.00    +0.041 C 
ATOM      3  C   LIG A   1      -5.334   6.773 131.002  0.00  0.00    +0.020 C 
ATOM      4  C   LIG A   1      -6.574   6.563 131.769  0.00  0.00    +0.067 A 
ATOM      5  C   LIG A   1      -7.911   6.603 131.386  0.00  0.00    +0.150 A 
ATOM      6  C   LIG A   1      -8.913   6.169 132.272  0.00  0.00    +0.018 A 
ATOM      7  C   LIG A   1      -8.547   5.748 133.552  0.00  0.00    +0.015 A 
ATOM      8  C   LIG A   1      -7.229   5.335 133.726  0.00  0.00    +0.047 A 
ATOM      9  C   LIG A   1      -6.371   5.527 132.656  0.00  0.00    +0.132 A 
ATOM     10  O   LIG A   1      -5.534   4.496 132.209  0.00  0.00    -0.487 OA
ATOM     11  C   LIG A   1      -5.550   4.404 130.702  0.00  0.00    +0.278 C 
ATOM     12  C   LIG A   1      -5.219   5.744 129.949  0.00  0.00    +0.245 C 
ATOM     13  O   LIG A   1      -3.853   5.791 129.538  0.00  0.00    -0.450 OA
ATOM     14  C   LIG A   1      -3.149   6.477 130.451  0.00  0.00    +0.336 C 
ATOM     15  O   LIG A   1      -1.924   6.590 130.480  0.00  0.00    -0.245 OA
ATOM     16  C   LIG A   1     -10.226   5.807 131.751  0.00  0.00    +0.018 A 
ATOM     17  C   LIG A   1     -10.335   5.576 130.438  0.00  0.00    +0.092 A 
ATOM     18  C   LIG A   1      -9.220   5.854 129.512  0.00  0.00    +0.337 A 
ATOM     19  O   LIG A   1      -9.227   5.425 128.366  0.00  0.00    -0.245 OA
ATOM     20  O   LIG A   1      -8.206   6.676 130.002  0.00  0.00    -0.421 OA
ENDROOT
TORSDOF 0
ENDMDL
