MODEL 1
REMARK VINA RESULT:      -9.5      0.000      0.000
REMARK  Name = NuBBE_1441
REMARK  9 active torsions:
REMARK  status: ('A' for Active; 'I' for Inactive)
REMARK    1  A    between atoms: C_6  and  C_7
REMARK    2  A    between atoms: C_8  and  O_17
REMARK    3  A    between atoms: C_9  and  C_16
REMARK    4  A    between atoms: C_12  and  O_14
REMARK    5  A    between atoms: C_19  and  C_20
REMARK    6  A    between atoms: C_19  and  O_41
REMARK    7  A    between atoms: C_23  and  C_30
REMARK    8  A    between atoms: C_24  and  O_26
REMARK    9  A    between atoms: C_34  and  C_36
REMARK                            x       y       z     vdW  Elec       q    Type
REMARK                         _______ _______ _______ _____ _____    ______ ____
ROOT
ATOM      1  O   LIG A   1     -12.136   6.491 131.935  0.00  0.00    -0.293 OA
ATOM      2  C   LIG A   1     -11.093   5.909 131.631  0.00  0.00    +0.182 C 
ATOM      3  C   LIG A   1      -9.990   5.736 132.667  0.00  0.00    +0.111 C 
ATOM      4  C   LIG A   1      -8.692   6.108 131.989  0.00  0.00    +0.135 C 
ATOM      5  C   LIG A   1      -8.364   5.232 130.767  0.00  0.00    +0.038 C 
ATOM      6  C   LIG A   1      -8.286   3.749 131.228  0.00  0.00    +0.017 C 
ATOM      7  C   LIG A   1      -9.462   5.412 129.674  0.00  0.00    +0.156 C 
ATOM      8  C   LIG A   1     -10.907   5.260 130.227  0.00  0.00    +0.200 C 
ATOM      9  O   LIG A   1     -11.726   5.936 129.252  0.00  0.00    -0.446 OA
ATOM     10  C   LIG A   1     -11.011   6.891 128.609  0.00  0.00    +0.340 C 
ATOM     11  C   LIG A   1      -9.544   6.780 128.950  0.00  0.00    +0.259 C 
ATOM     12  O   LIG A   1     -11.491   7.736 127.868  0.00  0.00    -0.248 OA
ATOM     13  C   LIG A   1     -11.488   3.844 130.275  0.00  0.00    +0.067 C 
ATOM     14  C   LIG A   1      -6.942   5.785 130.424  0.00  0.00    +0.066 C 
ATOM     15  C   LIG A   1      -5.843   4.946 129.703  0.00  0.00    +0.101 C 
ATOM     16  C   LIG A   1      -5.492   3.546 130.239  0.00  0.00    +0.044 C 
ATOM     17  C   LIG A   1      -4.565   5.785 129.692  0.00  0.00    +0.133 C 
ATOM     18  O   LIG A   1      -4.193   6.397 128.443  0.00  0.00    -0.361 OA
ATOM     19  C   LIG A   1      -4.116   6.562 130.946  0.00  0.00    +0.037 C 
ATOM     20  C   LIG A   1      -5.032   6.188 132.151  0.00  0.00    +0.153 C 
ATOM     21  C   LIG A   1      -6.489   6.429 131.756  0.00  0.00    +0.154 C 
ATOM     22  O   LIG A   1      -7.475   6.034 132.753  0.00  0.00    -0.369 OA
ATOM     23  C   LIG A   1      -4.168   8.088 130.663  0.00  0.00    +0.017 C 
ATOM     24  C   LIG A   1      -3.344   5.357 128.928  0.00  0.00    +0.155 C 
ATOM     25  C   LIG A   1      -2.128   5.792 129.682  0.00  0.00    +0.043 C 
ATOM     26  C   LIG A   1      -2.638   6.059 131.126  0.00  0.00    +0.036 C 
ENDROOT
BRANCH  26  27
ATOM     27  C   LIG A   1      -1.724   6.931 131.938  0.00  0.00    -0.006 A 
ATOM     28  C   LIG A   1      -1.938   8.219 132.397  0.00  0.00    +0.198 A 
ATOM     29  O   LIG A   1      -0.876   8.671 133.106  0.00  0.00    -0.471 OA
ATOM     30  C   LIG A   1       0.040   7.673 133.120  0.00  0.00    +0.195 A 
ATOM     31  C   LIG A   1      -0.424   6.589 132.416  0.00  0.00    +0.045 A 
ENDBRANCH  26  27
BRANCH  11  32
ATOM     32  O   LIG A   1      -9.178   7.905 129.725  0.00  0.00    -0.378 OA
ATOM     33  H   LIG A   1      -9.851   8.597 129.558  0.00  0.00    +0.211 HD
ENDBRANCH  11  32
BRANCH   7  34
ATOM     34  O   LIG A   1      -9.171   4.418 128.656  0.00  0.00    -0.380 OA
ATOM     35  H   LIG A   1      -8.370   3.917 128.907  0.00  0.00    +0.210 HD
ENDBRANCH   7  34
BRANCH  20  36
ATOM     36  O   LIG A   1      -4.737   6.967 133.311  0.00  0.00    -0.389 OA
ATOM     37  H   LIG A   1      -5.537   6.948 133.871  0.00  0.00    +0.210 HD
ENDBRANCH  20  36
BRANCH  15  38
ATOM     38  O   LIG A   1      -6.298   4.738 128.357  0.00  0.00    -0.386 OA
ATOM     39  H   LIG A   1      -5.801   3.988 127.976  0.00  0.00    +0.210 HD
ENDBRANCH  15  38
TORSDOF 5
ENDMDL
MODEL 2
REMARK VINA RESULT:      -9.4      5.520      7.698
REMARK  Name = NuBBE_1441
REMARK  9 active torsions:
REMARK  status: ('A' for Active; 'I' for Inactive)
REMARK    1  A    between atoms: C_6  and  C_7
REMARK    2  A    between atoms: C_8  and  O_17
REMARK    3  A    between atoms: C_9  and  C_16
REMARK    4  A    between atoms: C_12  and  O_14
REMARK    5  A    between atoms: C_19  and  C_20
REMARK    6  A    between atoms: C_19  and  O_41
REMARK    7  A    between atoms: C_23  and  C_30
REMARK    8  A    between atoms: C_24  and  O_26
REMARK    9  A    between atoms: C_34  and  C_36
REMARK                            x       y       z     vdW  Elec       q    Type
REMARK                         _______ _______ _______ _____ _____    ______ ____
ROOT
ATOM      1  O   LIG A   1      -9.627  -3.239 124.130  0.00  0.00    -0.293 OA
ATOM      2  C   LIG A   1      -8.774  -2.449 124.539  0.00  0.00    +0.182 C 
ATOM      3  C   LIG A   1      -8.208  -2.604 125.945  0.00  0.00    +0.111 C 
ATOM      4  C   LIG A   1      -8.208  -1.227 126.569  0.00  0.00    +0.135 C 
ATOM      5  C   LIG A   1      -7.351  -0.206 125.801  0.00  0.00    +0.038 C 
ATOM      6  C   LIG A   1      -5.889  -0.732 125.738  0.00  0.00    +0.017 C 
ATOM      7  C   LIG A   1      -7.925  -0.002 124.365  0.00  0.00    +0.156 C 
ATOM      8  C   LIG A   1      -8.189  -1.339 123.616  0.00  0.00    +0.200 C 
ATOM      9  O   LIG A   1      -9.142  -0.984 122.595  0.00  0.00    -0.446 OA
ATOM     10  C   LIG A   1      -9.871   0.092 122.977  0.00  0.00    +0.340 C 
ATOM     11  C   LIG A   1      -9.296   0.710 124.229  0.00  0.00    +0.259 C 
ATOM     12  O   LIG A   1     -10.866   0.498 122.396  0.00  0.00    -0.248 OA
ATOM     13  C   LIG A   1      -7.017  -1.939 122.832  0.00  0.00    +0.067 C 
ATOM     14  C   LIG A   1      -7.463   1.013 126.776  0.00  0.00    +0.066 C 
ATOM     15  C   LIG A   1      -6.375   2.123 126.894  0.00  0.00    +0.101 C 
ATOM     16  C   LIG A   1      -4.904   1.717 127.100  0.00  0.00    +0.044 C 
ATOM     17  C   LIG A   1      -6.783   3.037 128.050  0.00  0.00    +0.133 C 
ATOM     18  O   LIG A   1      -7.328   4.324 127.708  0.00  0.00    -0.361 OA
ATOM     19  C   LIG A   1      -7.305   2.451 129.377  0.00  0.00    +0.037 C 
ATOM     20  C   LIG A   1      -7.154   0.899 129.362  0.00  0.00    +0.153 C 
ATOM     21  C   LIG A   1      -7.853   0.349 128.118  0.00  0.00    +0.154 C 
ATOM     22  O   LIG A   1      -7.717  -1.087 127.914  0.00  0.00    -0.369 OA
ATOM     23  C   LIG A   1      -8.788   2.862 129.582  0.00  0.00    +0.017 C 
ATOM     24  C   LIG A   1      -6.050   4.316 128.344  0.00  0.00    +0.155 C 
ATOM     25  C   LIG A   1      -6.045   4.538 129.823  0.00  0.00    +0.043 C 
ATOM     26  C   LIG A   1      -6.364   3.143 130.429  0.00  0.00    +0.036 C 
ENDROOT
BRANCH  26  27
ATOM     27  C   LIG A   1      -6.863   3.199 131.845  0.00  0.00    -0.006 A 
ATOM     28  C   LIG A   1      -6.740   2.250 132.843  0.00  0.00    +0.198 A 
ATOM     29  O   LIG A   1      -7.317   2.670 133.995  0.00  0.00    -0.471 OA
ATOM     30  C   LIG A   1      -7.816   3.907 133.755  0.00  0.00    +0.195 A 
ATOM     31  C   LIG A   1      -7.572   4.276 132.455  0.00  0.00    +0.045 A 
ENDBRANCH  26  27
BRANCH  11  32
ATOM     32  O   LIG A   1     -10.204   0.497 125.292  0.00  0.00    -0.378 OA
ATOM     33  H   LIG A   1     -10.988   0.049 124.911  0.00  0.00    +0.211 HD
ENDBRANCH  11  32
BRANCH   7  34
ATOM     34  O   LIG A   1      -6.956   0.822 123.666  0.00  0.00    -0.380 OA
ATOM     35  H   LIG A   1      -7.181   1.766 123.787  0.00  0.00    +0.210 HD
ENDBRANCH   7  34
BRANCH  20  36
ATOM     36  O   LIG A   1      -7.732   0.293 130.518  0.00  0.00    -0.389 OA
ATOM     37  H   LIG A   1      -8.590   0.736 130.666  0.00  0.00    +0.210 HD
ENDBRANCH  20  36
BRANCH  15  38
ATOM     38  O   LIG A   1      -6.400   2.860 125.661  0.00  0.00    -0.386 OA
ATOM     39  H   LIG A   1      -5.507   3.224 125.502  0.00  0.00    +0.210 HD
ENDBRANCH  15  38
TORSDOF 5
ENDMDL
MODEL 3
REMARK VINA RESULT:      -9.4      2.709      7.846
REMARK  Name = NuBBE_1441
REMARK  9 active torsions:
REMARK  status: ('A' for Active; 'I' for Inactive)
REMARK    1  A    between atoms: C_6  and  C_7
REMARK    2  A    between atoms: C_8  and  O_17
REMARK    3  A    between atoms: C_9  and  C_16
REMARK    4  A    between atoms: C_12  and  O_14
REMARK    5  A    between atoms: C_19  and  C_20
REMARK    6  A    between atoms: C_19  and  O_41
REMARK    7  A    between atoms: C_23  and  C_30
REMARK    8  A    between atoms: C_24  and  O_26
REMARK    9  A    between atoms: C_34  and  C_36
REMARK                            x       y       z     vdW  Elec       q    Type
REMARK                         _______ _______ _______ _____ _____    ______ ____
ROOT
ATOM      1  O   LIG A   1      -3.979   2.816 126.737  0.00  0.00    -0.293 OA
ATOM      2  C   LIG A   1      -4.999   2.793 127.429  0.00  0.00    +0.182 C 
ATOM      3  C   LIG A   1      -6.357   3.049 126.788  0.00  0.00    +0.111 C 
ATOM      4  C   LIG A   1      -7.088   4.020 127.686  0.00  0.00    +0.135 C 
ATOM      5  C   LIG A   1      -7.307   3.490 129.114  0.00  0.00    +0.038 C 
ATOM      6  C   LIG A   1      -8.121   2.169 129.032  0.00  0.00    +0.017 C 
ATOM      7  C   LIG A   1      -5.931   3.248 129.808  0.00  0.00    +0.156 C 
ATOM      8  C   LIG A   1      -4.945   2.418 128.940  0.00  0.00    +0.200 C 
ATOM      9  O   LIG A   1      -3.649   2.732 129.486  0.00  0.00    -0.446 OA
ATOM     10  C   LIG A   1      -3.661   3.957 130.067  0.00  0.00    +0.340 C 
ATOM     11  C   LIG A   1      -5.071   4.490 130.161  0.00  0.00    +0.259 C 
ATOM     12  O   LIG A   1      -2.666   4.555 130.447  0.00  0.00    -0.248 OA
ATOM     13  C   LIG A   1      -5.032   0.893 129.056  0.00  0.00    +0.067 C 
ATOM     14  C   LIG A   1      -8.184   4.651 129.690  0.00  0.00    +0.066 C 
ATOM     15  C   LIG A   1      -9.214   4.459 130.844  0.00  0.00    +0.101 C 
ATOM     16  C   LIG A   1     -10.253   3.327 130.746  0.00  0.00    +0.044 C 
ATOM     17  C   LIG A   1      -9.965   5.781 131.007  0.00  0.00    +0.133 C 
ATOM     18  O   LIG A   1      -9.618   6.597 132.141  0.00  0.00    -0.361 OA
ATOM     19  C   LIG A   1     -10.459   6.568 129.777  0.00  0.00    +0.037 C 
ATOM     20  C   LIG A   1     -10.232   5.723 128.487  0.00  0.00    +0.153 C 
ATOM     21  C   LIG A   1      -8.760   5.315 128.417  0.00  0.00    +0.154 C 
ATOM     22  O   LIG A   1      -8.412   4.437 127.309  0.00  0.00    -0.369 OA
ATOM     23  C   LIG A   1      -9.709   7.926 129.689  0.00  0.00    +0.017 C 
ATOM     24  C   LIG A   1     -10.921   6.014 132.143  0.00  0.00    +0.155 C 
ATOM     25  C   LIG A   1     -12.037   6.884 131.662  0.00  0.00    +0.043 C 
ATOM     26  C   LIG A   1     -11.981   6.771 130.113  0.00  0.00    +0.036 C 
ENDROOT
BRANCH  26  27
ATOM     27  C   LIG A   1     -12.685   7.889 129.399  0.00  0.00    -0.006 A 
ATOM     28  C   LIG A   1     -13.387   7.849 128.207  0.00  0.00    +0.198 A 
ATOM     29  O   LIG A   1     -13.887   9.068 127.890  0.00  0.00    -0.471 OA
ATOM     30  C   LIG A   1     -13.519   9.913 128.883  0.00  0.00    +0.195 A 
ATOM     31  C   LIG A   1     -12.777   9.247 129.827  0.00  0.00    +0.045 A 
ENDBRANCH  26  27
BRANCH  11  32
ATOM     32  O   LIG A   1      -5.194   5.590 129.281  0.00  0.00    -0.378 OA
ATOM     33  H   LIG A   1      -4.687   6.329 129.676  0.00  0.00    +0.211 HD
ENDBRANCH  11  32
BRANCH   7  34
ATOM     34  O   LIG A   1      -6.234   2.582 131.062  0.00  0.00    -0.380 OA
ATOM     35  H   LIG A   1      -5.913   1.659 131.029  0.00  0.00    +0.210 HD
ENDBRANCH   7  34
BRANCH  20  36
ATOM     36  O   LIG A   1     -10.562   6.451 127.304  0.00  0.00    -0.389 OA
ATOM     37  H   LIG A   1      -9.923   7.187 127.242  0.00  0.00    +0.210 HD
ENDBRANCH  20  36
BRANCH  15  38
ATOM     38  O   LIG A   1      -8.456   4.182 132.033  0.00  0.00    -0.386 OA
ATOM     39  H   LIG A   1      -8.255   3.226 132.054  0.00  0.00    +0.210 HD
ENDBRANCH  15  38
TORSDOF 5
ENDMDL
MODEL 4
REMARK VINA RESULT:      -9.2      4.590      8.093
REMARK  Name = NuBBE_1441
REMARK  9 active torsions:
REMARK  status: ('A' for Active; 'I' for Inactive)
REMARK    1  A    between atoms: C_6  and  C_7
REMARK    2  A    between atoms: C_8  and  O_17
REMARK    3  A    between atoms: C_9  and  C_16
REMARK    4  A    between atoms: C_12  and  O_14
REMARK    5  A    between atoms: C_19  and  C_20
REMARK    6  A    between atoms: C_19  and  O_41
REMARK    7  A    between atoms: C_23  and  C_30
REMARK    8  A    between atoms: C_24  and  O_26
REMARK    9  A    between atoms: C_34  and  C_36
REMARK                            x       y       z     vdW  Elec       q    Type
REMARK                         _______ _______ _______ _____ _____    ______ ____
ROOT
ATOM      1  O   LIG A   1      -4.044   7.211 131.116  0.00  0.00    -0.293 OA
ATOM      2  C   LIG A   1      -4.046   6.205 130.403  0.00  0.00    +0.182 C 
ATOM      3  C   LIG A   1      -3.680   6.318 128.929  0.00  0.00    +0.111 C 
ATOM      4  C   LIG A   1      -4.715   5.529 128.161  0.00  0.00    +0.135 C 
ATOM      5  C   LIG A   1      -4.762   4.040 128.546  0.00  0.00    +0.038 C 
ATOM      6  C   LIG A   1      -3.360   3.418 128.290  0.00  0.00    +0.017 C 
ATOM      7  C   LIG A   1      -5.165   3.891 130.046  0.00  0.00    +0.156 C 
ATOM      8  C   LIG A   1      -4.330   4.793 130.997  0.00  0.00    +0.200 C 
ATOM      9  O   LIG A   1      -5.146   4.903 132.180  0.00  0.00    -0.446 OA
ATOM     10  C   LIG A   1      -6.456   4.741 131.871  0.00  0.00    +0.340 C 
ATOM     11  C   LIG A   1      -6.615   4.270 130.446  0.00  0.00    +0.259 C 
ATOM     12  O   LIG A   1      -7.382   4.963 132.637  0.00  0.00    -0.248 OA
ATOM     13  C   LIG A   1      -3.008   4.219 131.516  0.00  0.00    +0.067 C 
ATOM     14  C   LIG A   1      -5.799   3.531 127.492  0.00  0.00    +0.066 C 
ATOM     15  C   LIG A   1      -5.834   2.067 126.957  0.00  0.00    +0.101 C 
ATOM     16  C   LIG A   1      -4.538   1.427 126.426  0.00  0.00    +0.044 C 
ATOM     17  C   LIG A   1      -6.881   2.016 125.843  0.00  0.00    +0.133 C 
ATOM     18  O   LIG A   1      -8.139   1.389 126.154  0.00  0.00    -0.361 OA
ATOM     19  C   LIG A   1      -6.964   3.131 124.782  0.00  0.00    +0.037 C 
ATOM     20  C   LIG A   1      -5.760   4.106 124.949  0.00  0.00    +0.153 C 
ATOM     21  C   LIG A   1      -5.736   4.616 126.391  0.00  0.00    +0.154 C 
ATOM     22  O   LIG A   1      -4.605   5.470 126.728  0.00  0.00    -0.369 OA
ATOM     23  C   LIG A   1      -8.313   3.886 124.922  0.00  0.00    +0.017 C 
ATOM     24  C   LIG A   1      -7.302   0.718 125.212  0.00  0.00    +0.155 C 
ATOM     25  C   LIG A   1      -7.602   0.961 123.768  0.00  0.00    +0.043 C 
ATOM     26  C   LIG A   1      -6.900   2.308 123.443  0.00  0.00    +0.036 C 
ENDROOT
BRANCH  26  27
ATOM     27  C   LIG A   1      -7.429   2.985 122.211  0.00  0.00    -0.006 A 
ATOM     28  C   LIG A   1      -6.729   3.660 121.227  0.00  0.00    +0.198 A 
ATOM     29  O   LIG A   1      -7.562   4.129 120.266  0.00  0.00    -0.471 OA
ATOM     30  C   LIG A   1      -8.816   3.754 120.617  0.00  0.00    +0.195 A 
ATOM     31  C   LIG A   1      -8.793   3.058 121.800  0.00  0.00    +0.045 A 
ENDBRANCH  26  27
BRANCH  11  32
ATOM     32  O   LIG A   1      -7.205   5.310 129.692  0.00  0.00    -0.378 OA
ATOM     33  H   LIG A   1      -7.831   5.773 130.287  0.00  0.00    +0.211 HD
ENDBRANCH  11  32
BRANCH   7  34
ATOM     34  O   LIG A   1      -5.001   2.483 130.360  0.00  0.00    -0.380 OA
ATOM     35  H   LIG A   1      -4.136   2.171 130.026  0.00  0.00    +0.210 HD
ENDBRANCH   7  34
BRANCH  20  36
ATOM     36  O   LIG A   1      -5.850   5.226 124.068  0.00  0.00    -0.389 OA
ATOM     37  H   LIG A   1      -5.047   5.763 124.216  0.00  0.00    +0.210 HD
ENDBRANCH  20  36
BRANCH  15  38
ATOM     38  O   LIG A   1      -6.251   1.236 128.052  0.00  0.00    -0.386 OA
ATOM     39  H   LIG A   1      -6.982   0.665 127.745  0.00  0.00    +0.210 HD
ENDBRANCH  15  38
TORSDOF 5
ENDMDL
MODEL 5
REMARK VINA RESULT:      -9.0      5.672      7.932
REMARK  Name = NuBBE_1441
REMARK  9 active torsions:
REMARK  status: ('A' for Active; 'I' for Inactive)
REMARK    1  A    between atoms: C_6  and  C_7
REMARK    2  A    between atoms: C_8  and  O_17
REMARK    3  A    between atoms: C_9  and  C_16
REMARK    4  A    between atoms: C_12  and  O_14
REMARK    5  A    between atoms: C_19  and  C_20
REMARK    6  A    between atoms: C_19  and  O_41
REMARK    7  A    between atoms: C_23  and  C_30
REMARK    8  A    between atoms: C_24  and  O_26
REMARK    9  A    between atoms: C_34  and  C_36
REMARK                            x       y       z     vdW  Elec       q    Type
REMARK                         _______ _______ _______ _____ _____    ______ ____
ROOT
ATOM      1  O   LIG A   1      -6.287  -4.105 124.332  0.00  0.00    -0.293 OA
ATOM      2  C   LIG A   1      -6.628  -2.934 124.512  0.00  0.00    +0.182 C 
ATOM      3  C   LIG A   1      -5.608  -1.814 124.354  0.00  0.00    +0.111 C 
ATOM      4  C   LIG A   1      -5.778  -0.899 125.545  0.00  0.00    +0.135 C 
ATOM      5  C   LIG A   1      -7.183  -0.278 125.647  0.00  0.00    +0.038 C 
ATOM      6  C   LIG A   1      -7.463   0.527 124.347  0.00  0.00    +0.017 C 
ATOM      7  C   LIG A   1      -8.248  -1.402 125.840  0.00  0.00    +0.156 C 
ATOM      8  C   LIG A   1      -8.110  -2.559 124.811  0.00  0.00    +0.200 C 
ATOM      9  O   LIG A   1      -8.789  -3.665 125.438  0.00  0.00    -0.446 OA
ATOM     10  C   LIG A   1      -8.764  -3.536 126.787  0.00  0.00    +0.340 C 
ATOM     11  C   LIG A   1      -8.248  -2.174 127.185  0.00  0.00    +0.259 C 
ATOM     12  O   LIG A   1      -9.098  -4.409 127.574  0.00  0.00    -0.248 OA
ATOM     13  C   LIG A   1      -8.840  -2.391 123.475  0.00  0.00    +0.067 C 
ATOM     14  C   LIG A   1      -6.955   0.683 126.860  0.00  0.00    +0.066 C 
ATOM     15  C   LIG A   1      -7.766   1.996 127.081  0.00  0.00    +0.101 C 
ATOM     16  C   LIG A   1      -7.892   3.006 125.926  0.00  0.00    +0.044 C 
ATOM     17  C   LIG A   1      -7.144   2.717 128.278  0.00  0.00    +0.133 C 
ATOM     18  O   LIG A   1      -7.868   2.667 129.522  0.00  0.00    -0.361 OA
ATOM     19  C   LIG A   1      -5.614   2.827 128.430  0.00  0.00    +0.037 C 
ATOM     20  C   LIG A   1      -4.918   2.285 127.144  0.00  0.00    +0.153 C 
ATOM     21  C   LIG A   1      -5.419   0.865 126.875  0.00  0.00    +0.154 C 
ATOM     22  O   LIG A   1      -4.926   0.256 125.647  0.00  0.00    -0.369 OA
ATOM     23  C   LIG A   1      -5.154   2.036 129.685  0.00  0.00    +0.017 C 
ATOM     24  C   LIG A   1      -7.777   3.939 128.881  0.00  0.00    +0.155 C 
ATOM     25  C   LIG A   1      -6.695   4.850 129.367  0.00  0.00    +0.043 C 
ATOM     26  C   LIG A   1      -5.418   4.375 128.620  0.00  0.00    +0.036 C 
ENDROOT
BRANCH  26  27
ATOM     27  C   LIG A   1      -4.138   4.817 129.269  0.00  0.00    -0.006 A 
ATOM     28  C   LIG A   1      -2.974   5.265 128.671  0.00  0.00    +0.198 A 
ATOM     29  O   LIG A   1      -2.035   5.580 129.596  0.00  0.00    -0.471 OA
ATOM     30  C   LIG A   1      -2.587   5.345 130.810  0.00  0.00    +0.195 A 
ATOM     31  C   LIG A   1      -3.869   4.871 130.669  0.00  0.00    +0.045 A 
ENDBRANCH  26  27
BRANCH  11  32
ATOM     32  O   LIG A   1      -6.984  -2.334 127.798  0.00  0.00    -0.378 OA
ATOM     33  H   LIG A   1      -6.327  -2.423 127.077  0.00  0.00    +0.211 HD
ENDBRANCH  11  32
BRANCH   7  34
ATOM     34  O   LIG A   1      -9.538  -0.743 125.738  0.00  0.00    -0.380 OA
ATOM     35  H   LIG A   1     -10.237  -1.412 125.593  0.00  0.00    +0.210 HD
ENDBRANCH   7  34
BRANCH  20  36
ATOM     36  O   LIG A   1      -3.497   2.252 127.277  0.00  0.00    -0.389 OA
ATOM     37  H   LIG A   1      -3.296   1.581 127.958  0.00  0.00    +0.210 HD
ENDBRANCH  20  36
BRANCH  15  38
ATOM     38  O   LIG A   1      -9.111   1.604 127.396  0.00  0.00    -0.386 OA
ATOM     39  H   LIG A   1      -9.353   2.000 128.256  0.00  0.00    +0.210 HD
ENDBRANCH  15  38
TORSDOF 5
ENDMDL
MODEL 6
REMARK VINA RESULT:      -9.0      4.687      6.292
REMARK  Name = NuBBE_1441
REMARK  9 active torsions:
REMARK  status: ('A' for Active; 'I' for Inactive)
REMARK    1  A    between atoms: C_6  and  C_7
REMARK    2  A    between atoms: C_8  and  O_17
REMARK    3  A    between atoms: C_9  and  C_16
REMARK    4  A    between atoms: C_12  and  O_14
REMARK    5  A    between atoms: C_19  and  C_20
REMARK    6  A    between atoms: C_19  and  O_41
REMARK    7  A    between atoms: C_23  and  C_30
REMARK    8  A    between atoms: C_24  and  O_26
REMARK    9  A    between atoms: C_34  and  C_36
REMARK                            x       y       z     vdW  Elec       q    Type
REMARK                         _______ _______ _______ _____ _____    ______ ____
ROOT
ATOM      1  O   LIG A   1      -9.621  -2.348 125.856  0.00  0.00    -0.293 OA
ATOM      2  C   LIG A   1      -8.602  -1.654 125.844  0.00  0.00    +0.182 C 
ATOM      3  C   LIG A   1      -7.612  -1.736 126.998  0.00  0.00    +0.111 C 
ATOM      4  C   LIG A   1      -7.257  -0.315 127.370  0.00  0.00    +0.135 C 
ATOM      5  C   LIG A   1      -6.610   0.476 126.220  0.00  0.00    +0.038 C 
ATOM      6  C   LIG A   1      -5.319  -0.266 125.772  0.00  0.00    +0.017 C 
ATOM      7  C   LIG A   1      -7.613   0.605 125.032  0.00  0.00    +0.156 C 
ATOM      8  C   LIG A   1      -8.252  -0.752 124.622  0.00  0.00    +0.200 C 
ATOM      9  O   LIG A   1      -9.452  -0.374 123.920  0.00  0.00    -0.446 OA
ATOM     10  C   LIG A   1      -9.892   0.835 124.346  0.00  0.00    +0.340 C 
ATOM     11  C   LIG A   1      -8.866   1.494 125.237  0.00  0.00    +0.259 C 
ATOM     12  O   LIG A   1     -10.978   1.319 124.062  0.00  0.00    -0.248 OA
ATOM     13  C   LIG A   1      -7.485  -1.602 123.605  0.00  0.00    +0.067 C 
ATOM     14  C   LIG A   1      -6.257   1.798 126.980  0.00  0.00    +0.066 C 
ATOM     15  C   LIG A   1      -5.084   2.739 126.570  0.00  0.00    +0.101 C 
ATOM     16  C   LIG A   1      -3.681   2.143 126.351  0.00  0.00    +0.044 C 
ATOM     17  C   LIG A   1      -4.978   3.825 127.641  0.00  0.00    +0.133 C 
ATOM     18  O   LIG A   1      -5.470   5.134 127.299  0.00  0.00    -0.361 OA
ATOM     19  C   LIG A   1      -5.077   3.473 129.139  0.00  0.00    +0.037 C 
ATOM     20  C   LIG A   1      -5.103   1.924 129.314  0.00  0.00    +0.153 C 
ATOM     21  C   LIG A   1      -6.236   1.351 128.461  0.00  0.00    +0.154 C 
ATOM     22  O   LIG A   1      -6.327  -0.102 128.447  0.00  0.00    -0.369 OA
ATOM     23  C   LIG A   1      -6.352   4.121 129.745  0.00  0.00    +0.017 C 
ATOM     24  C   LIG A   1      -4.060   5.005 127.484  0.00  0.00    +0.155 C 
ATOM     25  C   LIG A   1      -3.530   5.385 128.830  0.00  0.00    +0.043 C 
ATOM     26  C   LIG A   1      -3.769   4.129 129.713  0.00  0.00    +0.036 C 
ENDROOT
BRANCH  26  27
ATOM     27  C   LIG A   1      -3.749   4.414 131.188  0.00  0.00    -0.006 A 
ATOM     28  C   LIG A   1      -4.190   5.541 131.857  0.00  0.00    +0.198 A 
ATOM     29  O   LIG A   1      -4.010   5.420 133.195  0.00  0.00    -0.471 OA
ATOM     30  C   LIG A   1      -3.454   4.203 133.407  0.00  0.00    +0.195 A 
ATOM     31  C   LIG A   1      -3.267   3.549 132.214  0.00  0.00    +0.045 A 
ENDBRANCH  26  27
BRANCH  11  32
ATOM     32  O   LIG A   1      -9.377   1.537 126.555  0.00  0.00    -0.378 OA
ATOM     33  H   LIG A   1      -9.482   2.482 126.789  0.00  0.00    +0.211 HD
ENDBRANCH  11  32
BRANCH   7  34
ATOM     34  O   LIG A   1      -6.858   1.193 123.941  0.00  0.00    -0.380 OA
ATOM     35  H   LIG A   1      -6.041   1.602 124.290  0.00  0.00    +0.210 HD
ENDBRANCH   7  34
BRANCH  20  36
ATOM     36  O   LIG A   1      -5.315   1.542 130.673  0.00  0.00    -0.389 OA
ATOM     37  H   LIG A   1      -6.025   2.117 131.018  0.00  0.00    +0.210 HD
ENDBRANCH  20  36
BRANCH  15  38
ATOM     38  O   LIG A   1      -5.449   3.332 125.314  0.00  0.00    -0.386 OA
ATOM     39  H   LIG A   1      -6.320   3.762 125.418  0.00  0.00    +0.210 HD
ENDBRANCH  15  38
TORSDOF 5
ENDMDL
MODEL 7
REMARK VINA RESULT:      -8.9      7.000      9.841
REMARK  Name = NuBBE_1441
REMARK  9 active torsions:
REMARK  status: ('A' for Active; 'I' for Inactive)
REMARK    1  A    between atoms: C_6  and  C_7
REMARK    2  A    between atoms: C_8  and  O_17
REMARK    3  A    between atoms: C_9  and  C_16
REMARK    4  A    between atoms: C_12  and  O_14
REMARK    5  A    between atoms: C_19  and  C_20
REMARK    6  A    between atoms: C_19  and  O_41
REMARK    7  A    between atoms: C_23  and  C_30
REMARK    8  A    between atoms: C_24  and  O_26
REMARK    9  A    between atoms: C_34  and  C_36
REMARK                            x       y       z     vdW  Elec       q    Type
REMARK                         _______ _______ _______ _____ _____    ______ ____
ROOT
ATOM      1  O   LIG A   1      -4.360  -0.571 132.732  0.00  0.00    -0.293 OA
ATOM      2  C   LIG A   1      -4.623  -1.039 131.623  0.00  0.00    +0.182 C 
ATOM      3  C   LIG A   1      -4.076  -0.373 130.367  0.00  0.00    +0.111 C 
ATOM      4  C   LIG A   1      -5.224  -0.278 129.388  0.00  0.00    +0.135 C 
ATOM      5  C   LIG A   1      -5.817  -1.645 129.004  0.00  0.00    +0.038 C 
ATOM      6  C   LIG A   1      -4.691  -2.516 128.379  0.00  0.00    +0.017 C 
ATOM      7  C   LIG A   1      -6.414  -2.340 130.267  0.00  0.00    +0.156 C 
ATOM      8  C   LIG A   1      -5.435  -2.361 131.474  0.00  0.00    +0.200 C 
ATOM      9  O   LIG A   1      -6.294  -2.551 132.616  0.00  0.00    -0.446 OA
ATOM     10  C   LIG A   1      -7.537  -2.073 132.362  0.00  0.00    +0.340 C 
ATOM     11  C   LIG A   1      -7.684  -1.717 130.902  0.00  0.00    +0.259 C 
ATOM     12  O   LIG A   1      -8.413  -1.935 133.203  0.00  0.00    -0.248 OA
ATOM     13  C   LIG A   1      -4.455  -3.535 131.554  0.00  0.00    +0.067 C 
ATOM     14  C   LIG A   1      -6.839  -1.187 127.912  0.00  0.00    +0.066 C 
ATOM     15  C   LIG A   1      -7.309  -2.099 126.737  0.00  0.00    +0.101 C 
ATOM     16  C   LIG A   1      -6.256  -2.815 125.872  0.00  0.00    +0.044 C 
ATOM     17  C   LIG A   1      -8.177  -1.240 125.817  0.00  0.00    +0.133 C 
ATOM     18  O   LIG A   1      -9.600  -1.452 125.872  0.00  0.00    -0.361 OA
ATOM     19  C   LIG A   1      -7.756   0.194 125.439  0.00  0.00    +0.037 C 
ATOM     20  C   LIG A   1      -6.319   0.476 125.973  0.00  0.00    +0.153 C 
ATOM     21  C   LIG A   1      -6.286   0.191 127.475  0.00  0.00    +0.154 C 
ATOM     22  O   LIG A   1      -4.978   0.320 128.103  0.00  0.00    -0.369 OA
ATOM     23  C   LIG A   1      -8.774   1.209 126.024  0.00  0.00    +0.017 C 
ATOM     24  C   LIG A   1      -8.940  -1.836 124.667  0.00  0.00    +0.155 C 
ATOM     25  C   LIG A   1      -8.974  -0.845 123.547  0.00  0.00    +0.043 C 
ATOM     26  C   LIG A   1      -7.823   0.148 123.869  0.00  0.00    +0.036 C 
ENDROOT
BRANCH  26  27
ATOM     27  C   LIG A   1      -7.948   1.468 123.162  0.00  0.00    -0.006 A 
ATOM     28  C   LIG A   1      -9.095   2.159 122.816  0.00  0.00    +0.198 A 
ATOM     29  O   LIG A   1      -8.797   3.324 122.191  0.00  0.00    -0.471 OA
ATOM     30  C   LIG A   1      -7.446   3.403 122.133  0.00  0.00    +0.195 A 
ATOM     31  C   LIG A   1      -6.877   2.292 122.705  0.00  0.00    +0.045 A 
ENDBRANCH  26  27
BRANCH  11  32
ATOM     32  O   LIG A   1      -7.796  -0.311 130.793  0.00  0.00    -0.378 OA
ATOM     33  H   LIG A   1      -7.074   0.075 131.330  0.00  0.00    +0.211 HD
ENDBRANCH  11  32
BRANCH   7  34
ATOM     34  O   LIG A   1      -6.775  -3.682 129.845  0.00  0.00    -0.380 OA
ATOM     35  H   LIG A   1      -7.456  -4.043 130.447  0.00  0.00    +0.210 HD
ENDBRANCH   7  34
BRANCH  20  36
ATOM     36  O   LIG A   1      -5.923   1.831 125.756  0.00  0.00    -0.389 OA
ATOM     37  H   LIG A   1      -6.727   2.376 125.857  0.00  0.00    +0.210 HD
ENDBRANCH  20  36
BRANCH  15  38
ATOM     38  O   LIG A   1      -8.104  -3.144 127.318  0.00  0.00    -0.386 OA
ATOM     39  H   LIG A   1      -7.640  -3.480 128.110  0.00  0.00    +0.210 HD
ENDBRANCH  15  38
TORSDOF 5
ENDMDL
MODEL 8
REMARK VINA RESULT:      -8.7      5.257      8.733
REMARK  Name = NuBBE_1441
REMARK  9 active torsions:
REMARK  status: ('A' for Active; 'I' for Inactive)
REMARK    1  A    between atoms: C_6  and  C_7
REMARK    2  A    between atoms: C_8  and  O_17
REMARK    3  A    between atoms: C_9  and  C_16
REMARK    4  A    between atoms: C_12  and  O_14
REMARK    5  A    between atoms: C_19  and  C_20
REMARK    6  A    between atoms: C_19  and  O_41
REMARK    7  A    between atoms: C_23  and  C_30
REMARK    8  A    between atoms: C_24  and  O_26
REMARK    9  A    between atoms: C_34  and  C_36
REMARK                            x       y       z     vdW  Elec       q    Type
REMARK                         _______ _______ _______ _____ _____    ______ ____
ROOT
ATOM      1  O   LIG A   1      -9.146   4.471 132.448  0.00  0.00    -0.293 OA
ATOM      2  C   LIG A   1      -8.434   4.130 131.501  0.00  0.00    +0.182 C 
ATOM      3  C   LIG A   1      -9.007   4.103 130.090  0.00  0.00    +0.111 C 
ATOM      4  C   LIG A   1      -8.573   2.796 129.468  0.00  0.00    +0.135 C 
ATOM      5  C   LIG A   1      -7.045   2.635 129.383  0.00  0.00    +0.038 C 
ATOM      6  C   LIG A   1      -6.468   3.810 128.545  0.00  0.00    +0.017 C 
ATOM      7  C   LIG A   1      -6.431   2.627 130.817  0.00  0.00    +0.156 C 
ATOM      8  C   LIG A   1      -6.922   3.810 131.699  0.00  0.00    +0.200 C 
ATOM      9  O   LIG A   1      -6.679   3.363 133.048  0.00  0.00    -0.446 OA
ATOM     10  C   LIG A   1      -6.699   2.010 133.112  0.00  0.00    +0.340 C 
ATOM     11  C   LIG A   1      -6.734   1.409 131.727  0.00  0.00    +0.259 C 
ATOM     12  O   LIG A   1      -6.705   1.364 134.150  0.00  0.00    -0.248 OA
ATOM     13  C   LIG A   1      -6.139   5.122 131.601  0.00  0.00    +0.067 C 
ATOM     14  C   LIG A   1      -6.969   1.290 128.586  0.00  0.00    +0.066 C 
ATOM     15  C   LIG A   1      -5.768   0.899 127.673  0.00  0.00    +0.101 C 
ATOM     16  C   LIG A   1      -5.271   1.898 126.612  0.00  0.00    +0.044 C 
ATOM     17  C   LIG A   1      -6.144  -0.402 126.962  0.00  0.00    +0.133 C 
ATOM     18  O   LIG A   1      -5.518  -1.611 127.433  0.00  0.00    -0.361 OA
ATOM     19  C   LIG A   1      -7.550  -0.599 126.361  0.00  0.00    +0.037 C 
ATOM     20  C   LIG A   1      -8.349   0.737 126.445  0.00  0.00    +0.153 C 
ATOM     21  C   LIG A   1      -8.353   1.218 127.896  0.00  0.00    +0.154 C 
ATOM     22  O   LIG A   1      -8.985   2.511 128.119  0.00  0.00    -0.369 OA
ATOM     23  C   LIG A   1      -8.288  -1.736 127.119  0.00  0.00    +0.017 C 
ATOM     24  C   LIG A   1      -5.152  -1.163 126.128  0.00  0.00    +0.155 C 
ATOM     25  C   LIG A   1      -5.874  -1.797 124.982  0.00  0.00    +0.043 C 
ATOM     26  C   LIG A   1      -7.214  -1.016 124.883  0.00  0.00    +0.036 C 
ENDROOT
BRANCH  26  27
ATOM     27  C   LIG A   1      -8.287  -1.748 124.129  0.00  0.00    -0.006 A 
ATOM     28  C   LIG A   1      -9.243  -1.236 123.270  0.00  0.00    +0.198 A 
ATOM     29  O   LIG A   1     -10.035  -2.219 122.775  0.00  0.00    -0.471 OA
ATOM     30  C   LIG A   1      -9.592  -3.384 123.305  0.00  0.00    +0.195 A 
ATOM     31  C   LIG A   1      -8.529  -3.153 124.145  0.00  0.00    +0.045 A 
ENDBRANCH  26  27
BRANCH  11  32
ATOM     32  O   LIG A   1      -7.995   0.800 131.534  0.00  0.00    -0.378 OA
ATOM     33  H   LIG A   1      -8.214   0.329 132.365  0.00  0.00    +0.211 HD
ENDBRANCH  11  32
BRANCH   7  34
ATOM     34  O   LIG A   1      -4.992   2.660 130.630  0.00  0.00    -0.380 OA
ATOM     35  H   LIG A   1      -4.670   1.765 130.401  0.00  0.00    +0.210 HD
ENDBRANCH   7  34
BRANCH  20  36
ATOM     36  O   LIG A   1      -9.700   0.581 126.010  0.00  0.00    -0.389 OA
ATOM     37  H   LIG A   1      -9.960  -0.334 126.229  0.00  0.00    +0.210 HD
ENDBRANCH  20  36
BRANCH  15  38
ATOM     38  O   LIG A   1      -4.646   0.671 128.540  0.00  0.00    -0.386 OA
ATOM     39  H   LIG A   1      -4.049   1.442 128.480  0.00  0.00    +0.210 HD
ENDBRANCH  15  38
TORSDOF 5
ENDMDL
MODEL 9
REMARK VINA RESULT:      -8.6      4.679      8.725
REMARK  Name = NuBBE_1441
REMARK  9 active torsions:
REMARK  status: ('A' for Active; 'I' for Inactive)
REMARK    1  A    between atoms: C_6  and  C_7
REMARK    2  A    between atoms: C_8  and  O_17
REMARK    3  A    between atoms: C_9  and  C_16
REMARK    4  A    between atoms: C_12  and  O_14
REMARK    5  A    between atoms: C_19  and  C_20
REMARK    6  A    between atoms: C_19  and  O_41
REMARK    7  A    between atoms: C_23  and  C_30
REMARK    8  A    between atoms: C_24  and  O_26
REMARK    9  A    between atoms: C_34  and  C_36
REMARK                            x       y       z     vdW  Elec       q    Type
REMARK                         _______ _______ _______ _____ _____    ______ ____
ROOT
ATOM      1  O   LIG A   1      -3.944   6.943 127.761  0.00  0.00    -0.293 OA
ATOM      2  C   LIG A   1      -3.981   5.764 128.120  0.00  0.00    +0.182 C 
ATOM      3  C   LIG A   1      -3.777   4.652 127.099  0.00  0.00    +0.111 C 
ATOM      4  C   LIG A   1      -4.855   3.624 127.353  0.00  0.00    +0.135 C 
ATOM      5  C   LIG A   1      -4.800   3.014 128.765  0.00  0.00    +0.038 C 
ATOM      6  C   LIG A   1      -3.409   2.348 128.963  0.00  0.00    +0.017 C 
ATOM      7  C   LIG A   1      -5.036   4.126 129.834  0.00  0.00    +0.156 C 
ATOM      8  C   LIG A   1      -4.142   5.379 129.621  0.00  0.00    +0.200 C 
ATOM      9  O   LIG A   1      -4.833   6.425 130.333  0.00  0.00    -0.446 OA
ATOM     10  C   LIG A   1      -6.160   6.159 130.399  0.00  0.00    +0.340 C 
ATOM     11  C   LIG A   1      -6.450   4.757 129.919  0.00  0.00    +0.259 C 
ATOM     12  O   LIG A   1      -7.009   6.952 130.780  0.00  0.00    -0.248 OA
ATOM     13  C   LIG A   1      -2.751   5.358 130.261  0.00  0.00    +0.067 C 
ATOM     14  C   LIG A   1      -5.921   1.932 128.625  0.00  0.00    +0.066 C 
ATOM     15  C   LIG A   1      -5.953   0.613 129.456  0.00  0.00    +0.101 C 
ATOM     16  C   LIG A   1      -4.695  -0.273 129.512  0.00  0.00    +0.044 C 
ATOM     17  C   LIG A   1      -7.108  -0.233 128.920  0.00  0.00    +0.133 C 
ATOM     18  O   LIG A   1      -8.300  -0.300 129.725  0.00  0.00    -0.361 OA
ATOM     19  C   LIG A   1      -7.348  -0.377 127.404  0.00  0.00    +0.037 C 
ATOM     20  C   LIG A   1      -6.173   0.284 126.621  0.00  0.00    +0.153 C 
ATOM     21  C   LIG A   1      -6.018   1.730 127.094  0.00  0.00    +0.154 C 
ATOM     22  O   LIG A   1      -4.894   2.454 126.517  0.00  0.00    -0.369 OA
ATOM     23  C   LIG A   1      -8.705   0.276 127.025  0.00  0.00    +0.017 C 
ATOM     24  C   LIG A   1      -7.540  -1.502 129.599  0.00  0.00    +0.155 C 
ATOM     25  C   LIG A   1      -8.001  -2.472 128.559  0.00  0.00    +0.043 C 
ATOM     26  C   LIG A   1      -7.392  -1.940 127.232  0.00  0.00    +0.036 C 
ENDROOT
BRANCH  26  27
ATOM     27  C   LIG A   1      -8.075  -2.462 126.000  0.00  0.00    -0.006 A 
ATOM     28  C   LIG A   1      -9.421  -2.711 125.797  0.00  0.00    +0.198 A 
ATOM     29  O   LIG A   1      -9.652  -3.173 124.544  0.00  0.00    -0.471 OA
ATOM     30  C   LIG A   1      -8.452  -3.220 123.917  0.00  0.00    +0.195 A 
ATOM     31  C   LIG A   1      -7.453  -2.803 124.763  0.00  0.00    +0.045 A 
ENDBRANCH  26  27
BRANCH  11  32
ATOM     32  O   LIG A   1      -7.158   4.839 128.698  0.00  0.00    -0.378 OA
ATOM     33  H   LIG A   1      -6.525   4.613 127.986  0.00  0.00    +0.211 HD
ENDBRANCH  11  32
BRANCH   7  34
ATOM     34  O   LIG A   1      -4.782   3.498 131.118  0.00  0.00    -0.380 OA
ATOM     35  H   LIG A   1      -4.377   4.148 131.726  0.00  0.00    +0.210 HD
ENDBRANCH   7  34
BRANCH  20  36
ATOM     36  O   LIG A   1      -6.402   0.284 125.212  0.00  0.00    -0.389 OA
ATOM     37  H   LIG A   1      -5.630   0.724 124.805  0.00  0.00    +0.210 HD
ENDBRANCH  20  36
BRANCH  15  38
ATOM     38  O   LIG A   1      -6.217   0.989 130.817  0.00  0.00    -0.386 OA
ATOM     39  H   LIG A   1      -7.165   0.835 131.000  0.00  0.00    +0.210 HD
ENDBRANCH  15  38
TORSDOF 5
ENDMDL
