MODEL 1
REMARK VINA RESULT:      -6.9      0.000      0.000
REMARK  Name = NuBBE_2478
REMARK  14 active torsions:
REMARK  status: ('A' for Active; 'I' for Inactive)
REMARK    1  A    between atoms: C_1  and  C_2
REMARK    2  A    between atoms: C_1  and  C_4
REMARK    3  A    between atoms: C_4  and  O_5
REMARK    4  A    between atoms: O_5  and  C_6
REMARK    5  A    between atoms: C_10  and  O_13
REMARK    6  A    between atoms: O_13  and  C_14
REMARK    7  A    between atoms: C_16  and  C_21
REMARK    8  A    between atoms: C_18  and  C_20
REMARK    9  A    between atoms: C_23  and  O_24
REMARK   10  A    between atoms: O_24  and  C_25
REMARK   11  A    between atoms: C_26  and  O_31
REMARK   12  A    between atoms: C_27  and  O_29
REMARK   13  A    between atoms: O_29  and  C_30
REMARK   14  A    between atoms: O_31  and  C_32
REMARK                            x       y       z     vdW  Elec       q    Type
REMARK                         _______ _______ _______ _____ _____    ______ ____
ROOT
ATOM      1  C   LIG A   1      -7.077  -2.376 124.037  0.00  0.00    +0.156 C 
ATOM      2  C   LIG A   1      -7.417  -3.224 125.233  0.00  0.00    +0.023 C 
ATOM      3  C   LIG A   1      -7.769  -2.668 126.390  0.00  0.00    +0.004 C 
ATOM      4  C   LIG A   1      -7.853  -1.248 126.578  0.00  0.00    +0.170 C 
ATOM      5  C   LIG A   1      -7.595  -0.328 125.633  0.00  0.00    +0.208 C 
ATOM      6  C   LIG A   1      -7.162  -0.839 124.271  0.00  0.00    +0.237 C 
ATOM      7  O   LIG A   1      -6.881  -0.072 123.360  0.00  0.00    -0.285 OA
ATOM      8  O   LIG A   1      -8.199  -0.958 127.892  0.00  0.00    -0.480 OA
ATOM      9  C   LIG A   1      -7.923  -2.164 128.656  0.00  0.00    +0.211 C 
ATOM     10  C   LIG A   1      -8.082  -3.341 127.678  0.00  0.00    +0.065 C 
ATOM     11  C   LIG A   1      -9.500  -3.907 127.678  0.00  0.00    +0.016 C 
ENDROOT
BRANCH   9  12
ATOM     12  C   LIG A   1      -6.556  -2.110 129.332  0.00  0.00    +0.000 A 
ATOM     13  C   LIG A   1      -5.827  -0.918 129.398  0.00  0.00    +0.057 A 
ATOM     14  C   LIG A   1      -4.572  -0.867 130.006  0.00  0.00    +0.166 A 
ATOM     15  C   LIG A   1      -4.069  -2.008 130.663  0.00  0.00    +0.203 A 
ATOM     16  C   LIG A   1      -4.772  -3.230 130.584  0.00  0.00    +0.166 A 
ATOM     17  C   LIG A   1      -6.004  -3.262 129.914  0.00  0.00    +0.057 A 
BRANCH  14  18
ATOM     18  O   LIG A   1      -3.815   0.281 130.027  0.00  0.00    -0.491 OA
ATOM     19  C   LIG A   1      -4.445   1.422 130.613  0.00  0.00    +0.277 C 
ENDBRANCH  14  18
BRANCH  16  20
ATOM     20  O   LIG A   1      -4.192  -4.366 131.102  0.00  0.00    -0.491 OA
ATOM     21  C   LIG A   1      -4.783  -4.898 132.288  0.00  0.00    +0.277 C 
ENDBRANCH  16  20
BRANCH  15  22
ATOM     22  O   LIG A   1      -2.849  -1.862 131.278  0.00  0.00    -0.488 OA
ATOM     23  C   LIG A   1      -2.891  -1.575 132.673  0.00  0.00    +0.277 C 
ENDBRANCH  15  22
ENDBRANCH   9  12
BRANCH   1  24
ATOM     24  O   LIG A   1      -7.931  -2.782 122.953  0.00  0.00    -0.364 OA
ATOM     25  C   LIG A   1      -9.320  -2.844 123.277  0.00  0.00    +0.195 C 
ENDBRANCH   1  24
BRANCH   5  26
ATOM     26  O   LIG A   1      -7.647   1.034 125.923  0.00  0.00    -0.488 OA
ATOM     27  C   LIG A   1      -8.868   1.696 125.596  0.00  0.00    +0.277 C 
ENDBRANCH   5  26
BRANCH   1  28
ATOM     28  C   LIG A   1      -5.608  -2.657 123.612  0.00  0.00    +0.074 C 
BRANCH  28  29
ATOM     29  C   LIG A   1      -4.989  -3.917 124.182  0.00  0.00    -0.031 C 
ATOM     30  C   LIG A   1      -4.259  -4.776 123.459  0.00  0.00    +0.004 C 
ENDBRANCH  28  29
ENDBRANCH   1  28
TORSDOF 8
ENDMDL
MODEL 2
REMARK VINA RESULT:      -6.9      0.259      2.319
REMARK  Name = NuBBE_2478
REMARK  14 active torsions:
REMARK  status: ('A' for Active; 'I' for Inactive)
REMARK    1  A    between atoms: C_1  and  C_2
REMARK    2  A    between atoms: C_1  and  C_4
REMARK    3  A    between atoms: C_4  and  O_5
REMARK    4  A    between atoms: O_5  and  C_6
REMARK    5  A    between atoms: C_10  and  O_13
REMARK    6  A    between atoms: O_13  and  C_14
REMARK    7  A    between atoms: C_16  and  C_21
REMARK    8  A    between atoms: C_18  and  C_20
REMARK    9  A    between atoms: C_23  and  O_24
REMARK   10  A    between atoms: O_24  and  C_25
REMARK   11  A    between atoms: C_26  and  O_31
REMARK   12  A    between atoms: C_27  and  O_29
REMARK   13  A    between atoms: O_29  and  C_30
REMARK   14  A    between atoms: O_31  and  C_32
REMARK                            x       y       z     vdW  Elec       q    Type
REMARK                         _______ _______ _______ _____ _____    ______ ____
ROOT
ATOM      1  C   LIG A   1      -7.049  -2.400 124.047  0.00  0.00    +0.156 C 
ATOM      2  C   LIG A   1      -7.394  -3.239 125.248  0.00  0.00    +0.023 C 
ATOM      3  C   LIG A   1      -7.762  -2.675 126.397  0.00  0.00    +0.004 C 
ATOM      4  C   LIG A   1      -7.860  -1.254 126.569  0.00  0.00    +0.170 C 
ATOM      5  C   LIG A   1      -7.601  -0.341 125.618  0.00  0.00    +0.208 C 
ATOM      6  C   LIG A   1      -7.150  -0.862 124.266  0.00  0.00    +0.237 C 
ATOM      7  O   LIG A   1      -6.867  -0.101 123.350  0.00  0.00    -0.285 OA
ATOM      8  O   LIG A   1      -8.221  -0.953 127.877  0.00  0.00    -0.480 OA
ATOM      9  C   LIG A   1      -7.942  -2.150 128.656  0.00  0.00    +0.211 C 
ATOM     10  C   LIG A   1      -8.081  -3.338 127.688  0.00  0.00    +0.065 C 
ATOM     11  C   LIG A   1      -9.494  -3.915 127.680  0.00  0.00    +0.016 C 
ENDROOT
BRANCH   9  12
ATOM     12  C   LIG A   1      -6.582  -2.077 129.344  0.00  0.00    +0.000 A 
ATOM     13  C   LIG A   1      -5.988  -3.216 129.899  0.00  0.00    +0.057 A 
ATOM     14  C   LIG A   1      -4.750  -3.150 130.538  0.00  0.00    +0.166 A 
ATOM     15  C   LIG A   1      -4.027  -1.941 130.536  0.00  0.00    +0.203 A 
ATOM     16  C   LIG A   1      -4.618  -0.771 130.010  0.00  0.00    +0.166 A 
ATOM     17  C   LIG A   1      -5.890  -0.858 129.425  0.00  0.00    +0.057 A 
BRANCH  14  18
ATOM     18  O   LIG A   1      -4.179  -4.246 131.142  0.00  0.00    -0.491 OA
ATOM     19  C   LIG A   1      -4.944  -4.835 132.196  0.00  0.00    +0.277 C 
ENDBRANCH  14  18
BRANCH  16  20
ATOM     20  O   LIG A   1      -3.959   0.429 130.152  0.00  0.00    -0.491 OA
ATOM     21  C   LIG A   1      -4.380   1.492 129.296  0.00  0.00    +0.277 C 
ENDBRANCH  16  20
BRANCH  15  22
ATOM     22  O   LIG A   1      -2.795  -1.972 131.145  0.00  0.00    -0.488 OA
ATOM     23  C   LIG A   1      -2.778  -1.603 132.521  0.00  0.00    +0.277 C 
ENDBRANCH  15  22
ENDBRANCH   9  12
BRANCH   1  24
ATOM     24  O   LIG A   1      -7.890  -2.824 122.960  0.00  0.00    -0.364 OA
ATOM     25  C   LIG A   1      -9.288  -2.808 123.243  0.00  0.00    +0.195 C 
ENDBRANCH   1  24
BRANCH   5  26
ATOM     26  O   LIG A   1      -7.667   1.023 125.893  0.00  0.00    -0.488 OA
ATOM     27  C   LIG A   1      -8.876   1.679 125.512  0.00  0.00    +0.277 C 
ENDBRANCH   5  26
BRANCH   1  28
ATOM     28  C   LIG A   1      -5.574  -2.673 123.639  0.00  0.00    +0.074 C 
BRANCH  28  29
ATOM     29  C   LIG A   1      -4.952  -3.925 124.222  0.00  0.00    -0.031 C 
ATOM     30  C   LIG A   1      -4.321  -4.850 123.487  0.00  0.00    +0.004 C 
ENDBRANCH  28  29
ENDBRANCH   1  28
TORSDOF 8
ENDMDL
MODEL 3
REMARK VINA RESULT:      -6.5      1.179      1.302
REMARK  Name = NuBBE_2478
REMARK  14 active torsions:
REMARK  status: ('A' for Active; 'I' for Inactive)
REMARK    1  A    between atoms: C_1  and  C_2
REMARK    2  A    between atoms: C_1  and  C_4
REMARK    3  A    between atoms: C_4  and  O_5
REMARK    4  A    between atoms: O_5  and  C_6
REMARK    5  A    between atoms: C_10  and  O_13
REMARK    6  A    between atoms: O_13  and  C_14
REMARK    7  A    between atoms: C_16  and  C_21
REMARK    8  A    between atoms: C_18  and  C_20
REMARK    9  A    between atoms: C_23  and  O_24
REMARK   10  A    between atoms: O_24  and  C_25
REMARK   11  A    between atoms: C_26  and  O_31
REMARK   12  A    between atoms: C_27  and  O_29
REMARK   13  A    between atoms: O_29  and  C_30
REMARK   14  A    between atoms: O_31  and  C_32
REMARK                            x       y       z     vdW  Elec       q    Type
REMARK                         _______ _______ _______ _____ _____    ______ ____
ROOT
ATOM      1  C   LIG A   1      -6.754  -2.227 124.668  0.00  0.00    +0.156 C 
ATOM      2  C   LIG A   1      -7.098  -3.096 125.848  0.00  0.00    +0.023 C 
ATOM      3  C   LIG A   1      -7.526  -2.564 126.991  0.00  0.00    +0.004 C 
ATOM      4  C   LIG A   1      -7.693  -1.151 127.177  0.00  0.00    +0.170 C 
ATOM      5  C   LIG A   1      -7.445  -0.215 126.245  0.00  0.00    +0.208 C 
ATOM      6  C   LIG A   1      -6.929  -0.698 124.902  0.00  0.00    +0.237 C 
ATOM      7  O   LIG A   1      -6.652   0.087 124.004  0.00  0.00    -0.285 OA
ATOM      8  O   LIG A   1      -8.107  -0.884 128.476  0.00  0.00    -0.480 OA
ATOM      9  C   LIG A   1      -7.800  -2.077 129.248  0.00  0.00    +0.211 C 
ATOM     10  C   LIG A   1      -7.856  -3.257 128.263  0.00  0.00    +0.065 C 
ATOM     11  C   LIG A   1      -9.241  -3.896 128.203  0.00  0.00    +0.016 C 
ENDROOT
BRANCH   9  12
ATOM     12  C   LIG A   1      -6.467  -1.954 129.981  0.00  0.00    +0.000 A 
ATOM     13  C   LIG A   1      -6.212  -0.884 130.846  0.00  0.00    +0.057 A 
ATOM     14  C   LIG A   1      -4.990  -0.763 131.510  0.00  0.00    +0.166 A 
ATOM     15  C   LIG A   1      -4.030  -1.788 131.395  0.00  0.00    +0.203 A 
ATOM     16  C   LIG A   1      -4.251  -2.861 130.504  0.00  0.00    +0.166 A 
ATOM     17  C   LIG A   1      -5.467  -2.924 129.807  0.00  0.00    +0.057 A 
BRANCH  14  18
ATOM     18  O   LIG A   1      -4.699   0.312 132.316  0.00  0.00    -0.491 OA
ATOM     19  C   LIG A   1      -5.541   0.468 133.461  0.00  0.00    +0.277 C 
ENDBRANCH  14  18
BRANCH  16  20
ATOM     20  O   LIG A   1      -3.240  -3.770 130.293  0.00  0.00    -0.491 OA
ATOM     21  C   LIG A   1      -2.728  -3.855 128.963  0.00  0.00    +0.277 C 
ENDBRANCH  16  20
BRANCH  15  22
ATOM     22  O   LIG A   1      -2.873  -1.615 132.116  0.00  0.00    -0.488 OA
ATOM     23  C   LIG A   1      -2.851  -2.227 133.403  0.00  0.00    +0.277 C 
ENDBRANCH  15  22
ENDBRANCH   9  12
BRANCH   1  24
ATOM     24  O   LIG A   1      -7.540  -2.673 123.550  0.00  0.00    -0.364 OA
ATOM     25  C   LIG A   1      -8.951  -2.635 123.757  0.00  0.00    +0.195 C 
ENDBRANCH   1  24
BRANCH   5  26
ATOM     26  O   LIG A   1      -7.580   1.141 126.534  0.00  0.00    -0.488 OA
ATOM     27  C   LIG A   1      -8.829   1.733 126.180  0.00  0.00    +0.277 C 
ENDBRANCH   5  26
BRANCH   1  28
ATOM     28  C   LIG A   1      -5.255  -2.429 124.304  0.00  0.00    +0.074 C 
BRANCH  28  29
ATOM     29  C   LIG A   1      -4.966  -3.516 123.290  0.00  0.00    -0.031 C 
ATOM     30  C   LIG A   1      -4.170  -4.565 123.535  0.00  0.00    +0.004 C 
ENDBRANCH  28  29
ENDBRANCH   1  28
TORSDOF 8
ENDMDL
MODEL 4
REMARK VINA RESULT:      -6.5      2.913      4.907
REMARK  Name = NuBBE_2478
REMARK  14 active torsions:
REMARK  status: ('A' for Active; 'I' for Inactive)
REMARK    1  A    between atoms: C_1  and  C_2
REMARK    2  A    between atoms: C_1  and  C_4
REMARK    3  A    between atoms: C_4  and  O_5
REMARK    4  A    between atoms: O_5  and  C_6
REMARK    5  A    between atoms: C_10  and  O_13
REMARK    6  A    between atoms: O_13  and  C_14
REMARK    7  A    between atoms: C_16  and  C_21
REMARK    8  A    between atoms: C_18  and  C_20
REMARK    9  A    between atoms: C_23  and  O_24
REMARK   10  A    between atoms: O_24  and  C_25
REMARK   11  A    between atoms: C_26  and  O_31
REMARK   12  A    between atoms: C_27  and  O_29
REMARK   13  A    between atoms: O_29  and  C_30
REMARK   14  A    between atoms: O_31  and  C_32
REMARK                            x       y       z     vdW  Elec       q    Type
REMARK                         _______ _______ _______ _____ _____    ______ ____
ROOT
ATOM      1  C   LIG A   1      -4.898   3.030 126.581  0.00  0.00    +0.156 C 
ATOM      2  C   LIG A   1      -4.869   1.588 126.152  0.00  0.00    +0.023 C 
ATOM      3  C   LIG A   1      -5.920   0.793 126.346  0.00  0.00    +0.004 C 
ATOM      4  C   LIG A   1      -7.135   1.245 126.960  0.00  0.00    +0.170 C 
ATOM      5  C   LIG A   1      -7.357   2.494 127.404  0.00  0.00    +0.208 C 
ATOM      6  C   LIG A   1      -6.222   3.491 127.258  0.00  0.00    +0.237 C 
ATOM      7  O   LIG A   1      -6.328   4.643 127.659  0.00  0.00    -0.285 OA
ATOM      8  O   LIG A   1      -8.036   0.194 127.070  0.00  0.00    -0.480 OA
ATOM      9  C   LIG A   1      -7.254  -1.023 126.919  0.00  0.00    +0.211 C 
ATOM     10  C   LIG A   1      -6.048  -0.656 126.039  0.00  0.00    +0.065 C 
ATOM     11  C   LIG A   1      -6.321  -0.887 124.555  0.00  0.00    +0.016 C 
ENDROOT
BRANCH   9  12
ATOM     12  C   LIG A   1      -6.868  -1.623 128.269  0.00  0.00    +0.000 A 
ATOM     13  C   LIG A   1      -5.786  -2.501 128.388  0.00  0.00    +0.057 A 
ATOM     14  C   LIG A   1      -5.436  -3.058 129.619  0.00  0.00    +0.166 A 
ATOM     15  C   LIG A   1      -6.114  -2.653 130.786  0.00  0.00    +0.203 A 
ATOM     16  C   LIG A   1      -7.230  -1.793 130.686  0.00  0.00    +0.166 A 
ATOM     17  C   LIG A   1      -7.592  -1.294 129.426  0.00  0.00    +0.057 A 
BRANCH  14  18
ATOM     18  O   LIG A   1      -4.414  -3.969 129.746  0.00  0.00    -0.491 OA
ATOM     19  C   LIG A   1      -3.136  -3.527 129.285  0.00  0.00    +0.277 C 
ENDBRANCH  14  18
BRANCH  16  20
ATOM     20  O   LIG A   1      -7.970  -1.529 131.817  0.00  0.00    -0.491 OA
ATOM     21  C   LIG A   1      -8.163  -0.152 132.144  0.00  0.00    +0.277 C 
ENDBRANCH  16  20
BRANCH  15  22
ATOM     22  O   LIG A   1      -5.679  -3.214 131.963  0.00  0.00    -0.488 OA
ATOM     23  C   LIG A   1      -4.805  -2.405 132.745  0.00  0.00    +0.277 C 
ENDBRANCH  15  22
ENDBRANCH   9  12
BRANCH   1  24
ATOM     24  O   LIG A   1      -4.598   3.837 125.429  0.00  0.00    -0.364 OA
ATOM     25  C   LIG A   1      -5.590   3.810 124.405  0.00  0.00    +0.195 C 
ENDBRANCH   1  24
BRANCH   5  26
ATOM     26  O   LIG A   1      -8.550   2.829 128.041  0.00  0.00    -0.488 OA
ATOM     27  C   LIG A   1      -8.585   2.620 129.452  0.00  0.00    +0.277 C 
ENDBRANCH   5  26
BRANCH   1  28
ATOM     28  C   LIG A   1      -3.779   3.273 127.634  0.00  0.00    +0.074 C 
BRANCH  28  29
ATOM     29  C   LIG A   1      -2.454   3.759 127.084  0.00  0.00    -0.031 C 
ATOM     30  C   LIG A   1      -1.486   2.940 126.654  0.00  0.00    +0.004 C 
ENDBRANCH  28  29
ENDBRANCH   1  28
TORSDOF 8
ENDMDL
MODEL 5
REMARK VINA RESULT:      -6.5      2.587      7.172
REMARK  Name = NuBBE_2478
REMARK  14 active torsions:
REMARK  status: ('A' for Active; 'I' for Inactive)
REMARK    1  A    between atoms: C_1  and  C_2
REMARK    2  A    between atoms: C_1  and  C_4
REMARK    3  A    between atoms: C_4  and  O_5
REMARK    4  A    between atoms: O_5  and  C_6
REMARK    5  A    between atoms: C_10  and  O_13
REMARK    6  A    between atoms: O_13  and  C_14
REMARK    7  A    between atoms: C_16  and  C_21
REMARK    8  A    between atoms: C_18  and  C_20
REMARK    9  A    between atoms: C_23  and  O_24
REMARK   10  A    between atoms: O_24  and  C_25
REMARK   11  A    between atoms: C_26  and  O_31
REMARK   12  A    between atoms: C_27  and  O_29
REMARK   13  A    between atoms: O_29  and  C_30
REMARK   14  A    between atoms: O_31  and  C_32
REMARK                            x       y       z     vdW  Elec       q    Type
REMARK                         _______ _______ _______ _____ _____    ______ ____
ROOT
ATOM      1  C   LIG A   1      -7.257  -2.131 131.407  0.00  0.00    +0.156 C 
ATOM      2  C   LIG A   1      -8.108  -2.280 130.174  0.00  0.00    +0.023 C 
ATOM      3  C   LIG A   1      -7.555  -2.401 128.969  0.00  0.00    +0.004 C 
ATOM      4  C   LIG A   1      -6.136  -2.404 128.761  0.00  0.00    +0.170 C 
ATOM      5  C   LIG A   1      -5.213  -2.289 129.731  0.00  0.00    +0.208 C 
ATOM      6  C   LIG A   1      -5.722  -2.123 131.151  0.00  0.00    +0.237 C 
ATOM      7  O   LIG A   1      -4.953  -1.985 132.094  0.00  0.00    -0.285 OA
ATOM      8  O   LIG A   1      -5.850  -2.499 127.404  0.00  0.00    -0.480 OA
ATOM      9  C   LIG A   1      -7.073  -2.131 126.710  0.00  0.00    +0.211 C 
ATOM     10  C   LIG A   1      -8.233  -2.500 127.650  0.00  0.00    +0.065 C 
ATOM     11  C   LIG A   1      -8.754  -3.913 127.399  0.00  0.00    +0.016 C 
ENDROOT
BRANCH   9  12
ATOM     12  C   LIG A   1      -7.069  -0.663 126.289  0.00  0.00    +0.000 A 
ATOM     13  C   LIG A   1      -5.883   0.080 126.263  0.00  0.00    +0.057 A 
ATOM     14  C   LIG A   1      -5.878   1.424 125.889  0.00  0.00    +0.166 A 
ATOM     15  C   LIG A   1      -7.066   2.023 125.424  0.00  0.00    +0.203 A 
ATOM     16  C   LIG A   1      -8.280   1.304 125.471  0.00  0.00    +0.166 A 
ATOM     17  C   LIG A   1      -8.262  -0.029 125.907  0.00  0.00    +0.057 A 
BRANCH  14  18
ATOM     18  O   LIG A   1      -4.734   2.186 125.915  0.00  0.00    -0.491 OA
ATOM     19  C   LIG A   1      -4.209   2.462 127.216  0.00  0.00    +0.277 C 
ENDBRANCH  14  18
BRANCH  16  20
ATOM     20  O   LIG A   1      -9.451   1.954 125.156  0.00  0.00    -0.491 OA
ATOM     21  C   LIG A   1     -10.094   1.557 123.943  0.00  0.00    +0.277 C 
ENDBRANCH  16  20
BRANCH  15  22
ATOM     22  O   LIG A   1      -6.966   3.336 125.031  0.00  0.00    -0.488 OA
ATOM     23  C   LIG A   1      -6.775   3.549 123.635  0.00  0.00    +0.277 C 
ENDBRANCH  15  22
ENDBRANCH   9  12
BRANCH   1  24
ATOM     24  O   LIG A   1      -7.624  -3.179 132.322  0.00  0.00    -0.364 OA
ATOM     25  C   LIG A   1      -8.010  -2.731 133.621  0.00  0.00    +0.195 C 
ENDBRANCH   1  24
BRANCH   5  26
ATOM     26  O   LIG A   1      -3.854  -2.244 129.429  0.00  0.00    -0.488 OA
ATOM     27  C   LIG A   1      -3.172  -3.497 129.430  0.00  0.00    +0.277 C 
ENDBRANCH   5  26
BRANCH   1  28
ATOM     28  C   LIG A   1      -7.579  -0.772 132.089  0.00  0.00    +0.074 C 
BRANCH  28  29
ATOM     29  C   LIG A   1      -8.559   0.118 131.352  0.00  0.00    -0.031 C 
ATOM     30  C   LIG A   1      -9.387   0.974 131.965  0.00  0.00    +0.004 C 
ENDBRANCH  28  29
ENDBRANCH   1  28
TORSDOF 8
ENDMDL
MODEL 6
REMARK VINA RESULT:      -6.4      2.970      4.801
REMARK  Name = NuBBE_2478
REMARK  14 active torsions:
REMARK  status: ('A' for Active; 'I' for Inactive)
REMARK    1  A    between atoms: C_1  and  C_2
REMARK    2  A    between atoms: C_1  and  C_4
REMARK    3  A    between atoms: C_4  and  O_5
REMARK    4  A    between atoms: O_5  and  C_6
REMARK    5  A    between atoms: C_10  and  O_13
REMARK    6  A    between atoms: O_13  and  C_14
REMARK    7  A    between atoms: C_16  and  C_21
REMARK    8  A    between atoms: C_18  and  C_20
REMARK    9  A    between atoms: C_23  and  O_24
REMARK   10  A    between atoms: O_24  and  C_25
REMARK   11  A    between atoms: C_26  and  O_31
REMARK   12  A    between atoms: C_27  and  O_29
REMARK   13  A    between atoms: O_29  and  C_30
REMARK   14  A    between atoms: O_31  and  C_32
REMARK                            x       y       z     vdW  Elec       q    Type
REMARK                         _______ _______ _______ _____ _____    ______ ____
ROOT
ATOM      1  C   LIG A   1      -4.857   3.117 126.565  0.00  0.00    +0.156 C 
ATOM      2  C   LIG A   1      -4.875   1.671 126.149  0.00  0.00    +0.023 C 
ATOM      3  C   LIG A   1      -5.955   0.916 126.340  0.00  0.00    +0.004 C 
ATOM      4  C   LIG A   1      -7.159   1.416 126.939  0.00  0.00    +0.170 C 
ATOM      5  C   LIG A   1      -7.341   2.676 127.369  0.00  0.00    +0.208 C 
ATOM      6  C   LIG A   1      -6.170   3.631 127.225  0.00  0.00    +0.237 C 
ATOM      7  O   LIG A   1      -6.238   4.789 127.614  0.00  0.00    -0.285 OA
ATOM      8  O   LIG A   1      -8.098   0.398 127.050  0.00  0.00    -0.480 OA
ATOM      9  C   LIG A   1      -7.358  -0.847 126.917  0.00  0.00    +0.211 C 
ATOM     10  C   LIG A   1      -6.131  -0.531 126.045  0.00  0.00    +0.065 C 
ATOM     11  C   LIG A   1      -6.400  -0.765 124.561  0.00  0.00    +0.016 C 
ENDROOT
BRANCH   9  12
ATOM     12  C   LIG A   1      -7.006  -1.447 128.276  0.00  0.00    +0.000 A 
ATOM     13  C   LIG A   1      -7.669  -1.045 129.440  0.00  0.00    +0.057 A 
ATOM     14  C   LIG A   1      -7.342  -1.585 130.684  0.00  0.00    +0.166 A 
ATOM     15  C   LIG A   1      -6.402  -2.631 130.766  0.00  0.00    +0.203 A 
ATOM     16  C   LIG A   1      -5.697  -3.033 129.610  0.00  0.00    +0.166 A 
ATOM     17  C   LIG A   1      -6.009  -2.430 128.382  0.00  0.00    +0.057 A 
BRANCH  14  18
ATOM     18  O   LIG A   1      -7.941  -1.159 131.847  0.00  0.00    -0.491 OA
ATOM     19  C   LIG A   1      -8.840  -0.057 131.707  0.00  0.00    +0.277 C 
ENDBRANCH  14  18
BRANCH  16  20
ATOM     20  O   LIG A   1      -4.678  -3.950 129.736  0.00  0.00    -0.491 OA
ATOM     21  C   LIG A   1      -3.388  -3.535 129.286  0.00  0.00    +0.277 C 
ENDBRANCH  16  20
BRANCH  15  22
ATOM     22  O   LIG A   1      -6.171  -3.140 132.021  0.00  0.00    -0.488 OA
ATOM     23  C   LIG A   1      -5.064  -2.577 132.720  0.00  0.00    +0.277 C 
ENDBRANCH  15  22
ENDBRANCH   9  12
BRANCH   1  24
ATOM     24  O   LIG A   1      -4.518   3.902 125.408  0.00  0.00    -0.364 OA
ATOM     25  C   LIG A   1      -5.508   3.912 124.380  0.00  0.00    +0.195 C 
ENDBRANCH   1  24
BRANCH   5  26
ATOM     26  O   LIG A   1      -8.526   3.058 127.992  0.00  0.00    -0.488 OA
ATOM     27  C   LIG A   1      -8.569   2.895 129.409  0.00  0.00    +0.277 C 
ENDBRANCH   5  26
BRANCH   1  28
ATOM     28  C   LIG A   1      -3.740   3.330 127.625  0.00  0.00    +0.074 C 
BRANCH  28  29
ATOM     29  C   LIG A   1      -2.396   3.773 127.084  0.00  0.00    -0.031 C 
ATOM     30  C   LIG A   1      -1.455   2.923 126.653  0.00  0.00    +0.004 C 
ENDBRANCH  28  29
ENDBRANCH   1  28
TORSDOF 8
ENDMDL
MODEL 7
REMARK VINA RESULT:      -6.4      3.118      5.036
REMARK  Name = NuBBE_2478
REMARK  14 active torsions:
REMARK  status: ('A' for Active; 'I' for Inactive)
REMARK    1  A    between atoms: C_1  and  C_2
REMARK    2  A    between atoms: C_1  and  C_4
REMARK    3  A    between atoms: C_4  and  O_5
REMARK    4  A    between atoms: O_5  and  C_6
REMARK    5  A    between atoms: C_10  and  O_13
REMARK    6  A    between atoms: O_13  and  C_14
REMARK    7  A    between atoms: C_16  and  C_21
REMARK    8  A    between atoms: C_18  and  C_20
REMARK    9  A    between atoms: C_23  and  O_24
REMARK   10  A    between atoms: O_24  and  C_25
REMARK   11  A    between atoms: C_26  and  O_31
REMARK   12  A    between atoms: C_27  and  O_29
REMARK   13  A    between atoms: O_29  and  C_30
REMARK   14  A    between atoms: O_31  and  C_32
REMARK                            x       y       z     vdW  Elec       q    Type
REMARK                         _______ _______ _______ _____ _____    ______ ____
ROOT
ATOM      1  C   LIG A   1      -7.372  -1.714 125.452  0.00  0.00    +0.156 C 
ATOM      2  C   LIG A   1      -7.022  -1.340 126.868  0.00  0.00    +0.023 C 
ATOM      3  C   LIG A   1      -7.538  -0.254 127.439  0.00  0.00    +0.004 C 
ATOM      4  C   LIG A   1      -8.453   0.620 126.762  0.00  0.00    +0.170 C 
ATOM      5  C   LIG A   1      -8.890   0.455 125.502  0.00  0.00    +0.208 C 
ATOM      6  C   LIG A   1      -8.354  -0.741 124.737  0.00  0.00    +0.237 C 
ATOM      7  O   LIG A   1      -8.678  -0.953 123.576  0.00  0.00    -0.285 OA
ATOM      8  O   LIG A   1      -8.790   1.690 127.583  0.00  0.00    -0.480 OA
ATOM      9  C   LIG A   1      -7.772   1.735 128.621  0.00  0.00    +0.211 C 
ATOM     10  C   LIG A   1      -7.265   0.293 128.793  0.00  0.00    +0.065 C 
ATOM     11  C   LIG A   1      -8.040  -0.470 129.865  0.00  0.00    +0.016 C 
ENDROOT
BRANCH   9  12
ATOM     12  C   LIG A   1      -6.669   2.737 128.294  0.00  0.00    +0.000 A 
ATOM     13  C   LIG A   1      -6.801   3.640 127.233  0.00  0.00    +0.057 A 
ATOM     14  C   LIG A   1      -5.790   4.550 126.925  0.00  0.00    +0.166 A 
ATOM     15  C   LIG A   1      -4.657   4.643 127.758  0.00  0.00    +0.203 A 
ATOM     16  C   LIG A   1      -4.487   3.723 128.816  0.00  0.00    +0.166 A 
ATOM     17  C   LIG A   1      -5.496   2.780 129.064  0.00  0.00    +0.057 A 
BRANCH  14  18
ATOM     18  O   LIG A   1      -5.876   5.403 125.850  0.00  0.00    -0.491 OA
ATOM     19  C   LIG A   1      -5.998   4.772 124.573  0.00  0.00    +0.277 C 
ENDBRANCH  14  18
BRANCH  16  20
ATOM     20  O   LIG A   1      -3.306   3.732 129.523  0.00  0.00    -0.491 OA
ATOM     21  C   LIG A   1      -3.379   4.171 130.880  0.00  0.00    +0.277 C 
ENDBRANCH  16  20
BRANCH  15  22
ATOM     22  O   LIG A   1      -3.730   5.597 127.413  0.00  0.00    -0.488 OA
ATOM     23  C   LIG A   1      -3.707   6.760 128.236  0.00  0.00    +0.277 C 
ENDBRANCH  15  22
ENDBRANCH   9  12
BRANCH   1  24
ATOM     24  O   LIG A   1      -7.891  -3.055 125.467  0.00  0.00    -0.364 OA
ATOM     25  C   LIG A   1      -9.070  -3.230 126.251  0.00  0.00    +0.195 C 
ENDBRANCH   1  24
BRANCH   5  26
ATOM     26  O   LIG A   1      -9.735   1.389 124.907  0.00  0.00    -0.488 OA
ATOM     27  C   LIG A   1      -9.094   2.453 124.204  0.00  0.00    +0.277 C 
ENDBRANCH   5  26
BRANCH   1  28
ATOM     28  C   LIG A   1      -6.078  -1.717 124.589  0.00  0.00    +0.074 C 
BRANCH  28  29
ATOM     29  C   LIG A   1      -5.815  -2.986 123.804  0.00  0.00    -0.031 C 
ATOM     30  C   LIG A   1      -4.600  -3.531 123.663  0.00  0.00    +0.004 C 
ENDBRANCH  28  29
ENDBRANCH   1  28
TORSDOF 8
ENDMDL
MODEL 8
REMARK VINA RESULT:      -6.3      4.117      8.326
REMARK  Name = NuBBE_2478
REMARK  14 active torsions:
REMARK  status: ('A' for Active; 'I' for Inactive)
REMARK    1  A    between atoms: C_1  and  C_2
REMARK    2  A    between atoms: C_1  and  C_4
REMARK    3  A    between atoms: C_4  and  O_5
REMARK    4  A    between atoms: O_5  and  C_6
REMARK    5  A    between atoms: C_10  and  O_13
REMARK    6  A    between atoms: O_13  and  C_14
REMARK    7  A    between atoms: C_16  and  C_21
REMARK    8  A    between atoms: C_18  and  C_20
REMARK    9  A    between atoms: C_23  and  O_24
REMARK   10  A    between atoms: O_24  and  C_25
REMARK   11  A    between atoms: C_26  and  O_31
REMARK   12  A    between atoms: C_27  and  O_29
REMARK   13  A    between atoms: O_29  and  C_30
REMARK   14  A    between atoms: O_31  and  C_32
REMARK                            x       y       z     vdW  Elec       q    Type
REMARK                         _______ _______ _______ _____ _____    ______ ____
ROOT
ATOM      1  C   LIG A   1      -8.324   3.944 132.017  0.00  0.00    +0.156 C 
ATOM      2  C   LIG A   1      -7.216   3.462 131.120  0.00  0.00    +0.023 C 
ATOM      3  C   LIG A   1      -7.244   3.694 129.809  0.00  0.00    +0.004 C 
ATOM      4  C   LIG A   1      -8.309   4.411 129.169  0.00  0.00    +0.170 C 
ATOM      5  C   LIG A   1      -9.381   4.924 129.796  0.00  0.00    +0.208 C 
ATOM      6  C   LIG A   1      -9.473   4.706 131.296  0.00  0.00    +0.237 C 
ATOM      7  O   LIG A   1     -10.427   5.116 131.944  0.00  0.00    -0.285 OA
ATOM      8  O   LIG A   1      -8.096   4.462 127.797  0.00  0.00    -0.480 OA
ATOM      9  C   LIG A   1      -7.125   3.421 127.502  0.00  0.00    +0.211 C 
ATOM     10  C   LIG A   1      -6.275   3.249 128.773  0.00  0.00    +0.065 C 
ATOM     11  C   LIG A   1      -5.031   4.134 128.762  0.00  0.00    +0.016 C 
ENDROOT
BRANCH   9  12
ATOM     12  C   LIG A   1      -7.796   2.132 127.035  0.00  0.00    +0.000 A 
ATOM     13  C   LIG A   1      -8.696   2.131 125.965  0.00  0.00    +0.057 A 
ATOM     14  C   LIG A   1      -9.319   0.956 125.542  0.00  0.00    +0.166 A 
ATOM     15  C   LIG A   1      -8.959  -0.274 126.129  0.00  0.00    +0.203 A 
ATOM     16  C   LIG A   1      -8.076  -0.294 127.230  0.00  0.00    +0.166 A 
ATOM     17  C   LIG A   1      -7.511   0.912 127.669  0.00  0.00    +0.057 A 
BRANCH  14  18
ATOM     18  O   LIG A   1     -10.252   0.945 124.532  0.00  0.00    -0.491 OA
ATOM     19  C   LIG A   1      -9.815   1.489 123.285  0.00  0.00    +0.277 C 
ENDBRANCH  14  18
BRANCH  16  20
ATOM     20  O   LIG A   1      -7.855  -1.486 127.884  0.00  0.00    -0.491 OA
ATOM     21  C   LIG A   1      -6.970  -1.443 129.004  0.00  0.00    +0.277 C 
ENDBRANCH  16  20
BRANCH  15  22
ATOM     22  O   LIG A   1      -9.584  -1.389 125.624  0.00  0.00    -0.488 OA
ATOM     23  C   LIG A   1      -8.839  -2.132 124.662  0.00  0.00    +0.277 C 
ENDBRANCH  15  22
ENDBRANCH   9  12
BRANCH   1  24
ATOM     24  O   LIG A   1      -7.732   4.754 133.048  0.00  0.00    -0.364 OA
ATOM     25  C   LIG A   1      -8.004   4.321 134.380  0.00  0.00    +0.195 C 
ENDBRANCH   1  24
BRANCH   5  26
ATOM     26  O   LIG A   1     -10.397   5.557 129.084  0.00  0.00    -0.488 OA
ATOM     27  C   LIG A   1     -10.288   6.975 128.967  0.00  0.00    +0.277 C 
ENDBRANCH   5  26
BRANCH   1  28
ATOM     28  C   LIG A   1      -8.994   2.720 132.704  0.00  0.00    +0.074 C 
BRANCH  28  29
ATOM     29  C   LIG A   1      -9.588   1.686 131.770  0.00  0.00    -0.031 C 
ATOM     30  C   LIG A   1      -9.150   0.424 131.688  0.00  0.00    +0.004 C 
ENDBRANCH  28  29
ENDBRANCH   1  28
TORSDOF 8
ENDMDL
MODEL 9
REMARK VINA RESULT:      -6.3      4.458      8.744
REMARK  Name = NuBBE_2478
REMARK  14 active torsions:
REMARK  status: ('A' for Active; 'I' for Inactive)
REMARK    1  A    between atoms: C_1  and  C_2
REMARK    2  A    between atoms: C_1  and  C_4
REMARK    3  A    between atoms: C_4  and  O_5
REMARK    4  A    between atoms: O_5  and  C_6
REMARK    5  A    between atoms: C_10  and  O_13
REMARK    6  A    between atoms: O_13  and  C_14
REMARK    7  A    between atoms: C_16  and  C_21
REMARK    8  A    between atoms: C_18  and  C_20
REMARK    9  A    between atoms: C_23  and  O_24
REMARK   10  A    between atoms: O_24  and  C_25
REMARK   11  A    between atoms: C_26  and  O_31
REMARK   12  A    between atoms: C_27  and  O_29
REMARK   13  A    between atoms: O_29  and  C_30
REMARK   14  A    between atoms: O_31  and  C_32
REMARK                            x       y       z     vdW  Elec       q    Type
REMARK                         _______ _______ _______ _____ _____    ______ ____
ROOT
ATOM      1  C   LIG A   1      -9.846   4.763 130.957  0.00  0.00    +0.156 C 
ATOM      2  C   LIG A   1      -9.769   3.266 131.104  0.00  0.00    +0.023 C 
ATOM      3  C   LIG A   1      -8.721   2.585 130.645  0.00  0.00    +0.004 C 
ATOM      4  C   LIG A   1      -7.608   3.214 129.994  0.00  0.00    +0.170 C 
ATOM      5  C   LIG A   1      -7.488   4.534 129.774  0.00  0.00    +0.208 C 
ATOM      6  C   LIG A   1      -8.632   5.418 130.235  0.00  0.00    +0.237 C 
ATOM      7  O   LIG A   1      -8.619   6.628 130.051  0.00  0.00    -0.285 OA
ATOM      8  O   LIG A   1      -6.689   2.256 129.583  0.00  0.00    -0.480 OA
ATOM      9  C   LIG A   1      -7.401   0.988 129.587  0.00  0.00    +0.211 C 
ATOM     10  C   LIG A   1      -8.503   1.115 130.653  0.00  0.00    +0.065 C 
ATOM     11  C   LIG A   1      -8.041   0.630 132.025  0.00  0.00    +0.016 C 
ENDROOT
BRANCH   9  12
ATOM     12  C   LIG A   1      -7.927   0.627 128.201  0.00  0.00    +0.000 A 
ATOM     13  C   LIG A   1      -7.939  -0.699 127.754  0.00  0.00    +0.057 A 
ATOM     14  C   LIG A   1      -8.410  -1.032 126.483  0.00  0.00    +0.166 A 
ATOM     15  C   LIG A   1      -8.985  -0.036 125.670  0.00  0.00    +0.203 A 
ATOM     16  C   LIG A   1      -8.956   1.313 126.086  0.00  0.00    +0.166 A 
ATOM     17  C   LIG A   1      -8.423   1.623 127.346  0.00  0.00    +0.057 A 
BRANCH  14  18
ATOM     18  O   LIG A   1      -8.373  -2.320 126.003  0.00  0.00    -0.491 OA
ATOM     19  C   LIG A   1      -8.837  -3.326 126.907  0.00  0.00    +0.277 C 
ENDBRANCH  14  18
BRANCH  16  20
ATOM     20  O   LIG A   1      -9.386   2.288 125.214  0.00  0.00    -0.491 OA
ATOM     21  C   LIG A   1      -8.390   3.184 124.719  0.00  0.00    +0.277 C 
ENDBRANCH  16  20
BRANCH  15  22
ATOM     22  O   LIG A   1      -9.467  -0.454 124.453  0.00  0.00    -0.488 OA
ATOM     23  C   LIG A   1      -8.558  -0.351 123.360  0.00  0.00    +0.277 C 
ENDBRANCH  15  22
ENDBRANCH   9  12
BRANCH   1  24
ATOM     24  O   LIG A   1     -10.032   5.323 132.268  0.00  0.00    -0.364 OA
ATOM     25  C   LIG A   1      -8.922   5.162 133.151  0.00  0.00    +0.195 C 
ENDBRANCH   1  24
BRANCH   5  26
ATOM     26  O   LIG A   1      -6.395   5.051 129.081  0.00  0.00    -0.488 OA
ATOM     27  C   LIG A   1      -5.270   5.423 129.876  0.00  0.00    +0.277 C 
ENDBRANCH   5  26
BRANCH   1  28
ATOM     28  C   LIG A   1     -11.093   5.129 130.104  0.00  0.00    +0.074 C 
BRANCH  28  29
ATOM     29  C   LIG A   1     -12.030   6.151 130.715  0.00  0.00    -0.031 C 
ATOM     30  C   LIG A   1     -12.430   7.261 130.082  0.00  0.00    +0.004 C 
ENDBRANCH  28  29
ENDBRANCH   1  28
TORSDOF 8
ENDMDL
