MODEL 1
REMARK VINA RESULT:      -7.7      0.000      0.000
REMARK  Name = NuBBE_325
REMARK  8 active torsions:
REMARK  status: ('A' for Active; 'I' for Inactive)
REMARK    1  A    between atoms: C_1  and  C_2
REMARK    2  A    between atoms: C_4  and  C_6
REMARK    3  A    between atoms: C_17  and  C_18
REMARK    4  A    between atoms: C_18  and  C_19
REMARK    5  A    between atoms: C_22  and  O_23
REMARK    6  A    between atoms: O_23  and  C_24
REMARK    7  A    between atoms: C_25  and  O_26
REMARK    8  A    between atoms: O_26  and  C_27
REMARK                            x       y       z     vdW  Elec       q    Type
REMARK                         _______ _______ _______ _____ _____    ______ ____
ROOT
ATOM      1  C   LIG A   1      -6.089   5.388 124.737  0.00  0.00    +0.013 C 
ATOM      2  C   LIG A   1      -5.368   4.039 124.866  0.00  0.00    +0.049 C 
ATOM      3  C   LIG A   1      -5.881   2.964 123.881  0.00  0.00    +0.208 C 
ATOM      4  O   LIG A   1      -6.948   2.282 124.546  0.00  0.00    -0.483 OA
ATOM      5  C   LIG A   1      -6.861   2.585 125.899  0.00  0.00    +0.154 C 
ATOM      6  C   LIG A   1      -5.590   3.343 126.230  0.00  0.00    +0.063 C 
ATOM      7  C   LIG A   1      -5.818   4.247 127.420  0.00  0.00    +0.038 C 
ATOM      8  C   LIG A   1      -6.763   4.035 128.342  0.00  0.00    +0.167 C 
ATOM      9  C   LIG A   1      -7.860   2.331 126.762  0.00  0.00    +0.209 C 
ATOM     10  C   LIG A   1      -7.644   2.814 128.156  0.00  0.00    +0.265 C 
ATOM     11  O   LIG A   1      -8.181   2.235 129.098  0.00  0.00    -0.280 OA
ENDROOT
BRANCH   3  12
ATOM     12  C   LIG A   1      -6.338   3.413 122.506  0.00  0.00    -0.003 A 
ATOM     13  C   LIG A   1      -5.388   3.929 121.593  0.00  0.00    +0.011 A 
ATOM     14  C   LIG A   1      -5.764   4.341 120.310  0.00  0.00    +0.050 A 
ATOM     15  C   LIG A   1      -7.092   4.227 119.958  0.00  0.00    +0.166 A 
ATOM     16  C   LIG A   1      -8.027   3.730 120.831  0.00  0.00    +0.167 A 
ATOM     17  O   LIG A   1      -9.275   3.698 120.291  0.00  0.00    -0.453 OA
ATOM     18  C   LIG A   1      -9.015   4.228 118.973  0.00  0.00    +0.466 C 
ATOM     19  O   LIG A   1      -7.630   4.574 118.759  0.00  0.00    -0.453 OA
ATOM     20  C   LIG A   1      -7.686   3.320 122.105  0.00  0.00    +0.056 A 
ENDBRANCH   3  12
BRANCH   8  21
ATOM     21  O   LIG A   1      -6.872   4.908 129.415  0.00  0.00    -0.491 OA
ATOM     22  C   LIG A   1      -5.766   4.931 130.309  0.00  0.00    +0.277 C 
ENDBRANCH   8  21
BRANCH   9  23
ATOM     23  O   LIG A   1      -9.068   1.721 126.512  0.00  0.00    -0.488 OA
ATOM     24  C   LIG A   1      -9.060   0.327 126.236  0.00  0.00    +0.277 C 
ENDBRANCH   9  23
BRANCH   6  25
ATOM     25  C   LIG A   1      -4.446   2.332 126.575  0.00  0.00    +0.046 C 
BRANCH  25  26
ATOM     26  C   LIG A   1      -3.230   2.956 127.213  0.00  0.00    -0.033 C 
ATOM     27  C   LIG A   1      -2.033   3.063 126.624  0.00  0.00    +0.004 C 
ENDBRANCH  25  26
ENDBRANCH   6  25
TORSDOF 5
ENDMDL
MODEL 2
REMARK VINA RESULT:      -7.6      3.521      6.599
REMARK  Name = NuBBE_325
REMARK  8 active torsions:
REMARK  status: ('A' for Active; 'I' for Inactive)
REMARK    1  A    between atoms: C_1  and  C_2
REMARK    2  A    between atoms: C_4  and  C_6
REMARK    3  A    between atoms: C_17  and  C_18
REMARK    4  A    between atoms: C_18  and  C_19
REMARK    5  A    between atoms: C_22  and  O_23
REMARK    6  A    between atoms: O_23  and  C_24
REMARK    7  A    between atoms: C_25  and  O_26
REMARK    8  A    between atoms: O_26  and  C_27
REMARK                            x       y       z     vdW  Elec       q    Type
REMARK                         _______ _______ _______ _____ _____    ______ ____
ROOT
ATOM      1  C   LIG A   1      -5.766  -0.159 127.684  0.00  0.00    +0.013 C 
ATOM      2  C   LIG A   1      -5.321  -0.364 126.229  0.00  0.00    +0.049 C 
ATOM      3  C   LIG A   1      -5.451   0.904 125.356  0.00  0.00    +0.208 C 
ATOM      4  O   LIG A   1      -6.767   0.875 124.794  0.00  0.00    -0.483 OA
ATOM      5  C   LIG A   1      -7.259  -0.416 124.944  0.00  0.00    +0.154 C 
ATOM      6  C   LIG A   1      -6.196  -1.373 125.448  0.00  0.00    +0.063 C 
ATOM      7  C   LIG A   1      -6.834  -2.481 126.254  0.00  0.00    +0.038 C 
ATOM      8  C   LIG A   1      -8.106  -2.865 126.109  0.00  0.00    +0.167 C 
ATOM      9  C   LIG A   1      -8.558  -0.718 124.772  0.00  0.00    +0.209 C 
ATOM     10  C   LIG A   1      -8.933  -2.129 125.073  0.00  0.00    +0.265 C 
ATOM     11  O   LIG A   1      -9.890  -2.647 124.499  0.00  0.00    -0.280 OA
ENDROOT
BRANCH   3  12
ATOM     12  C   LIG A   1      -5.202   2.251 126.007  0.00  0.00    -0.003 A 
ATOM     13  C   LIG A   1      -6.298   3.104 126.277  0.00  0.00    +0.011 A 
ATOM     14  C   LIG A   1      -6.115   4.348 126.890  0.00  0.00    +0.050 A 
ATOM     15  C   LIG A   1      -4.831   4.720 127.227  0.00  0.00    +0.166 A 
ATOM     16  C   LIG A   1      -3.757   3.906 126.972  0.00  0.00    +0.167 A 
ATOM     17  O   LIG A   1      -2.581   4.455 127.382  0.00  0.00    -0.453 OA
ATOM     18  C   LIG A   1      -3.043   5.707 127.931  0.00  0.00    +0.466 C 
ATOM     19  O   LIG A   1      -4.471   5.885 127.827  0.00  0.00    -0.453 OA
ATOM     20  C   LIG A   1      -3.906   2.675 126.364  0.00  0.00    +0.056 A 
ENDBRANCH   3  12
BRANCH   8  21
ATOM     21  O   LIG A   1      -8.589  -3.915 126.877  0.00  0.00    -0.491 OA
ATOM     22  C   LIG A   1      -8.654  -3.679 128.279  0.00  0.00    +0.277 C 
ENDBRANCH   8  21
BRANCH   9  23
ATOM     23  O   LIG A   1      -9.585   0.116 124.396  0.00  0.00    -0.488 OA
ATOM     24  C   LIG A   1      -9.677   0.473 123.023  0.00  0.00    +0.277 C 
ENDBRANCH   9  23
BRANCH   6  25
ATOM     25  C   LIG A   1      -5.436  -2.004 124.234  0.00  0.00    +0.046 C 
BRANCH  25  26
ATOM     26  C   LIG A   1      -5.174  -3.485 124.360  0.00  0.00    -0.033 C 
ATOM     27  C   LIG A   1      -4.311  -4.171 123.602  0.00  0.00    +0.004 C 
ENDBRANCH  25  26
ENDBRANCH   6  25
TORSDOF 5
ENDMDL
MODEL 3
REMARK VINA RESULT:      -7.3      6.458      8.518
REMARK  Name = NuBBE_325
REMARK  8 active torsions:
REMARK  status: ('A' for Active; 'I' for Inactive)
REMARK    1  A    between atoms: C_1  and  C_2
REMARK    2  A    between atoms: C_4  and  C_6
REMARK    3  A    between atoms: C_17  and  C_18
REMARK    4  A    between atoms: C_18  and  C_19
REMARK    5  A    between atoms: C_22  and  O_23
REMARK    6  A    between atoms: O_23  and  C_24
REMARK    7  A    between atoms: C_25  and  O_26
REMARK    8  A    between atoms: O_26  and  C_27
REMARK                            x       y       z     vdW  Elec       q    Type
REMARK                         _______ _______ _______ _____ _____    ______ ____
ROOT
ATOM      1  C   LIG A   1      -8.539   3.930 130.846  0.00  0.00    +0.013 C 
ATOM      2  C   LIG A   1      -8.025   4.782 132.015  0.00  0.00    +0.049 C 
ATOM      3  C   LIG A   1      -8.325   6.290 131.863  0.00  0.00    +0.208 C 
ATOM      4  O   LIG A   1      -7.212   6.856 131.164  0.00  0.00    -0.483 OA
ATOM      5  C   LIG A   1      -6.169   5.940 131.225  0.00  0.00    +0.154 C 
ATOM      6  C   LIG A   1      -6.484   4.782 132.152  0.00  0.00    +0.063 C 
ATOM      7  C   LIG A   1      -5.764   3.536 131.692  0.00  0.00    +0.038 C 
ATOM      8  C   LIG A   1      -4.650   3.553 130.952  0.00  0.00    +0.167 C 
ATOM      9  C   LIG A   1      -5.077   6.036 130.446  0.00  0.00    +0.209 C 
ATOM     10  C   LIG A   1      -4.103   4.914 130.565  0.00  0.00    +0.265 C 
ATOM     11  O   LIG A   1      -2.910   5.108 130.339  0.00  0.00    -0.280 OA
ENDROOT
BRANCH   3  12
ATOM     12  C   LIG A   1      -9.618   6.697 131.183  0.00  0.00    -0.003 A 
ATOM     13  C   LIG A   1     -10.853   6.385 131.798  0.00  0.00    +0.011 A 
ATOM     14  C   LIG A   1     -12.069   6.755 131.213  0.00  0.00    +0.050 A 
ATOM     15  C   LIG A   1     -12.029   7.438 130.017  0.00  0.00    +0.166 A 
ATOM     16  C   LIG A   1     -10.840   7.749 129.406  0.00  0.00    +0.167 A 
ATOM     17  O   LIG A   1     -11.018   8.426 128.239  0.00  0.00    -0.453 OA
ATOM     18  C   LIG A   1     -12.458   8.509 128.190  0.00  0.00    +0.466 C 
ATOM     19  O   LIG A   1     -13.107   7.876 129.313  0.00  0.00    -0.453 OA
ATOM     20  C   LIG A   1      -9.625   7.393 129.957  0.00  0.00    +0.056 A 
ENDBRANCH   3  12
BRANCH   8  21
ATOM     21  O   LIG A   1      -4.047   2.352 130.605  0.00  0.00    -0.491 OA
ATOM     22  C   LIG A   1      -4.158   1.976 129.238  0.00  0.00    +0.277 C 
ENDBRANCH   8  21
BRANCH   9  23
ATOM     23  O   LIG A   1      -4.768   7.013 129.529  0.00  0.00    -0.488 OA
ATOM     24  C   LIG A   1      -4.199   8.221 130.017  0.00  0.00    +0.277 C 
ENDBRANCH   9  23
BRANCH   6  25
ATOM     25  C   LIG A   1      -6.017   5.128 133.606  0.00  0.00    +0.046 C 
BRANCH  25  26
ATOM     26  C   LIG A   1      -6.945   4.646 134.694  0.00  0.00    -0.033 C 
ATOM     27  C   LIG A   1      -7.515   5.435 135.612  0.00  0.00    +0.004 C 
ENDBRANCH  25  26
ENDBRANCH   6  25
TORSDOF 5
ENDMDL
MODEL 4
REMARK VINA RESULT:      -7.2      4.623      9.400
REMARK  Name = NuBBE_325
REMARK  8 active torsions:
REMARK  status: ('A' for Active; 'I' for Inactive)
REMARK    1  A    between atoms: C_1  and  C_2
REMARK    2  A    between atoms: C_4  and  C_6
REMARK    3  A    between atoms: C_17  and  C_18
REMARK    4  A    between atoms: C_18  and  C_19
REMARK    5  A    between atoms: C_22  and  O_23
REMARK    6  A    between atoms: O_23  and  C_24
REMARK    7  A    between atoms: C_25  and  O_26
REMARK    8  A    between atoms: O_26  and  C_27
REMARK                            x       y       z     vdW  Elec       q    Type
REMARK                         _______ _______ _______ _____ _____    ______ ____
ROOT
ATOM      1  C   LIG A   1      -8.525  -3.199 127.851  0.00  0.00    +0.013 C 
ATOM      2  C   LIG A   1      -7.163  -2.592 127.490  0.00  0.00    +0.049 C 
ATOM      3  C   LIG A   1      -6.688  -1.503 128.478  0.00  0.00    +0.208 C 
ATOM      4  O   LIG A   1      -7.198  -0.260 127.987  0.00  0.00    -0.483 OA
ATOM      5  C   LIG A   1      -7.584  -0.458 126.667  0.00  0.00    +0.154 C 
ATOM      6  C   LIG A   1      -7.161  -1.819 126.150  0.00  0.00    +0.063 C 
ATOM      7  C   LIG A   1      -8.130  -2.299 125.093  0.00  0.00    +0.038 C 
ATOM      8  C   LIG A   1      -8.891  -1.480 124.359  0.00  0.00    +0.167 C 
ATOM      9  C   LIG A   1      -8.349   0.423 125.998  0.00  0.00    +0.209 C 
ATOM     10  C   LIG A   1      -8.758   0.006 124.627  0.00  0.00    +0.265 C 
ATOM     11  O   LIG A   1      -8.986   0.857 123.768  0.00  0.00    -0.280 OA
ENDROOT
BRANCH   3  12
ATOM     12  C   LIG A   1      -7.047  -1.660 129.943  0.00  0.00    -0.003 A 
ATOM     13  C   LIG A   1      -7.889  -0.704 130.557  0.00  0.00    +0.011 A 
ATOM     14  C   LIG A   1      -8.257  -0.818 131.902  0.00  0.00    +0.050 A 
ATOM     15  C   LIG A   1      -7.776  -1.895 132.615  0.00  0.00    +0.166 A 
ATOM     16  C   LIG A   1      -6.958  -2.832 132.036  0.00  0.00    +0.167 A 
ATOM     17  O   LIG A   1      -6.596  -3.813 132.907  0.00  0.00    -0.453 OA
ATOM     18  C   LIG A   1      -7.288  -3.386 134.099  0.00  0.00    +0.466 C 
ATOM     19  O   LIG A   1      -8.033  -2.163 133.923  0.00  0.00    -0.453 OA
ATOM     20  C   LIG A   1      -6.574  -2.743 130.712  0.00  0.00    +0.056 A 
ENDBRANCH   3  12
BRANCH   8  21
ATOM     21  O   LIG A   1      -9.728  -2.018 123.391  0.00  0.00    -0.491 OA
ATOM     22  C   LIG A   1      -9.728  -3.437 123.291  0.00  0.00    +0.277 C 
ENDBRANCH   8  21
BRANCH   9  23
ATOM     23  O   LIG A   1      -8.833   1.634 126.434  0.00  0.00    -0.488 OA
ATOM     24  C   LIG A   1      -7.926   2.728 126.486  0.00  0.00    +0.277 C 
ENDBRANCH   9  23
BRANCH   6  25
ATOM     25  C   LIG A   1      -5.731  -1.724 125.520  0.00  0.00    +0.046 C 
BRANCH  25  26
ATOM     26  C   LIG A   1      -5.565  -2.484 124.226  0.00  0.00    -0.033 C 
ATOM     27  C   LIG A   1      -4.856  -3.611 124.093  0.00  0.00    +0.004 C 
ENDBRANCH  25  26
ENDBRANCH   6  25
TORSDOF 5
ENDMDL
MODEL 5
REMARK VINA RESULT:      -7.1      2.949      5.076
REMARK  Name = NuBBE_325
REMARK  8 active torsions:
REMARK  status: ('A' for Active; 'I' for Inactive)
REMARK    1  A    between atoms: C_1  and  C_2
REMARK    2  A    between atoms: C_4  and  C_6
REMARK    3  A    between atoms: C_17  and  C_18
REMARK    4  A    between atoms: C_18  and  C_19
REMARK    5  A    between atoms: C_22  and  O_23
REMARK    6  A    between atoms: O_23  and  C_24
REMARK    7  A    between atoms: C_25  and  O_26
REMARK    8  A    between atoms: O_26  and  C_27
REMARK                            x       y       z     vdW  Elec       q    Type
REMARK                         _______ _______ _______ _____ _____    ______ ____
ROOT
ATOM      1  C   LIG A   1      -5.314  -0.332 125.479  0.00  0.00    +0.013 C 
ATOM      2  C   LIG A   1      -6.818  -0.567 125.284  0.00  0.00    +0.049 C 
ATOM      3  C   LIG A   1      -7.626   0.732 125.070  0.00  0.00    +0.208 C 
ATOM      4  O   LIG A   1      -8.023   1.181 126.370  0.00  0.00    -0.483 OA
ATOM      5  C   LIG A   1      -7.856   0.118 127.249  0.00  0.00    +0.154 C 
ATOM      6  C   LIG A   1      -7.519  -1.170 126.524  0.00  0.00    +0.063 C 
ATOM      7  C   LIG A   1      -6.677  -2.060 127.410  0.00  0.00    +0.038 C 
ATOM      8  C   LIG A   1      -6.677  -1.991 128.745  0.00  0.00    +0.167 C 
ATOM      9  C   LIG A   1      -7.877   0.275 128.584  0.00  0.00    +0.209 C 
ATOM     10  C   LIG A   1      -7.578  -0.950 129.380  0.00  0.00    +0.265 C 
ATOM     11  O   LIG A   1      -8.047  -1.080 130.509  0.00  0.00    -0.280 OA
ENDROOT
BRANCH   3  12
ATOM     12  C   LIG A   1      -6.967   1.870 124.315  0.00  0.00    -0.003 A 
ATOM     13  C   LIG A   1      -6.365   2.926 125.039  0.00  0.00    +0.011 A 
ATOM     14  C   LIG A   1      -5.732   3.988 124.383  0.00  0.00    +0.050 A 
ATOM     15  C   LIG A   1      -5.710   3.975 123.005  0.00  0.00    +0.166 A 
ATOM     16  C   LIG A   1      -6.290   2.959 122.286  0.00  0.00    +0.167 A 
ATOM     17  O   LIG A   1      -6.157   3.132 120.943  0.00  0.00    -0.453 OA
ATOM     18  C   LIG A   1      -5.420   4.373 120.901  0.00  0.00    +0.466 C 
ATOM     19  O   LIG A   1      -5.141   4.918 122.208  0.00  0.00    -0.453 OA
ATOM     20  C   LIG A   1      -6.924   1.901 122.906  0.00  0.00    +0.056 A 
ENDBRANCH   3  12
BRANCH   8  21
ATOM     21  O   LIG A   1      -5.890  -2.875 129.470  0.00  0.00    -0.491 OA
ATOM     22  C   LIG A   1      -6.550  -4.039 129.954  0.00  0.00    +0.277 C 
ENDBRANCH   8  21
BRANCH   9  23
ATOM     23  O   LIG A   1      -8.096   1.427 129.304  0.00  0.00    -0.488 OA
ATOM     24  C   LIG A   1      -6.967   2.224 129.636  0.00  0.00    +0.277 C 
ENDBRANCH   9  23
BRANCH   6  25
ATOM     25  C   LIG A   1      -8.837  -1.928 126.152  0.00  0.00    +0.046 C 
BRANCH  25  26
ATOM     26  C   LIG A   1      -8.638  -3.130 125.261  0.00  0.00    -0.033 C 
ATOM     27  C   LIG A   1      -9.070  -3.218 123.997  0.00  0.00    +0.004 C 
ENDBRANCH  25  26
ENDBRANCH   6  25
TORSDOF 5
ENDMDL
MODEL 6
REMARK VINA RESULT:      -7.0      2.581      7.256
REMARK  Name = NuBBE_325
REMARK  8 active torsions:
REMARK  status: ('A' for Active; 'I' for Inactive)
REMARK    1  A    between atoms: C_1  and  C_2
REMARK    2  A    between atoms: C_4  and  C_6
REMARK    3  A    between atoms: C_17  and  C_18
REMARK    4  A    between atoms: C_18  and  C_19
REMARK    5  A    between atoms: C_22  and  O_23
REMARK    6  A    between atoms: O_23  and  C_24
REMARK    7  A    between atoms: C_25  and  O_26
REMARK    8  A    between atoms: O_26  and  C_27
REMARK                            x       y       z     vdW  Elec       q    Type
REMARK                         _______ _______ _______ _____ _____    ______ ____
ROOT
ATOM      1  C   LIG A   1      -3.679   2.799 126.858  0.00  0.00    +0.013 C 
ATOM      2  C   LIG A   1      -4.363   3.947 126.103  0.00  0.00    +0.049 C 
ATOM      3  C   LIG A   1      -4.795   5.117 127.014  0.00  0.00    +0.208 C 
ATOM      4  O   LIG A   1      -6.124   4.820 127.452  0.00  0.00    -0.483 OA
ATOM      5  C   LIG A   1      -6.627   3.826 126.622  0.00  0.00    +0.154 C 
ATOM      6  C   LIG A   1      -5.707   3.547 125.449  0.00  0.00    +0.063 C 
ATOM      7  C   LIG A   1      -5.843   2.106 125.011  0.00  0.00    +0.038 C 
ATOM      8  C   LIG A   1      -6.933   1.364 125.234  0.00  0.00    +0.167 C 
ATOM      9  C   LIG A   1      -7.737   3.129 126.920  0.00  0.00    +0.209 C 
ATOM     10  C   LIG A   1      -8.078   2.028 125.974  0.00  0.00    +0.265 C 
ATOM     11  O   LIG A   1      -9.249   1.683 125.827  0.00  0.00    -0.280 OA
ENDROOT
BRANCH   3  12
ATOM     12  C   LIG A   1      -3.925   5.453 128.210  0.00  0.00    -0.003 A 
ATOM     13  C   LIG A   1      -2.734   6.191 128.016  0.00  0.00    +0.011 A 
ATOM     14  C   LIG A   1      -1.909   6.535 129.092  0.00  0.00    +0.050 A 
ATOM     15  C   LIG A   1      -2.294   6.135 130.354  0.00  0.00    +0.166 A 
ATOM     16  C   LIG A   1      -3.446   5.419 130.561  0.00  0.00    +0.167 A 
ATOM     17  O   LIG A   1      -3.645   5.125 131.875  0.00  0.00    -0.453 OA
ATOM     18  C   LIG A   1      -2.487   5.747 132.470  0.00  0.00    +0.466 C 
ATOM     19  O   LIG A   1      -1.620   6.383 131.508  0.00  0.00    -0.453 OA
ATOM     20  C   LIG A   1      -4.277   5.061 129.517  0.00  0.00    +0.056 A 
ENDBRANCH   3  12
BRANCH   8  21
ATOM     21  O   LIG A   1      -6.972   0.059 124.764  0.00  0.00    -0.491 OA
ATOM     22  C   LIG A   1      -7.126  -0.089 123.358  0.00  0.00    +0.277 C 
ENDBRANCH   8  21
BRANCH   9  23
ATOM     23  O   LIG A   1      -8.570   3.275 128.004  0.00  0.00    -0.488 OA
ATOM     24  C   LIG A   1      -8.370   2.409 129.114  0.00  0.00    +0.277 C 
ENDBRANCH   9  23
BRANCH   6  25
ATOM     25  C   LIG A   1      -6.084   4.479 124.249  0.00  0.00    +0.046 C 
BRANCH  25  26
ATOM     26  C   LIG A   1      -5.789   3.897 122.888  0.00  0.00    -0.033 C 
ATOM     27  C   LIG A   1      -4.998   4.470 121.972  0.00  0.00    +0.004 C 
ENDBRANCH  25  26
ENDBRANCH   6  25
TORSDOF 5
ENDMDL
MODEL 7
REMARK VINA RESULT:      -7.0      2.974      7.430
REMARK  Name = NuBBE_325
REMARK  8 active torsions:
REMARK  status: ('A' for Active; 'I' for Inactive)
REMARK    1  A    between atoms: C_1  and  C_2
REMARK    2  A    between atoms: C_4  and  C_6
REMARK    3  A    between atoms: C_17  and  C_18
REMARK    4  A    between atoms: C_18  and  C_19
REMARK    5  A    between atoms: C_22  and  O_23
REMARK    6  A    between atoms: O_23  and  C_24
REMARK    7  A    between atoms: C_25  and  O_26
REMARK    8  A    between atoms: O_26  and  C_27
REMARK                            x       y       z     vdW  Elec       q    Type
REMARK                         _______ _______ _______ _____ _____    ______ ____
ROOT
ATOM      1  C   LIG A   1      -6.017   1.332 125.748  0.00  0.00    +0.013 C 
ATOM      2  C   LIG A   1      -7.319   1.828 125.105  0.00  0.00    +0.049 C 
ATOM      3  C   LIG A   1      -8.489   1.970 126.105  0.00  0.00    +0.208 C 
ATOM      4  O   LIG A   1      -9.161   0.707 126.124  0.00  0.00    -0.483 OA
ATOM      5  C   LIG A   1      -8.748  -0.005 125.004  0.00  0.00    +0.154 C 
ATOM      6  C   LIG A   1      -7.913   0.846 124.067  0.00  0.00    +0.063 C 
ATOM      7  C   LIG A   1      -6.928  -0.020 123.316  0.00  0.00    +0.038 C 
ATOM      8  C   LIG A   1      -7.106  -1.327 123.098  0.00  0.00    +0.167 C 
ATOM      9  C   LIG A   1      -8.975  -1.322 124.862  0.00  0.00    +0.209 C 
ATOM     10  C   LIG A   1      -8.374  -1.950 123.651  0.00  0.00    +0.265 C 
ATOM     11  O   LIG A   1      -8.899  -2.942 123.147  0.00  0.00    -0.280 OA
ENDROOT
BRANCH   3  12
ATOM     12  C   LIG A   1      -8.170   2.402 127.523  0.00  0.00    -0.003 A 
ATOM     13  C   LIG A   1      -8.313   1.472 128.580  0.00  0.00    +0.011 A 
ATOM     14  C   LIG A   1      -8.017   1.824 129.901  0.00  0.00    +0.050 A 
ATOM     15  C   LIG A   1      -7.576   3.107 130.145  0.00  0.00    +0.166 A 
ATOM     16  C   LIG A   1      -7.432   4.022 129.133  0.00  0.00    +0.167 A 
ATOM     17  O   LIG A   1      -6.985   5.226 129.582  0.00  0.00    -0.453 OA
ATOM     18  C   LIG A   1      -6.858   4.959 130.995  0.00  0.00    +0.466 C 
ATOM     19  O   LIG A   1      -7.241   3.616 131.360  0.00  0.00    -0.453 OA
ATOM     20  C   LIG A   1      -7.721   3.705 127.820  0.00  0.00    +0.056 A 
ENDBRANCH   3  12
BRANCH   8  21
ATOM     21  O   LIG A   1      -6.156  -2.029 122.369  0.00  0.00    -0.491 OA
ATOM     22  C   LIG A   1      -5.283  -2.858 123.128  0.00  0.00    +0.277 C 
ENDBRANCH   8  21
BRANCH   9  23
ATOM     23  O   LIG A   1      -9.653  -2.167 125.710  0.00  0.00    -0.488 OA
ATOM     24  C   LIG A   1      -8.884  -3.002 126.565  0.00  0.00    +0.277 C 
ENDBRANCH   9  23
BRANCH   6  25
ATOM     25  C   LIG A   1      -8.845   1.565 123.035  0.00  0.00    +0.046 C 
BRANCH  25  26
ATOM     26  C   LIG A   1      -8.318   2.886 122.529  0.00  0.00    -0.033 C 
ATOM     27  C   LIG A   1      -8.647   3.435 121.354  0.00  0.00    +0.004 C 
ENDBRANCH  25  26
ENDBRANCH   6  25
TORSDOF 5
ENDMDL
MODEL 8
REMARK VINA RESULT:      -7.0      4.483      8.858
REMARK  Name = NuBBE_325
REMARK  8 active torsions:
REMARK  status: ('A' for Active; 'I' for Inactive)
REMARK    1  A    between atoms: C_1  and  C_2
REMARK    2  A    between atoms: C_4  and  C_6
REMARK    3  A    between atoms: C_17  and  C_18
REMARK    4  A    between atoms: C_18  and  C_19
REMARK    5  A    between atoms: C_22  and  O_23
REMARK    6  A    between atoms: O_23  and  C_24
REMARK    7  A    between atoms: C_25  and  O_26
REMARK    8  A    between atoms: O_26  and  C_27
REMARK                            x       y       z     vdW  Elec       q    Type
REMARK                         _______ _______ _______ _____ _____    ______ ____
ROOT
ATOM      1  C   LIG A   1      -8.420  -2.542 126.707  0.00  0.00    +0.013 C 
ATOM      2  C   LIG A   1      -6.951  -2.634 126.273  0.00  0.00    +0.049 C 
ATOM      3  C   LIG A   1      -5.954  -2.161 127.355  0.00  0.00    +0.208 C 
ATOM      4  O   LIG A   1      -5.766  -0.757 127.146  0.00  0.00    -0.483 OA
ATOM      5  C   LIG A   1      -6.239  -0.455 125.875  0.00  0.00    +0.154 C 
ATOM      6  C   LIG A   1      -6.592  -1.704 125.090  0.00  0.00    +0.063 C 
ATOM      7  C   LIG A   1      -7.701  -1.404 124.106  0.00  0.00    +0.038 C 
ATOM      8  C   LIG A   1      -7.954  -0.182 123.625  0.00  0.00    +0.167 C 
ATOM      9  C   LIG A   1      -6.462   0.807 125.468  0.00  0.00    +0.209 C 
ATOM     10  C   LIG A   1      -7.068   0.947 124.113  0.00  0.00    +0.265 C 
ATOM     11  O   LIG A   1      -6.851   1.956 123.444  0.00  0.00    -0.280 OA
ENDROOT
BRANCH   3  12
ATOM     12  C   LIG A   1      -6.298  -2.420 128.808  0.00  0.00    -0.003 A 
ATOM     13  C   LIG A   1      -5.890  -3.633 129.412  0.00  0.00    +0.011 A 
ATOM     14  C   LIG A   1      -6.174  -3.908 130.754  0.00  0.00    +0.050 A 
ATOM     15  C   LIG A   1      -6.863  -2.957 131.476  0.00  0.00    +0.166 A 
ATOM     16  C   LIG A   1      -7.267  -1.776 130.907  0.00  0.00    +0.167 A 
ATOM     17  O   LIG A   1      -7.928  -0.976 131.788  0.00  0.00    -0.453 OA
ATOM     18  C   LIG A   1      -7.887  -1.790 132.978  0.00  0.00    +0.466 C 
ATOM     19  O   LIG A   1      -7.219  -3.055 132.785  0.00  0.00    -0.453 OA
ATOM     20  C   LIG A   1      -7.005  -1.479 129.584  0.00  0.00    +0.056 A 
ENDBRANCH   3  12
BRANCH   8  21
ATOM     21  O   LIG A   1      -8.977  -0.016 122.701  0.00  0.00    -0.491 OA
ATOM     22  C   LIG A   1     -10.042   0.837 123.104  0.00  0.00    +0.277 C 
ENDBRANCH   8  21
BRANCH   9  23
ATOM     23  O   LIG A   1      -6.240   1.976 126.157  0.00  0.00    -0.488 OA
ATOM     24  C   LIG A   1      -4.904   2.457 126.232  0.00  0.00    +0.277 C 
ENDBRANCH   9  23
BRANCH   6  25
ATOM     25  C   LIG A   1      -5.337  -2.203 124.300  0.00  0.00    +0.046 C 
BRANCH  25  26
ATOM     26  C   LIG A   1      -5.349  -3.677 123.971  0.00  0.00    -0.033 C 
ATOM     27  C   LIG A   1      -4.274  -4.381 123.598  0.00  0.00    +0.004 C 
ENDBRANCH  25  26
ENDBRANCH   6  25
TORSDOF 5
ENDMDL
MODEL 9
REMARK VINA RESULT:      -6.8      6.229      7.961
REMARK  Name = NuBBE_325
REMARK  8 active torsions:
REMARK  status: ('A' for Active; 'I' for Inactive)
REMARK    1  A    between atoms: C_1  and  C_2
REMARK    2  A    between atoms: C_4  and  C_6
REMARK    3  A    between atoms: C_17  and  C_18
REMARK    4  A    between atoms: C_18  and  C_19
REMARK    5  A    between atoms: C_22  and  O_23
REMARK    6  A    between atoms: O_23  and  C_24
REMARK    7  A    between atoms: C_25  and  O_26
REMARK    8  A    between atoms: O_26  and  C_27
REMARK                            x       y       z     vdW  Elec       q    Type
REMARK                         _______ _______ _______ _____ _____    ______ ____
ROOT
ATOM      1  C   LIG A   1      -8.070  -3.541 129.378  0.00  0.00    +0.013 C 
ATOM      2  C   LIG A   1      -7.920  -2.039 129.654  0.00  0.00    +0.049 C 
ATOM      3  C   LIG A   1      -7.140  -1.281 128.556  0.00  0.00    +0.208 C 
ATOM      4  O   LIG A   1      -5.761  -1.330 128.932  0.00  0.00    -0.483 OA
ATOM      5  C   LIG A   1      -5.704  -1.696 130.272  0.00  0.00    +0.154 C 
ATOM      6  C   LIG A   1      -7.078  -1.718 130.912  0.00  0.00    +0.063 C 
ATOM      7  C   LIG A   1      -7.115  -2.738 132.028  0.00  0.00    +0.038 C 
ATOM      8  C   LIG A   1      -6.030  -3.152 132.690  0.00  0.00    +0.167 C 
ATOM      9  C   LIG A   1      -4.565  -2.095 130.863  0.00  0.00    +0.209 C 
ATOM     10  C   LIG A   1      -4.701  -2.551 132.276  0.00  0.00    +0.265 C 
ATOM     11  O   LIG A   1      -3.752  -2.445 133.051  0.00  0.00    -0.280 OA
ENDROOT
BRANCH   3  12
ATOM     12  C   LIG A   1      -7.296  -1.742 127.120  0.00  0.00    -0.003 A 
ATOM     13  C   LIG A   1      -6.147  -2.111 126.382  0.00  0.00    +0.011 A 
ATOM     14  C   LIG A   1      -6.246  -2.556 125.059  0.00  0.00    +0.050 A 
ATOM     15  C   LIG A   1      -7.501  -2.628 124.494  0.00  0.00    +0.166 A 
ATOM     16  C   LIG A   1      -8.626  -2.274 125.195  0.00  0.00    +0.167 A 
ATOM     17  O   LIG A   1      -9.762  -2.419 124.460  0.00  0.00    -0.453 OA
ATOM     18  C   LIG A   1      -9.220  -2.912 123.216  0.00  0.00    +0.466 C 
ATOM     19  O   LIG A   1      -7.782  -3.039 123.229  0.00  0.00    -0.453 OA
ATOM     20  C   LIG A   1      -8.559  -1.828 126.500  0.00  0.00    +0.056 A 
ENDBRANCH   3  12
BRANCH   8  21
ATOM     21  O   LIG A   1      -6.174  -4.070 133.721  0.00  0.00    -0.491 OA
ATOM     22  C   LIG A   1      -5.567  -5.340 133.508  0.00  0.00    +0.277 C 
ENDBRANCH   8  21
BRANCH   9  23
ATOM     23  O   LIG A   1      -3.304  -2.175 130.319  0.00  0.00    -0.488 OA
ATOM     24  C   LIG A   1      -3.012  -3.289 129.487  0.00  0.00    +0.277 C 
ENDBRANCH   9  23
BRANCH   6  25
ATOM     25  C   LIG A   1      -7.408  -0.308 131.505  0.00  0.00    +0.046 C 
BRANCH  25  26
ATOM     26  C   LIG A   1      -8.882   0.002 131.601  0.00  0.00    -0.033 C 
ATOM     27  C   LIG A   1      -9.388   1.216 131.847  0.00  0.00    +0.004 C 
ENDBRANCH  25  26
ENDBRANCH   6  25
TORSDOF 5
ENDMDL
