MODEL 1
REMARK VINA RESULT:      -8.4      0.000      0.000
REMARK  Name = NuBBE_121
REMARK  10 active torsions:
REMARK  status: ('A' for Active; 'I' for Inactive)
REMARK    1  A    between atoms: O_1  and  C_2
REMARK    2  A    between atoms: C_5  and  C_8
REMARK    3  A    between atoms: C_9  and  O_10
REMARK    4  A    between atoms: O_10  and  C_11
REMARK    5  A    between atoms: C_14  and  C_16
REMARK    6  A    between atoms: C_17  and  O_19
REMARK    7  A    between atoms: C_20  and  O_22
REMARK    8  A    between atoms: C_23  and  O_25
REMARK    9  A    between atoms: C_28  and  O_29
REMARK   10  A    between atoms: C_31  and  O_32
REMARK                            x       y       z     vdW  Elec       q    Type
REMARK                         _______ _______ _______ _____ _____    ______ ____
ROOT
ATOM      1  C   LIG A   1      -7.843   3.805 130.507  0.00  0.00    +0.181 A 
ATOM      2  C   LIG A   1      -8.121   4.648 129.488  0.00  0.00    +0.214 A 
ATOM      3  C   LIG A   1      -8.065   4.069 128.107  0.00  0.00    +0.238 A 
ATOM      4  C   LIG A   1      -7.977   2.615 127.986  0.00  0.00    +0.109 A 
ATOM      5  C   LIG A   1      -8.236   1.970 126.766  0.00  0.00    +0.135 A 
ATOM      6  C   LIG A   1      -8.207   0.583 126.687  0.00  0.00    +0.091 A 
ATOM      7  C   LIG A   1      -7.881  -0.145 127.826  0.00  0.00    +0.124 A 
ATOM      8  C   LIG A   1      -7.608   0.489 129.039  0.00  0.00    +0.092 A 
ATOM      9  C   LIG A   1      -7.687   1.879 129.125  0.00  0.00    +0.146 A 
ATOM     10  O   LIG A   1      -7.503   2.463 130.354  0.00  0.00    -0.451 OA
ATOM     11  O   LIG A   1      -8.198   4.728 127.084  0.00  0.00    -0.283 OA
ENDROOT
BRANCH   1  15
ATOM     12  C   LIG A   1      -8.015   4.991 134.630  0.00  0.00    +0.117 A 
ATOM     13  C   LIG A   1      -8.975   4.122 134.124  0.00  0.00    +0.046 A 
ATOM     14  C   LIG A   1      -8.920   3.739 132.775  0.00  0.00    +0.015 A 
ATOM     15  C   LIG A   1      -7.906   4.220 131.929  0.00  0.00    +0.021 A 
ATOM     16  C   LIG A   1      -6.942   5.085 132.466  0.00  0.00    +0.015 A 
ATOM     17  C   LIG A   1      -6.998   5.470 133.813  0.00  0.00    +0.046 A 
BRANCH  12  18
ATOM     18  O   LIG A   1      -8.037   5.403 135.930  0.00  0.00    -0.507 OA
ATOM     19  H   LIG A   1      -8.128   4.626 136.507  0.00  0.00    +0.292 HD
ENDBRANCH  12  18
ENDBRANCH   1  15
BRANCH   5  20
ATOM     20  O   LIG A   1      -8.550   2.634 125.611  0.00  0.00    -0.506 OA
ATOM     21  H   LIG A   1      -9.525   2.747 125.573  0.00  0.00    +0.292 HD
ENDBRANCH   5  20
BRANCH   7  22
ATOM     22  O   LIG A   1      -7.833  -1.507 127.794  0.00  0.00    -0.506 OA
ATOM     23  H   LIG A   1      -6.904  -1.792 127.861  0.00  0.00    +0.292 HD
ENDBRANCH   7  22
BRANCH   2  24
ATOM     24  O   LIG A   1      -8.502   5.967 129.715  0.00  0.00    -0.453 OA
BRANCH  24  25
ATOM     25  C   LIG A   1      -9.782   6.407 129.214  0.00  0.00    +0.340 C 
ATOM     26  O   LIG A   1      -9.735   7.828 129.017  0.00  0.00    -0.334 OA
ATOM     27  C   LIG A   1     -10.966   8.409 128.547  0.00  0.00    +0.150 C 
ATOM     28  C   LIG A   1     -11.242   8.033 127.091  0.00  0.00    +0.040 C 
ATOM     29  C   LIG A   1     -12.159   8.067 129.462  0.00  0.00    +0.174 C 
ATOM     30  C   LIG A   1     -11.694   7.249 130.667  0.00  0.00    +0.180 C 
ATOM     31  C   LIG A   1     -10.926   6.019 130.196  0.00  0.00    +0.214 C 
BRANCH  29  32
ATOM     32  O   LIG A   1     -12.785   9.269 129.934  0.00  0.00    -0.387 OA
ATOM     33  H   LIG A   1     -12.054   9.834 130.255  0.00  0.00    +0.210 HD
ENDBRANCH  29  32
BRANCH  30  34
ATOM     34  O   LIG A   1     -12.852   6.845 131.422  0.00  0.00    -0.386 OA
ATOM     35  H   LIG A   1     -13.591   6.857 130.778  0.00  0.00    +0.210 HD
ENDBRANCH  30  34
BRANCH  31  36
ATOM     36  O   LIG A   1     -11.897   5.143 129.574  0.00  0.00    -0.383 OA
ATOM     37  H   LIG A   1     -11.518   4.239 129.569  0.00  0.00    +0.210 HD
ENDBRANCH  31  36
ENDBRANCH  24  25
ENDBRANCH   2  24
TORSDOF 9
ENDMDL
MODEL 2
REMARK VINA RESULT:      -8.1      5.198      8.741
REMARK  Name = NuBBE_121
REMARK  10 active torsions:
REMARK  status: ('A' for Active; 'I' for Inactive)
REMARK    1  A    between atoms: O_1  and  C_2
REMARK    2  A    between atoms: C_5  and  C_8
REMARK    3  A    between atoms: C_9  and  O_10
REMARK    4  A    between atoms: O_10  and  C_11
REMARK    5  A    between atoms: C_14  and  C_16
REMARK    6  A    between atoms: C_17  and  O_19
REMARK    7  A    between atoms: C_20  and  O_22
REMARK    8  A    between atoms: C_23  and  O_25
REMARK    9  A    between atoms: C_28  and  O_29
REMARK   10  A    between atoms: C_31  and  O_32
REMARK                            x       y       z     vdW  Elec       q    Type
REMARK                         _______ _______ _______ _____ _____    ______ ____
ROOT
ATOM      1  C   LIG A   1      -7.136   2.659 123.432  0.00  0.00    +0.181 A 
ATOM      2  C   LIG A   1      -6.868   2.963 124.721  0.00  0.00    +0.214 A 
ATOM      3  C   LIG A   1      -7.450   2.052 125.758  0.00  0.00    +0.238 A 
ATOM      4  C   LIG A   1      -8.027   0.789 125.303  0.00  0.00    +0.109 A 
ATOM      5  C   LIG A   1      -8.303  -0.252 126.204  0.00  0.00    +0.135 A 
ATOM      6  C   LIG A   1      -8.793  -1.467 125.743  0.00  0.00    +0.091 A 
ATOM      7  C   LIG A   1      -9.038  -1.616 124.382  0.00  0.00    +0.124 A 
ATOM      8  C   LIG A   1      -8.780  -0.582 123.481  0.00  0.00    +0.092 A 
ATOM      9  C   LIG A   1      -8.241   0.619 123.943  0.00  0.00    +0.146 A 
ATOM     10  O   LIG A   1      -7.915   1.580 123.019  0.00  0.00    -0.451 OA
ATOM     11  O   LIG A   1      -7.375   2.252 126.964  0.00  0.00    -0.283 OA
ENDROOT
BRANCH   1  15
ATOM     12  C   LIG A   1      -5.543   4.899 120.133  0.00  0.00    +0.117 A 
ATOM     13  C   LIG A   1      -4.815   4.800 121.313  0.00  0.00    +0.046 A 
ATOM     14  C   LIG A   1      -5.339   4.072 122.392  0.00  0.00    +0.015 A 
ATOM     15  C   LIG A   1      -6.589   3.437 122.295  0.00  0.00    +0.021 A 
ATOM     16  C   LIG A   1      -7.299   3.541 121.090  0.00  0.00    +0.015 A 
ATOM     17  C   LIG A   1      -6.777   4.270 120.014  0.00  0.00    +0.046 A 
BRANCH  12  18
ATOM     18  O   LIG A   1      -5.082   5.609 119.064  0.00  0.00    -0.507 OA
ATOM     19  H   LIG A   1      -4.815   4.989 118.365  0.00  0.00    +0.292 HD
ENDBRANCH  12  18
ENDBRANCH   1  15
BRANCH   5  20
ATOM     20  O   LIG A   1      -8.093  -0.158 127.554  0.00  0.00    -0.506 OA
ATOM     21  H   LIG A   1      -7.774  -1.028 127.879  0.00  0.00    +0.292 HD
ENDBRANCH   5  20
BRANCH   7  22
ATOM     22  O   LIG A   1      -9.526  -2.788 123.885  0.00  0.00    -0.506 OA
ATOM     23  H   LIG A   1      -9.318  -2.838 122.935  0.00  0.00    +0.292 HD
ENDBRANCH   7  22
BRANCH   2  24
ATOM     24  O   LIG A   1      -6.041   4.029 125.062  0.00  0.00    -0.453 OA
BRANCH  24  25
ATOM     25  C   LIG A   1      -5.315   3.962 126.308  0.00  0.00    +0.340 C 
ATOM     26  O   LIG A   1      -5.141   5.295 126.811  0.00  0.00    -0.334 OA
ATOM     27  C   LIG A   1      -4.397   5.379 128.042  0.00  0.00    +0.150 C 
ATOM     28  C   LIG A   1      -5.209   4.843 129.223  0.00  0.00    +0.040 C 
ATOM     29  C   LIG A   1      -3.019   4.696 127.939  0.00  0.00    +0.174 C 
ATOM     30  C   LIG A   1      -2.787   4.166 126.524  0.00  0.00    +0.180 C 
ATOM     31  C   LIG A   1      -3.940   3.258 126.112  0.00  0.00    +0.214 C 
BRANCH  29  32
ATOM     32  O   LIG A   1      -1.977   5.628 128.260  0.00  0.00    -0.387 OA
ATOM     33  H   LIG A   1      -2.270   6.484 127.887  0.00  0.00    +0.210 HD
ENDBRANCH  29  32
BRANCH  30  34
ATOM     34  O   LIG A   1      -1.550   3.428 126.506  0.00  0.00    -0.386 OA
ATOM     35  H   LIG A   1      -0.870   4.067 126.807  0.00  0.00    +0.210 HD
ENDBRANCH  30  34
BRANCH  31  36
ATOM     36  O   LIG A   1      -3.827   2.061 126.921  0.00  0.00    -0.383 OA
ATOM     37  H   LIG A   1      -4.052   1.297 126.350  0.00  0.00    +0.210 HD
ENDBRANCH  31  36
ENDBRANCH  24  25
ENDBRANCH   2  24
TORSDOF 9
ENDMDL
MODEL 3
REMARK VINA RESULT:      -8.0      2.866      7.943
REMARK  Name = NuBBE_121
REMARK  10 active torsions:
REMARK  status: ('A' for Active; 'I' for Inactive)
REMARK    1  A    between atoms: O_1  and  C_2
REMARK    2  A    between atoms: C_5  and  C_8
REMARK    3  A    between atoms: C_9  and  O_10
REMARK    4  A    between atoms: O_10  and  C_11
REMARK    5  A    between atoms: C_14  and  C_16
REMARK    6  A    between atoms: C_17  and  O_19
REMARK    7  A    between atoms: C_20  and  O_22
REMARK    8  A    between atoms: C_23  and  O_25
REMARK    9  A    between atoms: C_28  and  O_29
REMARK   10  A    between atoms: C_31  and  O_32
REMARK                            x       y       z     vdW  Elec       q    Type
REMARK                         _______ _______ _______ _____ _____    ______ ____
ROOT
ATOM      1  C   LIG A   1      -7.949   0.063 129.981  0.00  0.00    +0.181 A 
ATOM      2  C   LIG A   1      -7.978   0.774 128.833  0.00  0.00    +0.214 A 
ATOM      3  C   LIG A   1      -8.657   2.108 128.890  0.00  0.00    +0.238 A 
ATOM      4  C   LIG A   1      -8.995   2.640 130.208  0.00  0.00    +0.109 A 
ATOM      5  C   LIG A   1      -9.335   3.991 130.383  0.00  0.00    +0.135 A 
ATOM      6  C   LIG A   1      -9.592   4.491 131.653  0.00  0.00    +0.091 A 
ATOM      7  C   LIG A   1      -9.543   3.621 132.737  0.00  0.00    +0.124 A 
ATOM      8  C   LIG A   1      -9.220   2.273 132.571  0.00  0.00    +0.092 A 
ATOM      9  C   LIG A   1      -8.914   1.788 131.299  0.00  0.00    +0.146 A 
ATOM     10  O   LIG A   1      -8.511   0.480 131.185  0.00  0.00    -0.451 OA
ATOM     11  O   LIG A   1      -8.846   2.821 127.913  0.00  0.00    -0.283 OA
ENDROOT
BRANCH   1  15
ATOM     12  C   LIG A   1      -5.979  -3.740 130.286  0.00  0.00    +0.117 A 
ATOM     13  C   LIG A   1      -7.290  -3.680 129.828  0.00  0.00    +0.046 A 
ATOM     14  C   LIG A   1      -7.934  -2.437 129.734  0.00  0.00    +0.015 A 
ATOM     15  C   LIG A   1      -7.270  -1.251 130.093  0.00  0.00    +0.021 A 
ATOM     16  C   LIG A   1      -5.944  -1.337 130.540  0.00  0.00    +0.015 A 
ATOM     17  C   LIG A   1      -5.302  -2.579 130.637  0.00  0.00    +0.046 A 
BRANCH  12  18
ATOM     18  O   LIG A   1      -5.318  -4.927 130.411  0.00  0.00    -0.507 OA
ATOM     19  H   LIG A   1      -4.982  -5.194 129.538  0.00  0.00    +0.292 HD
ENDBRANCH  12  18
ENDBRANCH   1  15
BRANCH   5  20
ATOM     20  O   LIG A   1      -9.410   4.890 129.353  0.00  0.00    -0.506 OA
ATOM     21  H   LIG A   1      -8.748   4.640 128.673  0.00  0.00    +0.292 HD
ENDBRANCH   5  20
BRANCH   7  22
ATOM     22  O   LIG A   1      -9.795   4.065 134.001  0.00  0.00    -0.506 OA
ATOM     23  H   LIG A   1      -9.012   3.900 134.555  0.00  0.00    +0.292 HD
ENDBRANCH   7  22
BRANCH   2  24
ATOM     24  O   LIG A   1      -7.353   0.318 127.676  0.00  0.00    -0.453 OA
BRANCH  24  25
ATOM     25  C   LIG A   1      -8.102  -0.529 126.780  0.00  0.00    +0.340 C 
ATOM     26  O   LIG A   1      -7.244  -1.584 126.319  0.00  0.00    -0.334 OA
ATOM     27  C   LIG A   1      -7.859  -2.491 125.385  0.00  0.00    +0.150 C 
ATOM     28  C   LIG A   1      -8.894  -3.385 126.071  0.00  0.00    +0.040 C 
ATOM     29  C   LIG A   1      -8.454  -1.759 124.166  0.00  0.00    +0.174 C 
ATOM     30  C   LIG A   1      -8.172  -0.259 124.250  0.00  0.00    +0.180 C 
ATOM     31  C   LIG A   1      -8.667   0.291 125.583  0.00  0.00    +0.214 C 
BRANCH  29  32
ATOM     32  O   LIG A   1      -7.885  -2.269 122.952  0.00  0.00    -0.387 OA
ATOM     33  H   LIG A   1      -8.578  -2.151 122.271  0.00  0.00    +0.210 HD
ENDBRANCH  29  32
BRANCH  30  34
ATOM     34  O   LIG A   1      -8.852   0.399 123.164  0.00  0.00    -0.386 OA
ATOM     35  H   LIG A   1      -8.423   1.279 123.093  0.00  0.00    +0.210 HD
ENDBRANCH  30  34
BRANCH  31  36
ATOM     36  O   LIG A   1     -10.114   0.244 125.532  0.00  0.00    -0.383 OA
ATOM     37  H   LIG A   1     -10.402   0.813 124.789  0.00  0.00    +0.210 HD
ENDBRANCH  31  36
ENDBRANCH  24  25
ENDBRANCH   2  24
TORSDOF 9
ENDMDL
MODEL 4
REMARK VINA RESULT:      -8.0      3.073      6.095
REMARK  Name = NuBBE_121
REMARK  10 active torsions:
REMARK  status: ('A' for Active; 'I' for Inactive)
REMARK    1  A    between atoms: O_1  and  C_2
REMARK    2  A    between atoms: C_5  and  C_8
REMARK    3  A    between atoms: C_9  and  O_10
REMARK    4  A    between atoms: O_10  and  C_11
REMARK    5  A    between atoms: C_14  and  C_16
REMARK    6  A    between atoms: C_17  and  O_19
REMARK    7  A    between atoms: C_20  and  O_22
REMARK    8  A    between atoms: C_23  and  O_25
REMARK    9  A    between atoms: C_28  and  O_29
REMARK   10  A    between atoms: C_31  and  O_32
REMARK                            x       y       z     vdW  Elec       q    Type
REMARK                         _______ _______ _______ _____ _____    ______ ____
ROOT
ATOM      1  C   LIG A   1      -7.020   2.972 126.859  0.00  0.00    +0.181 A 
ATOM      2  C   LIG A   1      -7.290   3.909 127.794  0.00  0.00    +0.214 A 
ATOM      3  C   LIG A   1      -6.121   4.441 128.565  0.00  0.00    +0.238 A 
ATOM      4  C   LIG A   1      -4.783   4.109 128.081  0.00  0.00    +0.109 A 
ATOM      5  C   LIG A   1      -3.651   4.806 128.535  0.00  0.00    +0.135 A 
ATOM      6  C   LIG A   1      -2.396   4.516 128.017  0.00  0.00    +0.091 A 
ATOM      7  C   LIG A   1      -2.279   3.502 127.072  0.00  0.00    +0.124 A 
ATOM      8  C   LIG A   1      -3.397   2.795 126.625  0.00  0.00    +0.092 A 
ATOM      9  C   LIG A   1      -4.662   3.124 127.113  0.00  0.00    +0.146 A 
ATOM     10  O   LIG A   1      -5.749   2.471 126.585  0.00  0.00    -0.451 OA
ATOM     11  O   LIG A   1      -6.220   5.220 129.505  0.00  0.00    -0.283 OA
ENDROOT
BRANCH   1  15
ATOM     12  C   LIG A   1     -10.058   1.292 124.333  0.00  0.00    +0.117 A 
ATOM     13  C   LIG A   1      -9.809   0.726 125.578  0.00  0.00    +0.046 A 
ATOM     14  C   LIG A   1      -8.812   1.273 126.400  0.00  0.00    +0.015 A 
ATOM     15  C   LIG A   1      -8.064   2.388 125.984  0.00  0.00    +0.021 A 
ATOM     16  C   LIG A   1      -8.344   2.949 124.729  0.00  0.00    +0.015 A 
ATOM     17  C   LIG A   1      -9.337   2.401 123.907  0.00  0.00    +0.046 A 
BRANCH  12  18
ATOM     18  O   LIG A   1     -11.006   0.785 123.493  0.00  0.00    -0.507 OA
ATOM     19  H   LIG A   1     -10.932  -0.185 123.483  0.00  0.00    +0.292 HD
ENDBRANCH  12  18
ENDBRANCH   1  15
BRANCH   5  20
ATOM     20  O   LIG A   1      -3.703   5.804 129.471  0.00  0.00    -0.506 OA
ATOM     21  H   LIG A   1      -4.248   5.493 130.226  0.00  0.00    +0.292 HD
ENDBRANCH   5  20
BRANCH   7  22
ATOM     22  O   LIG A   1      -1.066   3.178 126.541  0.00  0.00    -0.506 OA
ATOM     23  H   LIG A   1      -1.072   3.387 125.590  0.00  0.00    +0.292 HD
ENDBRANCH   7  22
BRANCH   2  24
ATOM     24  O   LIG A   1      -8.578   4.400 127.983  0.00  0.00    -0.453 OA
BRANCH  24  25
ATOM     25  C   LIG A   1      -8.935   4.906 129.287  0.00  0.00    +0.340 C 
ATOM     26  O   LIG A   1      -9.950   4.060 129.847  0.00  0.00    -0.334 OA
ATOM     27  C   LIG A   1     -10.426   4.471 131.143  0.00  0.00    +0.150 C 
ATOM     28  C   LIG A   1      -9.373   4.234 132.226  0.00  0.00    +0.040 C 
ATOM     29  C   LIG A   1     -10.929   5.928 131.143  0.00  0.00    +0.174 C 
ATOM     30  C   LIG A   1     -10.845   6.526 129.739  0.00  0.00    +0.180 C 
ATOM     31  C   LIG A   1      -9.429   6.380 129.194  0.00  0.00    +0.214 C 
BRANCH  29  32
ATOM     32  O   LIG A   1     -12.292   5.983 131.588  0.00  0.00    -0.387 OA
ATOM     33  H   LIG A   1     -12.258   6.383 132.481  0.00  0.00    +0.210 HD
ENDBRANCH  29  32
BRANCH  30  34
ATOM     34  O   LIG A   1     -11.203   7.919 129.810  0.00  0.00    -0.386 OA
ATOM     35  H   LIG A   1     -12.083   7.933 130.243  0.00  0.00    +0.210 HD
ENDBRANCH  30  34
BRANCH  31  36
ATOM     36  O   LIG A   1      -8.598   7.277 129.970  0.00  0.00    -0.383 OA
ATOM     37  H   LIG A   1      -8.597   8.145 129.517  0.00  0.00    +0.210 HD
ENDBRANCH  31  36
ENDBRANCH  24  25
ENDBRANCH   2  24
TORSDOF 9
ENDMDL
MODEL 5
REMARK VINA RESULT:      -7.7      3.625      6.558
REMARK  Name = NuBBE_121
REMARK  10 active torsions:
REMARK  status: ('A' for Active; 'I' for Inactive)
REMARK    1  A    between atoms: O_1  and  C_2
REMARK    2  A    between atoms: C_5  and  C_8
REMARK    3  A    between atoms: C_9  and  O_10
REMARK    4  A    between atoms: O_10  and  C_11
REMARK    5  A    between atoms: C_14  and  C_16
REMARK    6  A    between atoms: C_17  and  O_19
REMARK    7  A    between atoms: C_20  and  O_22
REMARK    8  A    between atoms: C_23  and  O_25
REMARK    9  A    between atoms: C_28  and  O_29
REMARK   10  A    between atoms: C_31  and  O_32
REMARK                            x       y       z     vdW  Elec       q    Type
REMARK                         _______ _______ _______ _____ _____    ______ ____
ROOT
ATOM      1  C   LIG A   1      -7.227  -0.484 127.314  0.00  0.00    +0.181 A 
ATOM      2  C   LIG A   1      -7.153   0.803 127.717  0.00  0.00    +0.214 A 
ATOM      3  C   LIG A   1      -7.601   1.839 126.731  0.00  0.00    +0.238 A 
ATOM      4  C   LIG A   1      -8.312   1.379 125.541  0.00  0.00    +0.109 A 
ATOM      5  C   LIG A   1      -9.036   2.271 124.735  0.00  0.00    +0.135 A 
ATOM      6  C   LIG A   1      -9.756   1.804 123.643  0.00  0.00    +0.091 A 
ATOM      7  C   LIG A   1      -9.713   0.446 123.345  0.00  0.00    +0.124 A 
ATOM      8  C   LIG A   1      -8.984  -0.447 124.133  0.00  0.00    +0.092 A 
ATOM      9  C   LIG A   1      -8.303   0.021 125.257  0.00  0.00    +0.146 A 
ATOM     10  O   LIG A   1      -7.673  -0.897 126.060  0.00  0.00    -0.451 OA
ATOM     11  O   LIG A   1      -7.502   3.046 126.916  0.00  0.00    -0.283 OA
ENDROOT
BRANCH   1  15
ATOM     12  C   LIG A   1      -6.185  -3.789 129.850  0.00  0.00    +0.117 A 
ATOM     13  C   LIG A   1      -7.523  -3.475 129.644  0.00  0.00    +0.046 A 
ATOM     14  C   LIG A   1      -7.862  -2.392 128.819  0.00  0.00    +0.015 A 
ATOM     15  C   LIG A   1      -6.867  -1.621 128.195  0.00  0.00    +0.021 A 
ATOM     16  C   LIG A   1      -5.524  -1.965 128.408  0.00  0.00    +0.015 A 
ATOM     17  C   LIG A   1      -5.185  -3.045 129.234  0.00  0.00    +0.046 A 
BRANCH  12  18
ATOM     18  O   LIG A   1      -5.807  -4.822 130.656  0.00  0.00    -0.507 OA
ATOM     19  H   LIG A   1      -6.483  -5.519 130.614  0.00  0.00    +0.292 HD
ENDBRANCH  12  18
ENDBRANCH   1  15
BRANCH   5  20
ATOM     20  O   LIG A   1      -9.105   3.618 124.972  0.00  0.00    -0.506 OA
ATOM     21  H   LIG A   1      -9.378   4.065 124.142  0.00  0.00    +0.292 HD
ENDBRANCH   5  20
BRANCH   7  22
ATOM     22  O   LIG A   1     -10.398  -0.058 122.279  0.00  0.00    -0.506 OA
ATOM     23  H   LIG A   1      -9.972   0.247 121.459  0.00  0.00    +0.292 HD
ENDBRANCH   7  22
BRANCH   2  24
ATOM     24  O   LIG A   1      -6.743   1.143 129.003  0.00  0.00    -0.453 OA
BRANCH  24  25
ATOM     25  C   LIG A   1      -7.755   1.372 130.006  0.00  0.00    +0.340 C 
ATOM     26  O   LIG A   1      -7.758   2.767 130.346  0.00  0.00    -0.334 OA
ATOM     27  C   LIG A   1      -8.704   3.133 131.368  0.00  0.00    +0.150 C 
ATOM     28  C   LIG A   1     -10.141   3.070 130.848  0.00  0.00    +0.040 C 
ATOM     29  C   LIG A   1      -8.524   2.303 132.654  0.00  0.00    +0.174 C 
ATOM     30  C   LIG A   1      -7.336   1.351 132.516  0.00  0.00    +0.180 C 
ATOM     31  C   LIG A   1      -7.497   0.494 131.266  0.00  0.00    +0.214 C 
BRANCH  29  32
ATOM     32  O   LIG A   1      -8.296   3.167 133.776  0.00  0.00    -0.387 OA
ATOM     33  H   LIG A   1      -7.424   2.904 134.133  0.00  0.00    +0.210 HD
ENDBRANCH  29  32
BRANCH  30  34
ATOM     34  O   LIG A   1      -7.284   0.509 133.684  0.00  0.00    -0.386 OA
ATOM     35  H   LIG A   1      -7.642   1.062 134.411  0.00  0.00    +0.210 HD
ENDBRANCH  30  34
BRANCH  31  36
ATOM     36  O   LIG A   1      -8.599  -0.409 131.527  0.00  0.00    -0.383 OA
ATOM     37  H   LIG A   1      -9.297  -0.224 130.865  0.00  0.00    +0.210 HD
ENDBRANCH  31  36
ENDBRANCH  24  25
ENDBRANCH   2  24
TORSDOF 9
ENDMDL
MODEL 6
REMARK VINA RESULT:      -7.6      3.565      5.064
REMARK  Name = NuBBE_121
REMARK  10 active torsions:
REMARK  status: ('A' for Active; 'I' for Inactive)
REMARK    1  A    between atoms: O_1  and  C_2
REMARK    2  A    between atoms: C_5  and  C_8
REMARK    3  A    between atoms: C_9  and  O_10
REMARK    4  A    between atoms: O_10  and  C_11
REMARK    5  A    between atoms: C_14  and  C_16
REMARK    6  A    between atoms: C_17  and  O_19
REMARK    7  A    between atoms: C_20  and  O_22
REMARK    8  A    between atoms: C_23  and  O_25
REMARK    9  A    between atoms: C_28  and  O_29
REMARK   10  A    between atoms: C_31  and  O_32
REMARK                            x       y       z     vdW  Elec       q    Type
REMARK                         _______ _______ _______ _____ _____    ______ ____
ROOT
ATOM      1  C   LIG A   1      -5.426   4.778 127.146  0.00  0.00    +0.181 A 
ATOM      2  C   LIG A   1      -6.588   4.232 127.567  0.00  0.00    +0.214 A 
ATOM      3  C   LIG A   1      -7.541   3.783 126.502  0.00  0.00    +0.238 A 
ATOM      4  C   LIG A   1      -7.046   3.729 125.129  0.00  0.00    +0.109 A 
ATOM      5  C   LIG A   1      -7.745   3.035 124.129  0.00  0.00    +0.135 A 
ATOM      6  C   LIG A   1      -7.226   2.944 122.844  0.00  0.00    +0.091 A 
ATOM      7  C   LIG A   1      -6.023   3.584 122.562  0.00  0.00    +0.124 A 
ATOM      8  C   LIG A   1      -5.328   4.288 123.546  0.00  0.00    +0.092 A 
ATOM      9  C   LIG A   1      -5.830   4.334 124.847  0.00  0.00    +0.146 A 
ATOM     10  O   LIG A   1      -5.076   4.958 125.810  0.00  0.00    -0.451 OA
ATOM     11  O   LIG A   1      -8.668   3.359 126.727  0.00  0.00    -0.283 OA
ENDROOT
BRANCH   1  15
ATOM     12  C   LIG A   1      -2.365   6.074 129.863  0.00  0.00    +0.117 A 
ATOM     13  C   LIG A   1      -2.773   6.916 128.834  0.00  0.00    +0.046 A 
ATOM     14  C   LIG A   1      -3.770   6.489 127.945  0.00  0.00    +0.015 A 
ATOM     15  C   LIG A   1      -4.365   5.223 128.080  0.00  0.00    +0.021 A 
ATOM     16  C   LIG A   1      -3.945   4.397 129.133  0.00  0.00    +0.015 A 
ATOM     17  C   LIG A   1      -2.947   4.822 130.020  0.00  0.00    +0.046 A 
BRANCH  12  18
ATOM     18  O   LIG A   1      -1.388   6.440 130.742  0.00  0.00    -0.507 OA
ATOM     19  H   LIG A   1      -1.178   5.682 131.313  0.00  0.00    +0.292 HD
ENDBRANCH  12  18
ENDBRANCH   1  15
BRANCH   5  20
ATOM     20  O   LIG A   1      -8.937   2.397 124.345  0.00  0.00    -0.506 OA
ATOM     21  H   LIG A   1      -8.898   1.955 125.221  0.00  0.00    +0.292 HD
ENDBRANCH   5  20
BRANCH   7  22
ATOM     22  O   LIG A   1      -5.479   3.528 121.313  0.00  0.00    -0.506 OA
ATOM     23  H   LIG A   1      -5.408   4.432 120.959  0.00  0.00    +0.292 HD
ENDBRANCH   7  22
BRANCH   2  24
ATOM     24  O   LIG A   1      -6.854   4.037 128.919  0.00  0.00    -0.453 OA
BRANCH  24  25
ATOM     25  C   LIG A   1      -7.988   4.716 129.499  0.00  0.00    +0.340 C 
ATOM     26  O   LIG A   1      -7.513   5.834 130.265  0.00  0.00    -0.334 OA
ATOM     27  C   LIG A   1      -8.544   6.586 130.931  0.00  0.00    +0.150 C 
ATOM     28  C   LIG A   1      -9.381   7.391 129.935  0.00  0.00    +0.040 C 
ATOM     29  C   LIG A   1      -9.424   5.698 131.832  0.00  0.00    +0.174 C 
ATOM     30  C   LIG A   1      -8.918   4.255 131.823  0.00  0.00    +0.180 C 
ATOM     31  C   LIG A   1      -8.820   3.747 130.389  0.00  0.00    +0.214 C 
BRANCH  29  32
ATOM     32  O   LIG A   1      -9.407   6.185 133.181  0.00  0.00    -0.387 OA
ATOM     33  H   LIG A   1     -10.261   6.646 133.302  0.00  0.00    +0.210 HD
ENDBRANCH  29  32
BRANCH  30  34
ATOM     34  O   LIG A   1      -9.840   3.440 132.571  0.00  0.00    -0.386 OA
ATOM     35  H   LIG A   1      -9.328   3.125 133.346  0.00  0.00    +0.210 HD
ENDBRANCH  30  34
BRANCH  31  36
ATOM     36  O   LIG A   1     -10.180   3.608 129.910  0.00  0.00    -0.383 OA
ATOM     37  H   LIG A   1     -10.479   2.700 130.128  0.00  0.00    +0.210 HD
ENDBRANCH  31  36
ENDBRANCH  24  25
ENDBRANCH   2  24
TORSDOF 9
ENDMDL
MODEL 7
REMARK VINA RESULT:      -7.6      3.744      6.923
REMARK  Name = NuBBE_121
REMARK  10 active torsions:
REMARK  status: ('A' for Active; 'I' for Inactive)
REMARK    1  A    between atoms: O_1  and  C_2
REMARK    2  A    between atoms: C_5  and  C_8
REMARK    3  A    between atoms: C_9  and  O_10
REMARK    4  A    between atoms: O_10  and  C_11
REMARK    5  A    between atoms: C_14  and  C_16
REMARK    6  A    between atoms: C_17  and  O_19
REMARK    7  A    between atoms: C_20  and  O_22
REMARK    8  A    between atoms: C_23  and  O_25
REMARK    9  A    between atoms: C_28  and  O_29
REMARK   10  A    between atoms: C_31  and  O_32
REMARK                            x       y       z     vdW  Elec       q    Type
REMARK                         _______ _______ _______ _____ _____    ______ ____
ROOT
ATOM      1  C   LIG A   1      -6.239   5.543 131.718  0.00  0.00    +0.181 A 
ATOM      2  C   LIG A   1      -6.164   4.379 131.036  0.00  0.00    +0.214 A 
ATOM      3  C   LIG A   1      -7.465   3.711 130.708  0.00  0.00    +0.238 A 
ATOM      4  C   LIG A   1      -8.691   4.479 130.913  0.00  0.00    +0.109 A 
ATOM      5  C   LIG A   1      -9.909   4.069 130.349  0.00  0.00    +0.135 A 
ATOM      6  C   LIG A   1     -11.050   4.845 130.504  0.00  0.00    +0.091 A 
ATOM      7  C   LIG A   1     -10.969   6.012 131.258  0.00  0.00    +0.124 A 
ATOM      8  C   LIG A   1      -9.764   6.420 131.834  0.00  0.00    +0.092 A 
ATOM      9  C   LIG A   1      -8.611   5.661 131.634  0.00  0.00    +0.146 A 
ATOM     10  O   LIG A   1      -7.426   6.139 132.138  0.00  0.00    -0.451 OA
ATOM     11  O   LIG A   1      -7.554   2.609 130.181  0.00  0.00    -0.283 OA
ENDROOT
BRANCH   1  15
ATOM     12  C   LIG A   1      -2.761   7.847 132.734  0.00  0.00    +0.117 A 
ATOM     13  C   LIG A   1      -3.270   6.930 133.647  0.00  0.00    +0.046 A 
ATOM     14  C   LIG A   1      -4.409   6.182 133.315  0.00  0.00    +0.015 A 
ATOM     15  C   LIG A   1      -5.042   6.343 132.071  0.00  0.00    +0.021 A 
ATOM     16  C   LIG A   1      -4.503   7.265 131.162  0.00  0.00    +0.015 A 
ATOM     17  C   LIG A   1      -3.367   8.015 131.494  0.00  0.00    +0.046 A 
BRANCH  12  18
ATOM     18  O   LIG A   1      -1.666   8.609 133.018  0.00  0.00    -0.507 OA
ATOM     19  H   LIG A   1      -1.768   9.478 132.596  0.00  0.00    +0.292 HD
ENDBRANCH  12  18
ENDBRANCH   1  15
BRANCH   5  20
ATOM     20  O   LIG A   1     -10.052   2.927 129.608  0.00  0.00    -0.506 OA
ATOM     21  H   LIG A   1     -10.588   2.287 130.125  0.00  0.00    +0.292 HD
ENDBRANCH   5  20
BRANCH   7  22
ATOM     22  O   LIG A   1     -12.064   6.802 131.444  0.00  0.00    -0.506 OA
ATOM     23  H   LIG A   1     -12.231   6.889 132.399  0.00  0.00    +0.292 HD
ENDBRANCH   7  22
BRANCH   2  24
ATOM     24  O   LIG A   1      -4.946   3.863 130.605  0.00  0.00    -0.453 OA
BRANCH  24  25
ATOM     25  C   LIG A   1      -4.650   3.894 129.193  0.00  0.00    +0.340 C 
ATOM     26  O   LIG A   1      -3.841   2.753 128.868  0.00  0.00    -0.334 OA
ATOM     27  C   LIG A   1      -3.442   2.676 127.486  0.00  0.00    +0.150 C 
ATOM     28  C   LIG A   1      -4.624   2.324 126.581  0.00  0.00    +0.040 C 
ATOM     29  C   LIG A   1      -2.721   3.954 127.015  0.00  0.00    +0.174 C 
ATOM     30  C   LIG A   1      -2.568   4.941 128.171  0.00  0.00    +0.180 C 
ATOM     31  C   LIG A   1      -3.927   5.217 128.805  0.00  0.00    +0.214 C 
BRANCH  29  32
ATOM     32  O   LIG A   1      -1.418   3.632 126.506  0.00  0.00    -0.387 OA
ATOM     33  H   LIG A   1      -0.804   3.785 127.251  0.00  0.00    +0.210 HD
ENDBRANCH  29  32
BRANCH  30  34
ATOM     34  O   LIG A   1      -2.008   6.166 127.660  0.00  0.00    -0.386 OA
ATOM     35  H   LIG A   1      -1.849   6.722 128.452  0.00  0.00    +0.210 HD
ENDBRANCH  30  34
BRANCH  31  36
ATOM     36  O   LIG A   1      -4.683   5.981 127.835  0.00  0.00    -0.383 OA
ATOM     37  H   LIG A   1      -4.046   6.351 127.189  0.00  0.00    +0.210 HD
ENDBRANCH  31  36
ENDBRANCH  24  25
ENDBRANCH   2  24
TORSDOF 9
ENDMDL
MODEL 8
REMARK VINA RESULT:      -7.5      4.109      8.028
REMARK  Name = NuBBE_121
REMARK  10 active torsions:
REMARK  status: ('A' for Active; 'I' for Inactive)
REMARK    1  A    between atoms: O_1  and  C_2
REMARK    2  A    between atoms: C_5  and  C_8
REMARK    3  A    between atoms: C_9  and  O_10
REMARK    4  A    between atoms: O_10  and  C_11
REMARK    5  A    between atoms: C_14  and  C_16
REMARK    6  A    between atoms: C_17  and  O_19
REMARK    7  A    between atoms: C_20  and  O_22
REMARK    8  A    between atoms: C_23  and  O_25
REMARK    9  A    between atoms: C_28  and  O_29
REMARK   10  A    between atoms: C_31  and  O_32
REMARK                            x       y       z     vdW  Elec       q    Type
REMARK                         _______ _______ _______ _____ _____    ______ ____
ROOT
ATOM      1  C   LIG A   1      -7.152   1.928 122.992  0.00  0.00    +0.181 A 
ATOM      2  C   LIG A   1      -8.009   2.169 124.009  0.00  0.00    +0.214 A 
ATOM      3  C   LIG A   1      -8.491   0.975 124.774  0.00  0.00    +0.238 A 
ATOM      4  C   LIG A   1      -7.814  -0.298 124.539  0.00  0.00    +0.109 A 
ATOM      5  C   LIG A   1      -7.974  -1.381 125.419  0.00  0.00    +0.135 A 
ATOM      6  C   LIG A   1      -7.273  -2.562 125.212  0.00  0.00    +0.091 A 
ATOM      7  C   LIG A   1      -6.443  -2.662 124.100  0.00  0.00    +0.124 A 
ATOM      8  C   LIG A   1      -6.289  -1.595 123.213  0.00  0.00    +0.092 A 
ATOM      9  C   LIG A   1      -6.957  -0.394 123.453  0.00  0.00    +0.146 A 
ATOM     10  O   LIG A   1      -6.711   0.663 122.612  0.00  0.00    -0.451 OA
ATOM     11  O   LIG A   1      -9.339   1.025 125.656  0.00  0.00    -0.283 OA
ENDROOT
BRANCH   1  15
ATOM     12  C   LIG A   1      -5.402   5.052 120.622  0.00  0.00    +0.117 A 
ATOM     13  C   LIG A   1      -4.848   4.732 121.856  0.00  0.00    +0.046 A 
ATOM     14  C   LIG A   1      -5.424   3.714 122.631  0.00  0.00    +0.015 A 
ATOM     15  C   LIG A   1      -6.552   3.011 122.176  0.00  0.00    +0.021 A 
ATOM     16  C   LIG A   1      -7.085   3.344 120.922  0.00  0.00    +0.015 A 
ATOM     17  C   LIG A   1      -6.511   4.362 120.149  0.00  0.00    +0.046 A 
BRANCH  12  18
ATOM     18  O   LIG A   1      -4.886   6.045 119.842  0.00  0.00    -0.507 OA
ATOM     19  H   LIG A   1      -5.545   6.754 119.757  0.00  0.00    +0.292 HD
ENDBRANCH  12  18
ENDBRANCH   1  15
BRANCH   5  20
ATOM     20  O   LIG A   1      -8.785  -1.345 126.521  0.00  0.00    -0.506 OA
ATOM     21  H   LIG A   1      -9.028  -2.266 126.758  0.00  0.00    +0.292 HD
ENDBRANCH   5  20
BRANCH   7  22
ATOM     22  O   LIG A   1      -5.742  -3.804 123.852  0.00  0.00    -0.506 OA
ATOM     23  H   LIG A   1      -6.171  -4.286 123.123  0.00  0.00    +0.292 HD
ENDBRANCH   7  22
BRANCH   2  24
ATOM     24  O   LIG A   1      -8.370   3.464 124.366  0.00  0.00    -0.453 OA
BRANCH  24  25
ATOM     25  C   LIG A   1      -7.682   4.089 125.470  0.00  0.00    +0.340 C 
ATOM     26  O   LIG A   1      -6.522   3.306 125.791  0.00  0.00    -0.334 OA
ATOM     27  C   LIG A   1      -5.754   3.800 126.904  0.00  0.00    +0.150 C 
ATOM     28  C   LIG A   1      -5.010   5.087 126.543  0.00  0.00    +0.040 C 
ATOM     29  C   LIG A   1      -6.612   3.972 128.174  0.00  0.00    +0.174 C 
ATOM     30  C   LIG A   1      -8.045   3.506 127.920  0.00  0.00    +0.180 C 
ATOM     31  C   LIG A   1      -8.620   4.225 126.705  0.00  0.00    +0.214 C 
BRANCH  29  32
ATOM     32  O   LIG A   1      -6.061   3.206 129.254  0.00  0.00    -0.387 OA
ATOM     33  H   LIG A   1      -5.725   2.384 128.845  0.00  0.00    +0.210 HD
ENDBRANCH  29  32
BRANCH  30  34
ATOM     34  O   LIG A   1      -8.838   3.802 129.086  0.00  0.00    -0.386 OA
ATOM     35  H   LIG A   1      -8.474   4.645 129.432  0.00  0.00    +0.210 HD
ENDBRANCH  30  34
BRANCH  31  36
ATOM     36  O   LIG A   1      -8.801   5.608 127.095  0.00  0.00    -0.383 OA
ATOM     37  H   LIG A   1      -9.236   5.612 127.973  0.00  0.00    +0.210 HD
ENDBRANCH  31  36
ENDBRANCH  24  25
ENDBRANCH   2  24
TORSDOF 9
ENDMDL
MODEL 9
REMARK VINA RESULT:      -7.3      4.764      8.283
REMARK  Name = NuBBE_121
REMARK  10 active torsions:
REMARK  status: ('A' for Active; 'I' for Inactive)
REMARK    1  A    between atoms: O_1  and  C_2
REMARK    2  A    between atoms: C_5  and  C_8
REMARK    3  A    between atoms: C_9  and  O_10
REMARK    4  A    between atoms: O_10  and  C_11
REMARK    5  A    between atoms: C_14  and  C_16
REMARK    6  A    between atoms: C_17  and  O_19
REMARK    7  A    between atoms: C_20  and  O_22
REMARK    8  A    between atoms: C_23  and  O_25
REMARK    9  A    between atoms: C_28  and  O_29
REMARK   10  A    between atoms: C_31  and  O_32
REMARK                            x       y       z     vdW  Elec       q    Type
REMARK                         _______ _______ _______ _____ _____    ______ ____
ROOT
ATOM      1  C   LIG A   1      -8.065   1.338 124.030  0.00  0.00    +0.181 A 
ATOM      2  C   LIG A   1      -8.100   1.780 125.306  0.00  0.00    +0.214 A 
ATOM      3  C   LIG A   1      -8.368   0.753 126.363  0.00  0.00    +0.238 A 
ATOM      4  C   LIG A   1      -8.311  -0.653 125.970  0.00  0.00    +0.109 A 
ATOM      5  C   LIG A   1      -8.234  -1.675 126.931  0.00  0.00    +0.135 A 
ATOM      6  C   LIG A   1      -8.119  -3.001 126.535  0.00  0.00    +0.091 A 
ATOM      7  C   LIG A   1      -8.120  -3.297 125.176  0.00  0.00    +0.124 A 
ATOM      8  C   LIG A   1      -8.211  -2.289 124.215  0.00  0.00    +0.092 A 
ATOM      9  C   LIG A   1      -8.276  -0.955 124.617  0.00  0.00    +0.146 A 
ATOM     10  O   LIG A   1      -8.272   0.015 123.645  0.00  0.00    -0.451 OA
ATOM     11  O   LIG A   1      -8.523   1.016 127.549  0.00  0.00    -0.283 OA
ENDROOT
BRANCH   1  15
ATOM     12  C   LIG A   1      -7.187   3.895 120.694  0.00  0.00    +0.117 A 
ATOM     13  C   LIG A   1      -6.145   3.308 121.404  0.00  0.00    +0.046 A 
ATOM     14  C   LIG A   1      -6.434   2.476 122.496  0.00  0.00    +0.015 A 
ATOM     15  C   LIG A   1      -7.762   2.226 122.882  0.00  0.00    +0.021 A 
ATOM     16  C   LIG A   1      -8.795   2.819 122.143  0.00  0.00    +0.015 A 
ATOM     17  C   LIG A   1      -8.507   3.652 121.053  0.00  0.00    +0.046 A 
BRANCH  12  18
ATOM     18  O   LIG A   1      -6.955   4.723 119.636  0.00  0.00    -0.507 OA
ATOM     19  H   LIG A   1      -6.090   4.506 119.249  0.00  0.00    +0.292 HD
ENDBRANCH  12  18
ENDBRANCH   1  15
BRANCH   5  20
ATOM     20  O   LIG A   1      -8.240  -1.445 128.280  0.00  0.00    -0.506 OA
ATOM     21  H   LIG A   1      -7.326  -1.562 128.619  0.00  0.00    +0.292 HD
ENDBRANCH   5  20
BRANCH   7  22
ATOM     22  O   LIG A   1      -8.016  -4.585 124.741  0.00  0.00    -0.506 OA
ATOM     23  H   LIG A   1      -7.511  -4.597 123.910  0.00  0.00    +0.292 HD
ENDBRANCH   7  22
BRANCH   2  24
ATOM     24  O   LIG A   1      -7.835   3.108 125.625  0.00  0.00    -0.453 OA
BRANCH  24  25
ATOM     25  C   LIG A   1      -6.553   3.432 126.205  0.00  0.00    +0.340 C 
ATOM     26  O   LIG A   1      -5.639   2.359 125.929  0.00  0.00    -0.334 OA
ATOM     27  C   LIG A   1      -4.322   2.537 126.483  0.00  0.00    +0.150 C 
ATOM     28  C   LIG A   1      -3.547   3.630 125.745  0.00  0.00    +0.040 C 
ATOM     29  C   LIG A   1      -4.357   2.788 128.003  0.00  0.00    +0.174 C 
ATOM     30  C   LIG A   1      -5.792   2.717 128.526  0.00  0.00    +0.180 C 
ATOM     31  C   LIG A   1      -6.682   3.671 127.738  0.00  0.00    +0.214 C 
BRANCH  29  32
ATOM     32  O   LIG A   1      -3.566   1.807 128.689  0.00  0.00    -0.387 OA
ATOM     33  H   LIG A   1      -2.945   1.459 128.018  0.00  0.00    +0.210 HD
ENDBRANCH  29  32
BRANCH  30  34
ATOM     34  O   LIG A   1      -5.793   3.082 129.919  0.00  0.00    -0.386 OA
ATOM     35  H   LIG A   1      -5.208   2.426 130.354  0.00  0.00    +0.210 HD
ENDBRANCH  30  34
BRANCH  31  36
ATOM     36  O   LIG A   1      -6.276   5.011 128.110  0.00  0.00    -0.383 OA
ATOM     37  H   LIG A   1      -7.087   5.557 128.179  0.00  0.00    +0.210 HD
ENDBRANCH  31  36
ENDBRANCH  24  25
ENDBRANCH   2  24
TORSDOF 9
ENDMDL
