MODEL 1
REMARK VINA RESULT:      -7.7      0.000      0.000
REMARK  Name = NuBBE_2382
REMARK  11 active torsions:
REMARK  status: ('A' for Active; 'I' for Inactive)
REMARK    1  A    between atoms: C_1  and  C_24
REMARK    2  A    between atoms: C_1  and  C_25
REMARK    3  A    between atoms: C_3  and  C_4
REMARK    4  A    between atoms: C_4  and  O_5
REMARK    5  A    between atoms: C_7  and  O_19
REMARK    6  A    between atoms: C_8  and  O_9
REMARK    7  A    between atoms: O_9  and  C_10
REMARK    8  A    between atoms: C_11  and  C_16
REMARK    9  A    between atoms: C_16  and  C_17
REMARK   10  A    between atoms: C_16  and  C_18
REMARK   11  A    between atoms: O_19  and  C_20
REMARK                            x       y       z     vdW  Elec       q    Type
REMARK                         _______ _______ _______ _____ _____    ______ ____
ROOT
ATOM      1  C   LIG A   1      -8.557  -2.840 124.937  0.00  0.00    -0.031 C 
ATOM      2  C   LIG A   1      -7.610  -1.662 125.446  0.00  0.00    +0.008 C 
ATOM      3  C   LIG A   1      -7.807  -0.231 124.733  0.00  0.00    +0.026 C 
ATOM      4  C   LIG A   1      -6.663   0.796 125.111  0.00  0.00    +0.010 A 
ATOM      5  C   LIG A   1      -6.617   2.146 124.638  0.00  0.00    +0.166 A 
ATOM      6  C   LIG A   1      -5.655   3.070 125.109  0.00  0.00    +0.165 A 
ATOM      7  C   LIG A   1      -4.675   2.650 126.039  0.00  0.00    +0.001 A 
ATOM      8  C   LIG A   1      -4.655   1.303 126.398  0.00  0.00    +0.011 A 
ATOM      9  C   LIG A   1      -5.583   0.371 125.917  0.00  0.00    -0.040 A 
ATOM     10  C   LIG A   1      -5.345  -1.061 126.288  0.00  0.00    +0.036 C 
ATOM     11  C   LIG A   1      -6.118  -2.032 125.423  0.00  0.00    +0.009 C 
ATOM     12  C   LIG A   1      -7.805  -0.416 123.183  0.00  0.00    +0.014 C 
ATOM     13  C   LIG A   1      -8.123  -1.819 122.661  0.00  0.00    +0.001 C 
ATOM     14  C   LIG A   1      -9.121  -2.562 123.527  0.00  0.00    +0.007 C 
ATOM     15  C   LIG A   1      -7.858  -4.228 124.899  0.00  0.00    +0.011 C 
ATOM     16  C   LIG A   1      -9.739  -3.040 125.921  0.00  0.00    +0.011 C 
ENDROOT
BRANCH   7  17
ATOM     17  C   LIG A   1      -3.647   3.603 126.636  0.00  0.00    +0.017 C 
ATOM     18  C   LIG A   1      -2.228   3.042 126.533  0.00  0.00    +0.012 C 
ATOM     19  C   LIG A   1      -3.989   3.935 128.099  0.00  0.00    +0.012 C 
ENDBRANCH   7  17
BRANCH   6  20
ATOM     20  O   LIG A   1      -5.510   4.338 124.606  0.00  0.00    -0.491 OA
ATOM     21  C   LIG A   1      -6.370   5.323 125.172  0.00  0.00    +0.277 C 
ENDBRANCH   6  20
BRANCH   5  22
ATOM     22  O   LIG A   1      -7.617   2.461 123.750  0.00  0.00    -0.491 OA
ATOM     23  C   LIG A   1      -7.337   2.920 122.439  0.00  0.00    +0.277 C 
ENDBRANCH   5  22
BRANCH   3  24
ATOM     24  C   LIG A   1      -9.186   0.311 125.277  0.00  0.00    +0.167 C 
BRANCH  24  25
ATOM     25  O   LIG A   1     -10.152   0.772 124.346  0.00  0.00    -0.394 OA
ATOM     26  H   LIG A   1     -10.930   1.054 124.862  0.00  0.00    +0.209 HD
ENDBRANCH  24  25
ENDBRANCH   3  24
TORSDOF 5
ENDMDL
MODEL 2
REMARK VINA RESULT:      -7.1      3.686      6.264
REMARK  Name = NuBBE_2382
REMARK  11 active torsions:
REMARK  status: ('A' for Active; 'I' for Inactive)
REMARK    1  A    between atoms: C_1  and  C_24
REMARK    2  A    between atoms: C_1  and  C_25
REMARK    3  A    between atoms: C_3  and  C_4
REMARK    4  A    between atoms: C_4  and  O_5
REMARK    5  A    between atoms: C_7  and  O_19
REMARK    6  A    between atoms: C_8  and  O_9
REMARK    7  A    between atoms: O_9  and  C_10
REMARK    8  A    between atoms: C_11  and  C_16
REMARK    9  A    between atoms: C_16  and  C_17
REMARK   10  A    between atoms: C_16  and  C_18
REMARK   11  A    between atoms: O_19  and  C_20
REMARK                            x       y       z     vdW  Elec       q    Type
REMARK                         _______ _______ _______ _____ _____    ______ ____
ROOT
ATOM      1  C   LIG A   1      -6.679  -2.049 131.487  0.00  0.00    -0.031 C 
ATOM      2  C   LIG A   1      -7.014  -2.209 129.936  0.00  0.00    +0.008 C 
ATOM      3  C   LIG A   1      -7.148  -0.844 129.091  0.00  0.00    +0.026 C 
ATOM      4  C   LIG A   1      -7.731  -1.086 127.640  0.00  0.00    +0.010 A 
ATOM      5  C   LIG A   1      -7.922  -0.046 126.674  0.00  0.00    +0.166 A 
ATOM      6  C   LIG A   1      -8.316  -0.325 125.344  0.00  0.00    +0.165 A 
ATOM      7  C   LIG A   1      -8.577  -1.659 124.955  0.00  0.00    +0.001 A 
ATOM      8  C   LIG A   1      -8.507  -2.648 125.935  0.00  0.00    +0.011 A 
ATOM      9  C   LIG A   1      -8.147  -2.383 127.262  0.00  0.00    -0.040 A 
ATOM     10  C   LIG A   1      -8.251  -3.527 128.223  0.00  0.00    +0.036 C 
ATOM     11  C   LIG A   1      -8.248  -3.086 129.671  0.00  0.00    +0.009 C 
ATOM     12  C   LIG A   1      -8.096   0.142 129.840  0.00  0.00    +0.014 C 
ATOM     13  C   LIG A   1      -8.291  -0.101 131.340  0.00  0.00    +0.001 C 
ATOM     14  C   LIG A   1      -7.049  -0.647 132.018  0.00  0.00    +0.007 C 
ATOM     15  C   LIG A   1      -7.391  -3.097 132.389  0.00  0.00    +0.011 C 
ATOM     16  C   LIG A   1      -5.169  -2.298 131.738  0.00  0.00    +0.011 C 
ENDROOT
BRANCH   7  17
ATOM     17  C   LIG A   1      -8.944  -2.040 123.526  0.00  0.00    +0.017 C 
ATOM     18  C   LIG A   1      -9.640  -3.401 123.465  0.00  0.00    +0.012 C 
ATOM     19  C   LIG A   1      -7.703  -2.031 122.617  0.00  0.00    +0.012 C 
ENDBRANCH   7  17
BRANCH   6  20
ATOM     20  O   LIG A   1      -8.611   0.646 124.421  0.00  0.00    -0.491 OA
ATOM     21  C   LIG A   1      -9.875   1.283 124.586  0.00  0.00    +0.277 C 
ENDBRANCH   6  20
BRANCH   5  22
ATOM     22  O   LIG A   1      -7.630   1.211 127.144  0.00  0.00    -0.491 OA
ATOM     23  C   LIG A   1      -6.641   2.025 126.537  0.00  0.00    +0.277 C 
ENDBRANCH   5  22
BRANCH   3  24
ATOM     24  C   LIG A   1      -5.674  -0.293 128.967  0.00  0.00    +0.167 C 
BRANCH  24  25
ATOM     25  O   LIG A   1      -4.703  -1.085 128.302  0.00  0.00    -0.394 OA
ATOM     26  H   LIG A   1      -4.196  -1.551 128.993  0.00  0.00    +0.209 HD
ENDBRANCH  24  25
ENDBRANCH   3  24
TORSDOF 5
ENDMDL
MODEL 3
REMARK VINA RESULT:      -6.9      3.690      5.205
REMARK  Name = NuBBE_2382
REMARK  11 active torsions:
REMARK  status: ('A' for Active; 'I' for Inactive)
REMARK    1  A    between atoms: C_1  and  C_24
REMARK    2  A    between atoms: C_1  and  C_25
REMARK    3  A    between atoms: C_3  and  C_4
REMARK    4  A    between atoms: C_4  and  O_5
REMARK    5  A    between atoms: C_7  and  O_19
REMARK    6  A    between atoms: C_8  and  O_9
REMARK    7  A    between atoms: O_9  and  C_10
REMARK    8  A    between atoms: C_11  and  C_16
REMARK    9  A    between atoms: C_16  and  C_17
REMARK   10  A    between atoms: C_16  and  C_18
REMARK   11  A    between atoms: O_19  and  C_20
REMARK                            x       y       z     vdW  Elec       q    Type
REMARK                         _______ _______ _______ _____ _____    ______ ____
ROOT
ATOM      1  C   LIG A   1      -7.510  -2.250 123.889  0.00  0.00    -0.031 C 
ATOM      2  C   LIG A   1      -7.672  -1.080 124.961  0.00  0.00    +0.008 C 
ATOM      3  C   LIG A   1      -7.343  -1.464 126.491  0.00  0.00    +0.026 C 
ATOM      4  C   LIG A   1      -7.778  -0.330 127.505  0.00  0.00    +0.010 A 
ATOM      5  C   LIG A   1      -7.571  -0.406 128.920  0.00  0.00    +0.166 A 
ATOM      6  C   LIG A   1      -7.848   0.687 129.775  0.00  0.00    +0.165 A 
ATOM      7  C   LIG A   1      -8.389   1.878 129.238  0.00  0.00    +0.001 A 
ATOM      8  C   LIG A   1      -8.699   1.897 127.879  0.00  0.00    +0.011 A 
ATOM      9  C   LIG A   1      -8.458   0.812 127.026  0.00  0.00    -0.040 A 
ATOM     10  C   LIG A   1      -8.973   0.937 125.625  0.00  0.00    +0.036 C 
ATOM     11  C   LIG A   1      -9.044  -0.390 124.901  0.00  0.00    +0.009 C 
ATOM     12  C   LIG A   1      -8.097  -2.776 126.872  0.00  0.00    +0.014 C 
ATOM     13  C   LIG A   1      -8.539  -3.674 125.713  0.00  0.00    +0.001 C 
ATOM     14  C   LIG A   1      -7.576  -3.647 124.542  0.00  0.00    +0.007 C 
ATOM     15  C   LIG A   1      -8.575  -2.209 122.757  0.00  0.00    +0.011 C 
ATOM     16  C   LIG A   1      -6.158  -2.109 123.141  0.00  0.00    +0.011 C 
ENDROOT
BRANCH   7  17
ATOM     17  C   LIG A   1      -8.654   3.116 130.086  0.00  0.00    +0.017 C 
ATOM     18  C   LIG A   1     -10.138   3.259 130.429  0.00  0.00    +0.012 C 
ATOM     19  C   LIG A   1      -8.139   4.385 129.385  0.00  0.00    +0.012 C 
ENDBRANCH   7  17
BRANCH   6  20
ATOM     20  O   LIG A   1      -7.765   0.621 131.142  0.00  0.00    -0.491 OA
ATOM     21  C   LIG A   1      -8.852  -0.034 131.790  0.00  0.00    +0.277 C 
ENDBRANCH   6  20
BRANCH   5  22
ATOM     22  O   LIG A   1      -7.031  -1.596 129.342  0.00  0.00    -0.491 OA
ATOM     23  C   LIG A   1      -5.792  -1.655 130.027  0.00  0.00    +0.277 C 
ENDBRANCH   5  22
BRANCH   3  24
ATOM     24  C   LIG A   1      -5.774  -1.630 126.544  0.00  0.00    +0.167 C 
BRANCH  24  25
ATOM     25  O   LIG A   1      -4.964  -0.466 126.499  0.00  0.00    -0.394 OA
ATOM     26  H   LIG A   1      -4.168  -0.694 125.985  0.00  0.00    +0.209 HD
ENDBRANCH  24  25
ENDBRANCH   3  24
TORSDOF 5
ENDMDL
MODEL 4
REMARK VINA RESULT:      -6.7      4.762      6.550
REMARK  Name = NuBBE_2382
REMARK  11 active torsions:
REMARK  status: ('A' for Active; 'I' for Inactive)
REMARK    1  A    between atoms: C_1  and  C_24
REMARK    2  A    between atoms: C_1  and  C_25
REMARK    3  A    between atoms: C_3  and  C_4
REMARK    4  A    between atoms: C_4  and  O_5
REMARK    5  A    between atoms: C_7  and  O_19
REMARK    6  A    between atoms: C_8  and  O_9
REMARK    7  A    between atoms: O_9  and  C_10
REMARK    8  A    between atoms: C_11  and  C_16
REMARK    9  A    between atoms: C_16  and  C_17
REMARK   10  A    between atoms: C_16  and  C_18
REMARK   11  A    between atoms: O_19  and  C_20
REMARK                            x       y       z     vdW  Elec       q    Type
REMARK                         _______ _______ _______ _____ _____    ______ ____
ROOT
ATOM      1  C   LIG A   1      -8.266  -1.826 125.304  0.00  0.00    -0.031 C 
ATOM      2  C   LIG A   1      -8.180  -2.050 126.881  0.00  0.00    +0.008 C 
ATOM      3  C   LIG A   1      -6.856  -1.489 127.608  0.00  0.00    +0.026 C 
ATOM      4  C   LIG A   1      -6.737  -1.981 129.108  0.00  0.00    +0.010 A 
ATOM      5  C   LIG A   1      -5.672  -1.602 129.987  0.00  0.00    +0.166 A 
ATOM      6  C   LIG A   1      -5.676  -1.951 131.358  0.00  0.00    +0.165 A 
ATOM      7  C   LIG A   1      -6.731  -2.736 131.880  0.00  0.00    +0.001 A 
ATOM      8  C   LIG A   1      -7.697  -3.201 130.989  0.00  0.00    +0.011 A 
ATOM      9  C   LIG A   1      -7.690  -2.887 129.624  0.00  0.00    -0.040 A 
ATOM     10  C   LIG A   1      -8.716  -3.575 128.775  0.00  0.00    +0.036 C 
ATOM     11  C   LIG A   1      -8.398  -3.514 127.297  0.00  0.00    +0.009 C 
ATOM     12  C   LIG A   1      -5.591  -1.971 126.834  0.00  0.00    +0.014 C 
ATOM     13  C   LIG A   1      -5.800  -2.393 125.376  0.00  0.00    +0.001 C 
ATOM     14  C   LIG A   1      -6.877  -1.589 124.675  0.00  0.00    +0.007 C 
ATOM     15  C   LIG A   1      -8.932  -3.008 124.543  0.00  0.00    +0.011 C 
ATOM     16  C   LIG A   1      -9.177  -0.611 124.984  0.00  0.00    +0.011 C 
ENDROOT
BRANCH   7  17
ATOM     17  C   LIG A   1      -6.833  -3.098 133.356  0.00  0.00    +0.017 C 
ATOM     18  C   LIG A   1      -6.313  -4.509 133.630  0.00  0.00    +0.012 C 
ATOM     19  C   LIG A   1      -8.280  -2.952 133.859  0.00  0.00    +0.012 C 
ENDBRANCH   7  17
BRANCH   6  20
ATOM     20  O   LIG A   1      -4.629  -1.701 132.208  0.00  0.00    -0.491 OA
ATOM     21  C   LIG A   1      -3.518  -2.585 132.088  0.00  0.00    +0.277 C 
ENDBRANCH   6  20
BRANCH   5  22
ATOM     22  O   LIG A   1      -4.704  -0.831 129.392  0.00  0.00    -0.491 OA
ATOM     23  C   LIG A   1      -4.325   0.431 129.914  0.00  0.00    +0.277 C 
ENDBRANCH   5  22
BRANCH   3  24
ATOM     24  C   LIG A   1      -7.015   0.082 127.592  0.00  0.00    +0.167 C 
BRANCH  24  25
ATOM     25  O   LIG A   1      -5.963   0.868 127.056  0.00  0.00    -0.394 OA
ATOM     26  H   LIG A   1      -5.408   1.149 127.807  0.00  0.00    +0.209 HD
ENDBRANCH  24  25
ENDBRANCH   3  24
TORSDOF 5
ENDMDL
MODEL 5
REMARK VINA RESULT:      -6.6      2.760      3.206
REMARK  Name = NuBBE_2382
REMARK  11 active torsions:
REMARK  status: ('A' for Active; 'I' for Inactive)
REMARK    1  A    between atoms: C_1  and  C_24
REMARK    2  A    between atoms: C_1  and  C_25
REMARK    3  A    between atoms: C_3  and  C_4
REMARK    4  A    between atoms: C_4  and  O_5
REMARK    5  A    between atoms: C_7  and  O_19
REMARK    6  A    between atoms: C_8  and  O_9
REMARK    7  A    between atoms: O_9  and  C_10
REMARK    8  A    between atoms: C_11  and  C_16
REMARK    9  A    between atoms: C_16  and  C_17
REMARK   10  A    between atoms: C_16  and  C_18
REMARK   11  A    between atoms: O_19  and  C_20
REMARK                            x       y       z     vdW  Elec       q    Type
REMARK                         _______ _______ _______ _____ _____    ______ ____
ROOT
ATOM      1  C   LIG A   1      -8.140  -2.882 124.276  0.00  0.00    -0.031 C 
ATOM      2  C   LIG A   1      -8.239  -1.927 125.550  0.00  0.00    +0.008 C 
ATOM      3  C   LIG A   1      -7.953  -0.362 125.291  0.00  0.00    +0.026 C 
ATOM      4  C   LIG A   1      -7.817   0.458 126.638  0.00  0.00    +0.010 A 
ATOM      5  C   LIG A   1      -7.594   1.871 126.691  0.00  0.00    +0.166 A 
ATOM      6  C   LIG A   1      -7.616   2.585 127.912  0.00  0.00    +0.165 A 
ATOM      7  C   LIG A   1      -7.818   1.892 129.128  0.00  0.00    +0.001 A 
ATOM      8  C   LIG A   1      -7.912   0.501 129.075  0.00  0.00    +0.011 A 
ATOM      9  C   LIG A   1      -7.862  -0.222 127.877  0.00  0.00    -0.040 A 
ATOM     10  C   LIG A   1      -7.840  -1.715 127.998  0.00  0.00    +0.036 C 
ATOM     11  C   LIG A   1      -7.381  -2.405 126.732  0.00  0.00    +0.009 C 
ATOM     12  C   LIG A   1      -6.628  -0.200 124.485  0.00  0.00    +0.014 C 
ATOM     13  C   LIG A   1      -6.153  -1.423 123.694  0.00  0.00    +0.001 C 
ATOM     14  C   LIG A   1      -7.296  -2.254 123.145  0.00  0.00    +0.007 C 
ATOM     15  C   LIG A   1      -7.538  -4.280 124.591  0.00  0.00    +0.011 C 
ATOM     16  C   LIG A   1      -9.558  -3.196 123.730  0.00  0.00    +0.011 C 
ENDROOT
BRANCH   7  17
ATOM     17  C   LIG A   1      -7.916   2.601 130.472  0.00  0.00    +0.017 C 
ATOM     18  C   LIG A   1      -6.884   2.071 131.468  0.00  0.00    +0.012 C 
ATOM     19  C   LIG A   1      -9.335   2.483 131.055  0.00  0.00    +0.012 C 
ENDBRANCH   7  17
BRANCH   6  20
ATOM     20  O   LIG A   1      -7.303   3.917 128.018  0.00  0.00    -0.491 OA
ATOM     21  C   LIG A   1      -5.912   4.223 127.974  0.00  0.00    +0.277 C 
ENDBRANCH   6  20
BRANCH   5  22
ATOM     22  O   LIG A   1      -7.422   2.455 125.460  0.00  0.00    -0.491 OA
ATOM     23  C   LIG A   1      -8.289   3.470 124.986  0.00  0.00    +0.277 C 
ENDBRANCH   5  22
BRANCH   3  24
ATOM     24  C   LIG A   1      -9.214   0.158 124.497  0.00  0.00    +0.167 C 
BRANCH  24  25
ATOM     25  O   LIG A   1     -10.409   0.425 125.213  0.00  0.00    -0.394 OA
ATOM     26  H   LIG A   1     -10.150   0.869 126.041  0.00  0.00    +0.209 HD
ENDBRANCH  24  25
ENDBRANCH   3  24
TORSDOF 5
ENDMDL
MODEL 6
REMARK VINA RESULT:      -6.2      4.914      7.558
REMARK  Name = NuBBE_2382
REMARK  11 active torsions:
REMARK  status: ('A' for Active; 'I' for Inactive)
REMARK    1  A    between atoms: C_1  and  C_24
REMARK    2  A    between atoms: C_1  and  C_25
REMARK    3  A    between atoms: C_3  and  C_4
REMARK    4  A    between atoms: C_4  and  O_5
REMARK    5  A    between atoms: C_7  and  O_19
REMARK    6  A    between atoms: C_8  and  O_9
REMARK    7  A    between atoms: O_9  and  C_10
REMARK    8  A    between atoms: C_11  and  C_16
REMARK    9  A    between atoms: C_16  and  C_17
REMARK   10  A    between atoms: C_16  and  C_18
REMARK   11  A    between atoms: O_19  and  C_20
REMARK                            x       y       z     vdW  Elec       q    Type
REMARK                         _______ _______ _______ _____ _____    ______ ____
ROOT
ATOM      1  C   LIG A   1      -8.525   4.388 132.801  0.00  0.00    -0.031 C 
ATOM      2  C   LIG A   1      -8.160   3.087 131.952  0.00  0.00    +0.008 C 
ATOM      3  C   LIG A   1      -8.284   3.222 130.352  0.00  0.00    +0.026 C 
ATOM      4  C   LIG A   1      -8.158   1.827 129.615  0.00  0.00    +0.010 A 
ATOM      5  C   LIG A   1      -8.203   1.670 128.193  0.00  0.00    +0.166 A 
ATOM      6  C   LIG A   1      -7.949   0.425 127.570  0.00  0.00    +0.165 A 
ATOM      7  C   LIG A   1      -7.688  -0.716 128.364  0.00  0.00    +0.001 A 
ATOM      8  C   LIG A   1      -7.769  -0.577 129.749  0.00  0.00    +0.011 A 
ATOM      9  C   LIG A   1      -8.048   0.642 130.378  0.00  0.00    -0.040 A 
ATOM     10  C   LIG A   1      -8.236   0.599 131.864  0.00  0.00    +0.036 C 
ATOM     11  C   LIG A   1      -8.922   1.833 132.410  0.00  0.00    +0.009 C 
ATOM     12  C   LIG A   1      -9.667   3.845 129.986  0.00  0.00    +0.014 C 
ATOM     13  C   LIG A   1     -10.376   4.633 131.091  0.00  0.00    +0.001 C 
ATOM     14  C   LIG A   1      -9.415   5.367 132.006  0.00  0.00    +0.007 C 
ATOM     15  C   LIG A   1      -9.248   4.074 134.140  0.00  0.00    +0.011 C 
ATOM     16  C   LIG A   1      -7.230   5.124 133.234  0.00  0.00    +0.011 C 
ENDROOT
BRANCH   7  17
ATOM     17  C   LIG A   1      -7.346  -2.073 127.763  0.00  0.00    +0.017 C 
ATOM     18  C   LIG A   1      -8.092  -3.208 128.467  0.00  0.00    +0.012 C 
ATOM     19  C   LIG A   1      -5.828  -2.325 127.800  0.00  0.00    +0.012 C 
ENDBRANCH   7  17
BRANCH   6  20
ATOM     20  O   LIG A   1      -8.085   0.209 126.223  0.00  0.00    -0.491 OA
ATOM     21  C   LIG A   1      -9.426   0.113 125.751  0.00  0.00    +0.277 C 
ENDBRANCH   6  20
BRANCH   5  22
ATOM     22  O   LIG A   1      -8.448   2.836 127.510  0.00  0.00    -0.491 OA
ATOM     23  C   LIG A   1      -7.592   3.294 126.478  0.00  0.00    +0.277 C 
ENDBRANCH   5  22
BRANCH   3  24
ATOM     24  C   LIG A   1      -7.074   4.141 129.923  0.00  0.00    +0.167 C 
BRANCH  24  25
ATOM     25  O   LIG A   1      -7.342   5.320 129.180  0.00  0.00    -0.394 OA
ATOM     26  H   LIG A   1      -7.194   5.102 128.241  0.00  0.00    +0.209 HD
ENDBRANCH  24  25
ENDBRANCH   3  24
TORSDOF 5
ENDMDL
MODEL 7
REMARK VINA RESULT:      -6.2      1.728      6.054
REMARK  Name = NuBBE_2382
REMARK  11 active torsions:
REMARK  status: ('A' for Active; 'I' for Inactive)
REMARK    1  A    between atoms: C_1  and  C_24
REMARK    2  A    between atoms: C_1  and  C_25
REMARK    3  A    between atoms: C_3  and  C_4
REMARK    4  A    between atoms: C_4  and  O_5
REMARK    5  A    between atoms: C_7  and  O_19
REMARK    6  A    between atoms: C_8  and  O_9
REMARK    7  A    between atoms: O_9  and  C_10
REMARK    8  A    between atoms: C_11  and  C_16
REMARK    9  A    between atoms: C_16  and  C_17
REMARK   10  A    between atoms: C_16  and  C_18
REMARK   11  A    between atoms: O_19  and  C_20
REMARK                            x       y       z     vdW  Elec       q    Type
REMARK                         _______ _______ _______ _____ _____    ______ ____
ROOT
ATOM      1  C   LIG A   1      -4.728   3.269 129.121  0.00  0.00    -0.031 C 
ATOM      2  C   LIG A   1      -4.866   2.000 128.163  0.00  0.00    +0.008 C 
ATOM      3  C   LIG A   1      -5.688   2.226 126.796  0.00  0.00    +0.026 C 
ATOM      4  C   LIG A   1      -5.995   0.867 126.044  0.00  0.00    +0.010 A 
ATOM      5  C   LIG A   1      -6.684   0.788 124.791  0.00  0.00    +0.166 A 
ATOM      6  C   LIG A   1      -6.816  -0.432 124.087  0.00  0.00    +0.165 A 
ATOM      7  C   LIG A   1      -6.300  -1.624 124.646  0.00  0.00    +0.001 A 
ATOM      8  C   LIG A   1      -5.740  -1.555 125.921  0.00  0.00    +0.011 A 
ATOM      9  C   LIG A   1      -5.629  -0.360 126.642  0.00  0.00    -0.040 A 
ATOM     10  C   LIG A   1      -5.131  -0.473 128.051  0.00  0.00    +0.036 C 
ATOM     11  C   LIG A   1      -5.419   0.758 128.881  0.00  0.00    +0.009 C 
ATOM     12  C   LIG A   1      -7.045   2.927 127.112  0.00  0.00    +0.014 C 
ATOM     13  C   LIG A   1      -7.131   3.686 128.440  0.00  0.00    +0.001 C 
ATOM     14  C   LIG A   1      -5.816   4.327 128.841  0.00  0.00    +0.007 C 
ATOM     15  C   LIG A   1      -4.790   2.916 130.634  0.00  0.00    +0.011 C 
ATOM     16  C   LIG A   1      -3.333   3.924 128.943  0.00  0.00    +0.011 C 
ENDROOT
BRANCH   7  17
ATOM     17  C   LIG A   1      -6.351  -2.961 123.918  0.00  0.00    +0.017 C 
ATOM     18  C   LIG A   1      -7.467  -3.857 124.457  0.00  0.00    +0.012 C 
ATOM     19  C   LIG A   1      -4.995  -3.685 124.001  0.00  0.00    +0.012 C 
ENDBRANCH   7  17
BRANCH   6  20
ATOM     20  O   LIG A   1      -7.557  -0.570 122.941  0.00  0.00    -0.491 OA
ATOM     21  C   LIG A   1      -8.964  -0.683 123.132  0.00  0.00    +0.277 C 
ENDBRANCH   6  20
BRANCH   5  22
ATOM     22  O   LIG A   1      -7.136   1.999 124.326  0.00  0.00    -0.491 OA
ATOM     23  C   LIG A   1      -6.862   2.444 123.009  0.00  0.00    +0.277 C 
ENDBRANCH   5  22
BRANCH   3  24
ATOM     24  C   LIG A   1      -4.744   3.112 125.893  0.00  0.00    +0.167 C 
BRANCH  24  25
ATOM     25  O   LIG A   1      -5.254   4.321 125.354  0.00  0.00    -0.394 OA
ATOM     26  H   LIG A   1      -4.674   5.038 125.669  0.00  0.00    +0.209 HD
ENDBRANCH  24  25
ENDBRANCH   3  24
TORSDOF 5
ENDMDL
MODEL 8
REMARK VINA RESULT:      -6.1      3.300      6.077
REMARK  Name = NuBBE_2382
REMARK  11 active torsions:
REMARK  status: ('A' for Active; 'I' for Inactive)
REMARK    1  A    between atoms: C_1  and  C_24
REMARK    2  A    between atoms: C_1  and  C_25
REMARK    3  A    between atoms: C_3  and  C_4
REMARK    4  A    between atoms: C_4  and  O_5
REMARK    5  A    between atoms: C_7  and  O_19
REMARK    6  A    between atoms: C_8  and  O_9
REMARK    7  A    between atoms: O_9  and  C_10
REMARK    8  A    between atoms: C_11  and  C_16
REMARK    9  A    between atoms: C_16  and  C_17
REMARK   10  A    between atoms: C_16  and  C_18
REMARK   11  A    between atoms: O_19  and  C_20
REMARK                            x       y       z     vdW  Elec       q    Type
REMARK                         _______ _______ _______ _____ _____    ______ ____
ROOT
ATOM      1  C   LIG A   1      -6.786   0.844 131.156  0.00  0.00    -0.031 C 
ATOM      2  C   LIG A   1      -6.989   0.225 129.699  0.00  0.00    +0.008 C 
ATOM      3  C   LIG A   1      -7.500   1.241 128.558  0.00  0.00    +0.026 C 
ATOM      4  C   LIG A   1      -7.919   0.494 127.227  0.00  0.00    +0.010 A 
ATOM      5  C   LIG A   1      -8.379   1.165 126.049  0.00  0.00    +0.166 A 
ATOM      6  C   LIG A   1      -8.612   0.471 124.838  0.00  0.00    +0.165 A 
ATOM      7  C   LIG A   1      -8.434  -0.931 124.786  0.00  0.00    +0.001 A 
ATOM      8  C   LIG A   1      -8.105  -1.588 125.971  0.00  0.00    +0.011 A 
ATOM      9  C   LIG A   1      -7.900  -0.919 127.184  0.00  0.00    -0.040 A 
ATOM     10  C   LIG A   1      -7.688  -1.777 128.394  0.00  0.00    +0.036 C 
ATOM     11  C   LIG A   1      -7.882  -1.026 129.693  0.00  0.00    +0.009 C 
ATOM     12  C   LIG A   1      -8.736   2.035 129.083  0.00  0.00    +0.014 C 
ATOM     13  C   LIG A   1      -8.910   2.106 130.602  0.00  0.00    +0.001 C 
ATOM     14  C   LIG A   1      -7.591   2.147 131.348  0.00  0.00    +0.007 C 
ATOM     15  C   LIG A   1      -7.179  -0.127 132.304  0.00  0.00    +0.011 C 
ATOM     16  C   LIG A   1      -5.284   1.139 131.407  0.00  0.00    +0.011 C 
ENDROOT
BRANCH   7  17
ATOM     17  C   LIG A   1      -8.605  -1.734 123.503  0.00  0.00    +0.017 C 
ATOM     18  C   LIG A   1      -9.206  -3.114 123.776  0.00  0.00    +0.012 C 
ATOM     19  C   LIG A   1      -7.267  -1.870 122.756  0.00  0.00    +0.012 C 
ENDBRANCH   7  17
BRANCH   6  20
ATOM     20  O   LIG A   1      -9.151   1.055 123.720  0.00  0.00    -0.491 OA
ATOM     21  C   LIG A   1     -10.556   1.290 123.771  0.00  0.00    +0.277 C 
ENDBRANCH   6  20
BRANCH   5  22
ATOM     22  O   LIG A   1      -8.507   2.524 126.195  0.00  0.00    -0.491 OA
ATOM     23  C   LIG A   1      -7.916   3.434 125.283  0.00  0.00    +0.277 C 
ENDBRANCH   5  22
BRANCH   3  24
ATOM     24  C   LIG A   1      -6.263   2.174 128.257  0.00  0.00    +0.167 C 
BRANCH  24  25
ATOM     25  O   LIG A   1      -6.430   3.580 128.354  0.00  0.00    -0.394 OA
ATOM     26  H   LIG A   1      -6.849   3.756 129.216  0.00  0.00    +0.209 HD
ENDBRANCH  24  25
ENDBRANCH   3  24
TORSDOF 5
ENDMDL
MODEL 9
REMARK VINA RESULT:      -6.0      7.201     10.343
REMARK  Name = NuBBE_2382
REMARK  11 active torsions:
REMARK  status: ('A' for Active; 'I' for Inactive)
REMARK    1  A    between atoms: C_1  and  C_24
REMARK    2  A    between atoms: C_1  and  C_25
REMARK    3  A    between atoms: C_3  and  C_4
REMARK    4  A    between atoms: C_4  and  O_5
REMARK    5  A    between atoms: C_7  and  O_19
REMARK    6  A    between atoms: C_8  and  O_9
REMARK    7  A    between atoms: O_9  and  C_10
REMARK    8  A    between atoms: C_11  and  C_16
REMARK    9  A    between atoms: C_16  and  C_17
REMARK   10  A    between atoms: C_16  and  C_18
REMARK   11  A    between atoms: O_19  and  C_20
REMARK                            x       y       z     vdW  Elec       q    Type
REMARK                         _______ _______ _______ _____ _____    ______ ____
ROOT
ATOM      1  C   LIG A   1      -2.472   6.123 132.763  0.00  0.00    -0.031 C 
ATOM      2  C   LIG A   1      -3.999   6.374 132.375  0.00  0.00    +0.008 C 
ATOM      3  C   LIG A   1      -5.000   5.128 132.579  0.00  0.00    +0.026 C 
ATOM      4  C   LIG A   1      -6.421   5.382 131.931  0.00  0.00    +0.010 A 
ATOM      5  C   LIG A   1      -7.504   4.448 131.996  0.00  0.00    +0.166 A 
ATOM      6  C   LIG A   1      -8.798   4.771 131.524  0.00  0.00    +0.165 A 
ATOM      7  C   LIG A   1      -9.033   6.031 130.926  0.00  0.00    +0.001 A 
ATOM      8  C   LIG A   1      -7.943   6.883 130.757  0.00  0.00    +0.011 A 
ATOM      9  C   LIG A   1      -6.651   6.565 131.193  0.00  0.00    -0.040 A 
ATOM     10  C   LIG A   1      -5.563   7.525 130.816  0.00  0.00    +0.036 C 
ATOM     11  C   LIG A   1      -4.178   6.932 130.954  0.00  0.00    +0.009 C 
ATOM     12  C   LIG A   1      -4.385   3.852 131.925  0.00  0.00    +0.014 C 
ATOM     13  C   LIG A   1      -2.871   3.860 131.698  0.00  0.00    +0.001 C 
ATOM     14  C   LIG A   1      -2.115   4.621 132.769  0.00  0.00    +0.007 C 
ATOM     15  C   LIG A   1      -1.464   6.842 131.822  0.00  0.00    +0.011 C 
ATOM     16  C   LIG A   1      -2.171   6.717 134.164  0.00  0.00    +0.011 C 
ENDROOT
BRANCH   7  17
ATOM     17  C   LIG A   1     -10.412   6.471 130.452  0.00  0.00    +0.017 C 
ATOM     18  C   LIG A   1     -10.335   7.710 129.559  0.00  0.00    +0.012 C 
ATOM     19  C   LIG A   1     -11.349   6.727 131.646  0.00  0.00    +0.012 C 
ENDBRANCH   7  17
BRANCH   6  20
ATOM     20  O   LIG A   1      -9.833   3.872 131.471  0.00  0.00    -0.491 OA
ATOM     21  C   LIG A   1      -9.784   2.946 130.390  0.00  0.00    +0.277 C 
ENDBRANCH   6  20
BRANCH   5  22
ATOM     22  O   LIG A   1      -7.181   3.260 132.606  0.00  0.00    -0.491 OA
ATOM     23  C   LIG A   1      -7.842   2.817 133.778  0.00  0.00    +0.277 C 
ENDBRANCH   5  22
BRANCH   3  24
ATOM     24  C   LIG A   1      -5.165   4.988 134.143  0.00  0.00    +0.167 C 
BRANCH  24  25
ATOM     25  O   LIG A   1      -5.741   6.063 134.867  0.00  0.00    -0.394 OA
ATOM     26  H   LIG A   1      -5.011   6.515 135.331  0.00  0.00    +0.209 HD
ENDBRANCH  24  25
ENDBRANCH   3  24
TORSDOF 5
ENDMDL
