MODEL 1
REMARK VINA RESULT:      -8.3      0.000      0.000
REMARK  Name = NuBBE_2417
REMARK  10 active torsions:
REMARK  status: ('A' for Active; 'I' for Inactive)
REMARK    1  A    between atoms: O_1  and  C_2
REMARK    2  A    between atoms: O_1  and  C_3
REMARK    3  A    between atoms: C_4  and  C_16
REMARK    4  A    between atoms: C_6  and  C_11
REMARK    5  A    between atoms: C_7  and  O_10
REMARK    6  A    between atoms: C_8  and  O_9
REMARK    7  A    between atoms: C_11  and  C_12
REMARK    8  A    between atoms: C_11  and  C_14
REMARK    9  A    between atoms: C_11  and  C_15
REMARK   10  A    between atoms: C_24  and  O_27
REMARK                            x       y       z     vdW  Elec       q    Type
REMARK                         _______ _______ _______ _____ _____    ______ ____
ROOT
ATOM      1  C   LIG A   1      -8.570   2.272 125.123  0.00  0.00    +0.169 A 
ATOM      2  C   LIG A   1      -8.063   1.863 123.869  0.00  0.00    +0.005 A 
ATOM      3  C   LIG A   1      -7.621   0.524 123.701  0.00  0.00    +0.016 A 
ATOM      4  C   LIG A   1      -7.689  -0.450 124.723  0.00  0.00    +0.008 A 
ATOM      5  C   LIG A   1      -8.256  -0.010 125.926  0.00  0.00    +0.166 A 
ATOM      6  C   LIG A   1      -8.662   1.321 126.136  0.00  0.00    +0.201 A 
ENDROOT
BRANCH   2   7
ATOM      7  C   LIG A   1      -7.946   2.881 122.733  0.00  0.00    +0.065 C 
ATOM      8  C   LIG A   1      -6.479   3.111 122.352  0.00  0.00    +0.050 C 
ATOM      9  C   LIG A   1      -6.359   3.915 121.087  0.00  0.00    -0.005 A 
ATOM     10  C   LIG A   1      -7.461   4.113 120.247  0.00  0.00    +0.127 A 
ATOM     11  O   LIG A   1      -8.712   3.620 120.514  0.00  0.00    -0.491 OA
ATOM     12  C   LIG A   1      -8.722   2.539 121.455  0.00  0.00    +0.237 C 
ATOM     13  C   LIG A   1      -7.340   4.871 119.081  0.00  0.00    +0.091 A 
ATOM     14  C   LIG A   1      -6.101   5.406 118.739  0.00  0.00    +0.120 A 
ATOM     15  C   LIG A   1      -4.991   5.204 119.549  0.00  0.00    +0.046 A 
ATOM     16  C   LIG A   1      -5.118   4.461 120.724  0.00  0.00    +0.011 A 
BRANCH  14  17
ATOM     17  O   LIG A   1      -5.934   6.139 117.601  0.00  0.00    -0.507 OA
ATOM     18  H   LIG A   1      -6.773   6.584 117.396  0.00  0.00    +0.292 HD
ENDBRANCH  14  17
ENDBRANCH   2   7
BRANCH   4  19
ATOM     19  C   LIG A   1      -7.168  -1.895 124.463  0.00  0.00    +0.011 C 
ATOM     20  C   LIG A   1      -6.357  -1.971 123.137  0.00  0.00    +0.020 C 
ATOM     21  C   LIG A   1      -6.175  -2.369 125.553  0.00  0.00    +0.020 C 
BRANCH  19  22
ATOM     22  C   LIG A   1      -8.350  -2.871 124.449  0.00  0.00    -0.024 C 
ATOM     23  C   LIG A   1      -9.304  -2.985 123.501  0.00  0.00    +0.005 C 
ENDBRANCH  19  22
ENDBRANCH   4  19
BRANCH   1  24
ATOM     24  O   LIG A   1      -8.908   3.597 125.210  0.00  0.00    -0.491 OA
ATOM     25  C   LIG A   1      -8.015   4.496 125.851  0.00  0.00    +0.277 C 
ENDBRANCH   1  24
BRANCH   6  26
ATOM     26  O   LIG A   1      -9.149   1.611 127.387  0.00  0.00    -0.501 OA
ATOM     27  H   LIG A   1      -8.415   2.080 127.833  0.00  0.00    +0.292 HD
ENDBRANCH   6  26
BRANCH   5  28
ATOM     28  O   LIG A   1      -8.482  -0.825 127.008  0.00  0.00    -0.503 OA
ATOM     29  H   LIG A   1      -7.602  -1.045 127.364  0.00  0.00    +0.292 HD
ENDBRANCH   5  28
TORSDOF 7
ENDMDL
MODEL 2
REMARK VINA RESULT:      -7.7      9.062     10.578
REMARK  Name = NuBBE_2417
REMARK  10 active torsions:
REMARK  status: ('A' for Active; 'I' for Inactive)
REMARK    1  A    between atoms: O_1  and  C_2
REMARK    2  A    between atoms: O_1  and  C_3
REMARK    3  A    between atoms: C_4  and  C_16
REMARK    4  A    between atoms: C_6  and  C_11
REMARK    5  A    between atoms: C_7  and  O_10
REMARK    6  A    between atoms: C_8  and  O_9
REMARK    7  A    between atoms: C_11  and  C_12
REMARK    8  A    between atoms: C_11  and  C_14
REMARK    9  A    between atoms: C_11  and  C_15
REMARK   10  A    between atoms: C_24  and  O_27
REMARK                            x       y       z     vdW  Elec       q    Type
REMARK                         _______ _______ _______ _____ _____    ______ ____
ROOT
ATOM      1  C   LIG A   1      -7.305   5.642 133.305  0.00  0.00    +0.169 A 
ATOM      2  C   LIG A   1      -7.482   6.241 132.037  0.00  0.00    +0.005 A 
ATOM      3  C   LIG A   1      -6.350   6.740 131.340  0.00  0.00    +0.016 A 
ATOM      4  C   LIG A   1      -5.029   6.642 131.834  0.00  0.00    +0.008 A 
ATOM      5  C   LIG A   1      -4.903   5.985 133.065  0.00  0.00    +0.166 A 
ATOM      6  C   LIG A   1      -6.010   5.520 133.798  0.00  0.00    +0.201 A 
ENDROOT
BRANCH   2   7
ATOM      7  C   LIG A   1      -8.892   6.393 131.462  0.00  0.00    +0.065 C 
ATOM      8  C   LIG A   1      -8.904   7.394 130.301  0.00  0.00    +0.050 C 
ATOM      9  C   LIG A   1     -10.220   7.374 129.572  0.00  0.00    -0.005 A 
ATOM     10  C   LIG A   1     -11.140   6.337 129.766  0.00  0.00    +0.127 A 
ATOM     11  O   LIG A   1     -10.930   5.293 130.630  0.00  0.00    -0.491 OA
ATOM     12  C   LIG A   1      -9.554   5.096 130.980  0.00  0.00    +0.237 C 
ATOM     13  C   LIG A   1     -12.362   6.335 129.092  0.00  0.00    +0.091 A 
ATOM     14  C   LIG A   1     -12.651   7.360 128.196  0.00  0.00    +0.120 A 
ATOM     15  C   LIG A   1     -11.743   8.388 127.975  0.00  0.00    +0.046 A 
ATOM     16  C   LIG A   1     -10.528   8.397 128.663  0.00  0.00    +0.011 A 
BRANCH  14  17
ATOM     17  O   LIG A   1     -13.826   7.390 127.505  0.00  0.00    -0.507 OA
ATOM     18  H   LIG A   1     -14.411   6.700 127.862  0.00  0.00    +0.292 HD
ENDBRANCH  14  17
ENDBRANCH   2   7
BRANCH   4  19
ATOM     19  C   LIG A   1      -3.842   7.229 131.014  0.00  0.00    +0.011 C 
ATOM     20  C   LIG A   1      -4.345   8.211 129.917  0.00  0.00    +0.020 C 
ATOM     21  C   LIG A   1      -2.885   8.079 131.887  0.00  0.00    +0.020 C 
BRANCH  19  22
ATOM     22  C   LIG A   1      -3.025   6.083 130.404  0.00  0.00    -0.024 C 
ATOM     23  C   LIG A   1      -2.223   6.138 129.320  0.00  0.00    +0.005 C 
ENDBRANCH  19  22
ENDBRANCH   4  19
BRANCH   1  24
ATOM     24  O   LIG A   1      -8.461   5.252 133.929  0.00  0.00    -0.491 OA
ATOM     25  C   LIG A   1      -8.687   3.869 134.160  0.00  0.00    +0.277 C 
ENDBRANCH   1  24
BRANCH   6  26
ATOM     26  O   LIG A   1      -5.728   4.945 135.014  0.00  0.00    -0.501 OA
ATOM     27  H   LIG A   1      -6.573   4.542 135.296  0.00  0.00    +0.292 HD
ENDBRANCH   6  26
BRANCH   5  28
ATOM     28  O   LIG A   1      -3.699   5.720 133.671  0.00  0.00    -0.503 OA
ATOM     29  H   LIG A   1      -3.042   5.682 132.951  0.00  0.00    +0.292 HD
ENDBRANCH   5  28
TORSDOF 7
ENDMDL
MODEL 3
REMARK VINA RESULT:      -7.3      1.722      2.212
REMARK  Name = NuBBE_2417
REMARK  10 active torsions:
REMARK  status: ('A' for Active; 'I' for Inactive)
REMARK    1  A    between atoms: O_1  and  C_2
REMARK    2  A    between atoms: O_1  and  C_3
REMARK    3  A    between atoms: C_4  and  C_16
REMARK    4  A    between atoms: C_6  and  C_11
REMARK    5  A    between atoms: C_7  and  O_10
REMARK    6  A    between atoms: C_8  and  O_9
REMARK    7  A    between atoms: C_11  and  C_12
REMARK    8  A    between atoms: C_11  and  C_14
REMARK    9  A    between atoms: C_11  and  C_15
REMARK   10  A    between atoms: C_24  and  O_27
REMARK                            x       y       z     vdW  Elec       q    Type
REMARK                         _______ _______ _______ _____ _____    ______ ____
ROOT
ATOM      1  C   LIG A   1      -8.163   2.137 127.055  0.00  0.00    +0.169 A 
ATOM      2  C   LIG A   1      -8.042   1.515 125.792  0.00  0.00    +0.005 A 
ATOM      3  C   LIG A   1      -7.786   0.120 125.726  0.00  0.00    +0.016 A 
ATOM      4  C   LIG A   1      -7.674  -0.704 126.869  0.00  0.00    +0.008 A 
ATOM      5  C   LIG A   1      -7.863  -0.050 128.094  0.00  0.00    +0.166 A 
ATOM      6  C   LIG A   1      -8.074   1.338 128.192  0.00  0.00    +0.201 A 
ENDROOT
BRANCH   2   7
ATOM      7  C   LIG A   1      -8.133   2.362 124.521  0.00  0.00    +0.065 C 
ATOM      8  C   LIG A   1      -6.770   2.452 123.825  0.00  0.00    +0.050 C 
ATOM      9  C   LIG A   1      -6.890   3.070 122.459  0.00  0.00    -0.005 A 
ATOM     10  C   LIG A   1      -8.136   3.217 121.837  0.00  0.00    +0.127 A 
ATOM     11  O   LIG A   1      -9.319   2.837 122.418  0.00  0.00    -0.491 OA
ATOM     12  C   LIG A   1      -9.166   1.896 123.487  0.00  0.00    +0.237 C 
ATOM     13  C   LIG A   1      -8.236   3.802 120.574  0.00  0.00    +0.091 A 
ATOM     14  C   LIG A   1      -7.080   4.213 119.917  0.00  0.00    +0.120 A 
ATOM     15  C   LIG A   1      -5.833   4.058 120.509  0.00  0.00    +0.046 A 
ATOM     16  C   LIG A   1      -5.736   3.488 121.780  0.00  0.00    +0.011 A 
BRANCH  14  17
ATOM     17  O   LIG A   1      -7.129   4.774 118.676  0.00  0.00    -0.507 OA
ATOM     18  H   LIG A   1      -6.376   4.443 118.158  0.00  0.00    +0.292 HD
ENDBRANCH  14  17
ENDBRANCH   2   7
BRANCH   4  19
ATOM     19  C   LIG A   1      -7.376  -2.225 126.711  0.00  0.00    +0.011 C 
ATOM     20  C   LIG A   1      -6.857  -2.552 125.281  0.00  0.00    +0.020 C 
ATOM     21  C   LIG A   1      -6.244  -2.705 127.654  0.00  0.00    +0.020 C 
BRANCH  19  22
ATOM     22  C   LIG A   1      -8.637  -3.031 127.044  0.00  0.00    -0.024 C 
ATOM     23  C   LIG A   1      -8.794  -3.927 128.041  0.00  0.00    +0.005 C 
ENDBRANCH  19  22
ENDBRANCH   4  19
BRANCH   1  24
ATOM     24  O   LIG A   1      -8.342   3.495 127.020  0.00  0.00    -0.491 OA
ATOM     25  C   LIG A   1      -7.267   4.342 127.398  0.00  0.00    +0.277 C 
ENDBRANCH   1  24
BRANCH   6  26
ATOM     26  O   LIG A   1      -8.188   1.840 129.465  0.00  0.00    -0.501 OA
ATOM     27  H   LIG A   1      -8.180   2.812 129.347  0.00  0.00    +0.292 HD
ENDBRANCH   6  26
BRANCH   5  28
ATOM     28  O   LIG A   1      -7.873  -0.689 129.309  0.00  0.00    -0.503 OA
ATOM     29  H   LIG A   1      -7.883  -1.642 129.108  0.00  0.00    +0.292 HD
ENDBRANCH   5  28
TORSDOF 7
ENDMDL
MODEL 4
REMARK VINA RESULT:      -7.2      8.607     10.619
REMARK  Name = NuBBE_2417
REMARK  10 active torsions:
REMARK  status: ('A' for Active; 'I' for Inactive)
REMARK    1  A    between atoms: O_1  and  C_2
REMARK    2  A    between atoms: O_1  and  C_3
REMARK    3  A    between atoms: C_4  and  C_16
REMARK    4  A    between atoms: C_6  and  C_11
REMARK    5  A    between atoms: C_7  and  O_10
REMARK    6  A    between atoms: C_8  and  O_9
REMARK    7  A    between atoms: C_11  and  C_12
REMARK    8  A    between atoms: C_11  and  C_14
REMARK    9  A    between atoms: C_11  and  C_15
REMARK   10  A    between atoms: C_24  and  O_27
REMARK                            x       y       z     vdW  Elec       q    Type
REMARK                         _______ _______ _______ _____ _____    ______ ____
ROOT
ATOM      1  C   LIG A   1      -8.453   5.594 132.188  0.00  0.00    +0.169 A 
ATOM      2  C   LIG A   1      -8.073   6.368 131.069  0.00  0.00    +0.005 A 
ATOM      3  C   LIG A   1      -9.078   6.963 130.260  0.00  0.00    +0.016 A 
ATOM      4  C   LIG A   1     -10.461   6.849 130.532  0.00  0.00    +0.008 A 
ATOM      5  C   LIG A   1     -10.781   6.123 131.687  0.00  0.00    +0.166 A 
ATOM      6  C   LIG A   1      -9.810   5.487 132.482  0.00  0.00    +0.201 A 
ENDROOT
BRANCH   2   7
ATOM      7  C   LIG A   1      -6.591   6.508 130.715  0.00  0.00    +0.065 C 
ATOM      8  C   LIG A   1      -5.757   6.817 131.964  0.00  0.00    +0.050 C 
ATOM      9  C   LIG A   1      -4.284   6.718 131.679  0.00  0.00    -0.005 A 
ATOM     10  C   LIG A   1      -3.810   6.105 130.512  0.00  0.00    +0.127 A 
ATOM     11  O   LIG A   1      -4.633   5.579 129.550  0.00  0.00    -0.491 OA
ATOM     12  C   LIG A   1      -5.961   5.301 130.008  0.00  0.00    +0.237 C 
ATOM     13  C   LIG A   1      -2.441   6.029 130.254  0.00  0.00    +0.091 A 
ATOM     14  C   LIG A   1      -1.540   6.540 131.183  0.00  0.00    +0.120 A 
ATOM     15  C   LIG A   1      -1.989   7.134 132.356  0.00  0.00    +0.046 A 
ATOM     16  C   LIG A   1      -3.359   7.225 132.605  0.00  0.00    +0.011 A 
BRANCH  14  17
ATOM     17  O   LIG A   1      -0.194   6.473 130.980  0.00  0.00    -0.507 OA
ATOM     18  H   LIG A   1       0.249   6.990 131.674  0.00  0.00    +0.292 HD
ENDBRANCH  14  17
ENDBRANCH   2   7
BRANCH   4  19
ATOM     19  C   LIG A   1     -11.501   7.518 129.586  0.00  0.00    +0.011 C 
ATOM     20  C   LIG A   1     -12.476   6.465 128.985  0.00  0.00    +0.020 C 
ATOM     21  C   LIG A   1     -12.421   8.517 130.333  0.00  0.00    +0.020 C 
BRANCH  19  22
ATOM     22  C   LIG A   1     -10.768   8.291 128.483  0.00  0.00    -0.024 C 
ATOM     23  C   LIG A   1     -10.857   8.096 127.151  0.00  0.00    +0.005 C 
ENDBRANCH  19  22
ENDBRANCH   4  19
BRANCH   1  24
ATOM     24  O   LIG A   1      -7.419   5.006 132.867  0.00  0.00    -0.491 OA
ATOM     25  C   LIG A   1      -7.335   3.588 132.903  0.00  0.00    +0.277 C 
ENDBRANCH   1  24
BRANCH   6  26
ATOM     26  O   LIG A   1     -10.285   4.767 133.551  0.00  0.00    -0.501 OA
ATOM     27  H   LIG A   1     -11.247   4.692 133.388  0.00  0.00    +0.292 HD
ENDBRANCH   6  26
BRANCH   5  28
ATOM     28  O   LIG A   1     -12.060   5.968 132.163  0.00  0.00    -0.503 OA
ATOM     29  H   LIG A   1     -12.567   5.565 131.435  0.00  0.00    +0.292 HD
ENDBRANCH   5  28
TORSDOF 7
ENDMDL
MODEL 5
REMARK VINA RESULT:      -7.2      4.570      8.830
REMARK  Name = NuBBE_2417
REMARK  10 active torsions:
REMARK  status: ('A' for Active; 'I' for Inactive)
REMARK    1  A    between atoms: O_1  and  C_2
REMARK    2  A    between atoms: O_1  and  C_3
REMARK    3  A    between atoms: C_4  and  C_16
REMARK    4  A    between atoms: C_6  and  C_11
REMARK    5  A    between atoms: C_7  and  O_10
REMARK    6  A    between atoms: C_8  and  O_9
REMARK    7  A    between atoms: C_11  and  C_12
REMARK    8  A    between atoms: C_11  and  C_14
REMARK    9  A    between atoms: C_11  and  C_15
REMARK   10  A    between atoms: C_24  and  O_27
REMARK                            x       y       z     vdW  Elec       q    Type
REMARK                         _______ _______ _______ _____ _____    ______ ____
ROOT
ATOM      1  C   LIG A   1      -8.180   0.138 127.278  0.00  0.00    +0.169 A 
ATOM      2  C   LIG A   1      -7.430  -1.058 127.347  0.00  0.00    +0.005 A 
ATOM      3  C   LIG A   1      -7.478  -1.972 126.261  0.00  0.00    +0.016 A 
ATOM      4  C   LIG A   1      -8.220  -1.737 125.080  0.00  0.00    +0.008 A 
ATOM      5  C   LIG A   1      -8.896  -0.510 125.038  0.00  0.00    +0.166 A 
ATOM      6  C   LIG A   1      -8.902   0.395 126.116  0.00  0.00    +0.201 A 
ENDROOT
BRANCH   2   7
ATOM      7  C   LIG A   1      -6.625  -1.374 128.609  0.00  0.00    +0.065 C 
ATOM      8  C   LIG A   1      -6.684  -2.871 128.934  0.00  0.00    +0.050 C 
ATOM      9  C   LIG A   1      -5.710  -3.236 130.020  0.00  0.00    -0.005 A 
ATOM     10  C   LIG A   1      -4.691  -2.356 130.406  0.00  0.00    +0.127 A 
ATOM     11  O   LIG A   1      -4.519  -1.113 129.854  0.00  0.00    -0.491 OA
ATOM     12  C   LIG A   1      -5.151  -0.951 128.578  0.00  0.00    +0.237 C 
ATOM     13  C   LIG A   1      -3.800  -2.701 131.423  0.00  0.00    +0.091 A 
ATOM     14  C   LIG A   1      -3.908  -3.947 132.034  0.00  0.00    +0.120 A 
ATOM     15  C   LIG A   1      -4.899  -4.842 131.652  0.00  0.00    +0.046 A 
ATOM     16  C   LIG A   1      -5.801  -4.488 130.646  0.00  0.00    +0.011 A 
BRANCH  14  17
ATOM     17  O   LIG A   1      -3.050  -4.332 133.020  0.00  0.00    -0.507 OA
ATOM     18  H   LIG A   1      -3.250  -5.253 133.260  0.00  0.00    +0.292 HD
ENDBRANCH  14  17
ENDBRANCH   2   7
BRANCH   4  19
ATOM     19  C   LIG A   1      -8.234  -2.799 123.941  0.00  0.00    +0.011 C 
ATOM     20  C   LIG A   1      -7.536  -4.115 124.388  0.00  0.00    +0.020 C 
ATOM     21  C   LIG A   1      -9.670  -3.232 123.555  0.00  0.00    +0.020 C 
BRANCH  19  22
ATOM     22  C   LIG A   1      -7.569  -2.213 122.689  0.00  0.00    -0.024 C 
ATOM     23  C   LIG A   1      -6.270  -1.882 122.533  0.00  0.00    +0.005 C 
ENDBRANCH  19  22
ENDBRANCH   4  19
BRANCH   1  24
ATOM     24  O   LIG A   1      -8.124   0.924 128.398  0.00  0.00    -0.491 OA
ATOM     25  C   LIG A   1      -7.379   2.133 128.356  0.00  0.00    +0.277 C 
ENDBRANCH   1  24
BRANCH   6  26
ATOM     26  O   LIG A   1      -9.654   1.531 125.943  0.00  0.00    -0.501 OA
ATOM     27  H   LIG A   1     -10.470   1.365 126.456  0.00  0.00    +0.292 HD
ENDBRANCH   6  26
BRANCH   5  28
ATOM     28  O   LIG A   1      -9.604  -0.064 123.949  0.00  0.00    -0.503 OA
ATOM     29  H   LIG A   1      -9.337  -0.636 123.206  0.00  0.00    +0.292 HD
ENDBRANCH   5  28
TORSDOF 7
ENDMDL
MODEL 6
REMARK VINA RESULT:      -7.1      6.495      8.976
REMARK  Name = NuBBE_2417
REMARK  10 active torsions:
REMARK  status: ('A' for Active; 'I' for Inactive)
REMARK    1  A    between atoms: O_1  and  C_2
REMARK    2  A    between atoms: O_1  and  C_3
REMARK    3  A    between atoms: C_4  and  C_16
REMARK    4  A    between atoms: C_6  and  C_11
REMARK    5  A    between atoms: C_7  and  O_10
REMARK    6  A    between atoms: C_8  and  O_9
REMARK    7  A    between atoms: C_11  and  C_12
REMARK    8  A    between atoms: C_11  and  C_14
REMARK    9  A    between atoms: C_11  and  C_15
REMARK   10  A    between atoms: C_24  and  O_27
REMARK                            x       y       z     vdW  Elec       q    Type
REMARK                         _______ _______ _______ _____ _____    ______ ____
ROOT
ATOM      1  C   LIG A   1      -8.511   4.693 131.880  0.00  0.00    +0.169 A 
ATOM      2  C   LIG A   1      -8.095   5.070 130.583  0.00  0.00    +0.005 A 
ATOM      3  C   LIG A   1      -8.998   5.768 129.738  0.00  0.00    +0.016 A 
ATOM      4  C   LIG A   1     -10.301   6.143 130.137  0.00  0.00    +0.008 A 
ATOM      5  C   LIG A   1     -10.642   5.800 131.452  0.00  0.00    +0.166 A 
ATOM      6  C   LIG A   1      -9.784   5.070 132.296  0.00  0.00    +0.201 A 
ENDROOT
BRANCH   2   7
ATOM      7  C   LIG A   1      -6.702   4.672 130.090  0.00  0.00    +0.065 C 
ATOM      8  C   LIG A   1      -6.733   4.304 128.602  0.00  0.00    +0.050 C 
ATOM      9  C   LIG A   1      -5.344   4.148 128.046  0.00  0.00    -0.005 A 
ATOM     10  C   LIG A   1      -4.225   4.607 128.751  0.00  0.00    +0.127 A 
ATOM     11  O   LIG A   1      -4.302   5.204 129.983  0.00  0.00    -0.491 OA
ATOM     12  C   LIG A   1      -5.601   5.719 130.300  0.00  0.00    +0.237 C 
ATOM     13  C   LIG A   1      -2.940   4.446 128.230  0.00  0.00    +0.091 A 
ATOM     14  C   LIG A   1      -2.777   3.851 126.983  0.00  0.00    +0.120 A 
ATOM     15  C   LIG A   1      -3.876   3.406 126.259  0.00  0.00    +0.046 A 
ATOM     16  C   LIG A   1      -5.159   3.552 126.789  0.00  0.00    +0.011 A 
BRANCH  14  17
ATOM     17  O   LIG A   1      -1.543   3.688 126.428  0.00  0.00    -0.507 OA
ATOM     18  H   LIG A   1      -1.043   4.514 126.540  0.00  0.00    +0.292 HD
ENDBRANCH  14  17
ENDBRANCH   2   7
BRANCH   4  19
ATOM     19  C   LIG A   1     -11.237   6.894 129.144  0.00  0.00    +0.011 C 
ATOM     20  C   LIG A   1     -12.604   6.165 128.997  0.00  0.00    +0.020 C 
ATOM     21  C   LIG A   1     -11.607   8.314 129.641  0.00  0.00    +0.020 C 
BRANCH  19  22
ATOM     22  C   LIG A   1     -10.535   7.040 127.789  0.00  0.00    -0.024 C 
ATOM     23  C   LIG A   1     -10.925   7.799 126.744  0.00  0.00    +0.005 C 
ENDBRANCH  19  22
ENDBRANCH   4  19
BRANCH   1  24
ATOM     24  O   LIG A   1      -7.596   3.966 132.595  0.00  0.00    -0.491 OA
ATOM     25  C   LIG A   1      -7.845   2.587 132.832  0.00  0.00    +0.277 C 
ENDBRANCH   1  24
BRANCH   6  26
ATOM     26  O   LIG A   1     -10.282   4.764 133.539  0.00  0.00    -0.501 OA
ATOM     27  H   LIG A   1      -9.492   4.530 134.068  0.00  0.00    +0.292 HD
ENDBRANCH   6  26
BRANCH   5  28
ATOM     28  O   LIG A   1     -11.829   6.146 132.050  0.00  0.00    -0.503 OA
ATOM     29  H   LIG A   1     -12.114   5.359 132.549  0.00  0.00    +0.292 HD
ENDBRANCH   5  28
TORSDOF 7
ENDMDL
MODEL 7
REMARK VINA RESULT:      -7.1      4.296      8.485
REMARK  Name = NuBBE_2417
REMARK  10 active torsions:
REMARK  status: ('A' for Active; 'I' for Inactive)
REMARK    1  A    between atoms: O_1  and  C_2
REMARK    2  A    between atoms: O_1  and  C_3
REMARK    3  A    between atoms: C_4  and  C_16
REMARK    4  A    between atoms: C_6  and  C_11
REMARK    5  A    between atoms: C_7  and  O_10
REMARK    6  A    between atoms: C_8  and  O_9
REMARK    7  A    between atoms: C_11  and  C_12
REMARK    8  A    between atoms: C_11  and  C_14
REMARK    9  A    between atoms: C_11  and  C_15
REMARK   10  A    between atoms: C_24  and  O_27
REMARK                            x       y       z     vdW  Elec       q    Type
REMARK                         _______ _______ _______ _____ _____    ______ ____
ROOT
ATOM      1  C   LIG A   1      -8.749   0.896 126.557  0.00  0.00    +0.169 A 
ATOM      2  C   LIG A   1      -8.087  -0.282 126.970  0.00  0.00    +0.005 A 
ATOM      3  C   LIG A   1      -7.975  -1.371 126.063  0.00  0.00    +0.016 A 
ATOM      4  C   LIG A   1      -8.468  -1.332 124.739  0.00  0.00    +0.008 A 
ATOM      5  C   LIG A   1      -9.061  -0.119 124.361  0.00  0.00    +0.166 A 
ATOM      6  C   LIG A   1      -9.225   0.959 125.251  0.00  0.00    +0.201 A 
ENDROOT
BRANCH   2   7
ATOM      7  C   LIG A   1      -7.552  -0.388 128.399  0.00  0.00    +0.065 C 
ATOM      8  C   LIG A   1      -7.797  -1.789 128.972  0.00  0.00    +0.050 C 
ATOM      9  C   LIG A   1      -7.068  -1.985 130.273  0.00  0.00    -0.005 A 
ATOM     10  C   LIG A   1      -6.064  -1.099 130.683  0.00  0.00    +0.127 A 
ATOM     11  O   LIG A   1      -5.689   0.003 129.958  0.00  0.00    -0.491 OA
ATOM     12  C   LIG A   1      -6.066  -0.053 128.577  0.00  0.00    +0.237 C 
ATOM     13  C   LIG A   1      -5.403  -1.285 131.898  0.00  0.00    +0.091 A 
ATOM     14  C   LIG A   1      -5.726  -2.382 132.691  0.00  0.00    +0.120 A 
ATOM     15  C   LIG A   1      -6.705  -3.284 132.294  0.00  0.00    +0.046 A 
ATOM     16  C   LIG A   1      -7.377  -3.086 131.086  0.00  0.00    +0.011 A 
BRANCH  14  17
ATOM     17  O   LIG A   1      -5.094  -2.612 133.877  0.00  0.00    -0.507 OA
ATOM     18  H   LIG A   1      -4.137  -2.510 133.741  0.00  0.00    +0.292 HD
ENDBRANCH  14  17
ENDBRANCH   2   7
BRANCH   4  19
ATOM     19  C   LIG A   1      -8.319  -2.574 123.812  0.00  0.00    +0.011 C 
ATOM     20  C   LIG A   1      -7.671  -3.768 124.570  0.00  0.00    +0.020 C 
ATOM     21  C   LIG A   1      -9.687  -3.117 123.329  0.00  0.00    +0.020 C 
BRANCH  19  22
ATOM     22  C   LIG A   1      -7.502  -2.193 122.572  0.00  0.00    -0.024 C 
ATOM     23  C   LIG A   1      -6.208  -1.812 122.532  0.00  0.00    +0.005 C 
ENDBRANCH  19  22
ENDBRANCH   4  19
BRANCH   1  24
ATOM     24  O   LIG A   1      -8.867   1.864 127.520  0.00  0.00    -0.491 OA
ATOM     25  C   LIG A   1      -7.967   2.962 127.507  0.00  0.00    +0.277 C 
ENDBRANCH   1  24
BRANCH   6  26
ATOM     26  O   LIG A   1      -9.873   2.060 124.747  0.00  0.00    -0.501 OA
ATOM     27  H   LIG A   1     -10.343   1.728 123.956  0.00  0.00    +0.292 HD
ENDBRANCH   6  26
BRANCH   5  28
ATOM     28  O   LIG A   1      -9.527   0.143 123.096  0.00  0.00    -0.503 OA
ATOM     29  H   LIG A   1      -9.676   1.106 123.062  0.00  0.00    +0.292 HD
ENDBRANCH   5  28
TORSDOF 7
ENDMDL
MODEL 8
REMARK VINA RESULT:      -7.0      2.993      8.535
REMARK  Name = NuBBE_2417
REMARK  10 active torsions:
REMARK  status: ('A' for Active; 'I' for Inactive)
REMARK    1  A    between atoms: O_1  and  C_2
REMARK    2  A    between atoms: O_1  and  C_3
REMARK    3  A    between atoms: C_4  and  C_16
REMARK    4  A    between atoms: C_6  and  C_11
REMARK    5  A    between atoms: C_7  and  O_10
REMARK    6  A    between atoms: C_8  and  O_9
REMARK    7  A    between atoms: C_11  and  C_12
REMARK    8  A    between atoms: C_11  and  C_14
REMARK    9  A    between atoms: C_11  and  C_15
REMARK   10  A    between atoms: C_24  and  O_27
REMARK                            x       y       z     vdW  Elec       q    Type
REMARK                         _______ _______ _______ _____ _____    ______ ____
ROOT
ATOM      1  C   LIG A   1      -8.929  -1.029 124.521  0.00  0.00    +0.169 A 
ATOM      2  C   LIG A   1      -7.945  -0.727 125.489  0.00  0.00    +0.005 A 
ATOM      3  C   LIG A   1      -7.276   0.525 125.432  0.00  0.00    +0.016 A 
ATOM      4  C   LIG A   1      -7.565   1.516 124.466  0.00  0.00    +0.008 A 
ATOM      5  C   LIG A   1      -8.590   1.190 123.569  0.00  0.00    +0.166 A 
ATOM      6  C   LIG A   1      -9.240  -0.058 123.574  0.00  0.00    +0.201 A 
ENDROOT
BRANCH   2   7
ATOM      7  C   LIG A   1      -7.577  -1.770 126.546  0.00  0.00    +0.065 C 
ATOM      8  C   LIG A   1      -6.100  -1.652 126.939  0.00  0.00    +0.050 C 
ATOM      9  C   LIG A   1      -5.783  -2.499 128.141  0.00  0.00    -0.005 A 
ATOM     10  C   LIG A   1      -6.801  -3.036 128.939  0.00  0.00    +0.127 A 
ATOM     11  O   LIG A   1      -8.135  -2.854 128.683  0.00  0.00    -0.491 OA
ATOM     12  C   LIG A   1      -8.417  -1.739 127.828  0.00  0.00    +0.237 C 
ATOM     13  C   LIG A   1      -6.494  -3.830 130.045  0.00  0.00    +0.091 A 
ATOM     14  C   LIG A   1      -5.161  -4.061 130.372  0.00  0.00    +0.120 A 
ATOM     15  C   LIG A   1      -4.137  -3.522 129.605  0.00  0.00    +0.046 A 
ATOM     16  C   LIG A   1      -4.445  -2.742 128.489  0.00  0.00    +0.011 A 
BRANCH  14  17
ATOM     17  O   LIG A   1      -4.816  -4.817 131.453  0.00  0.00    -0.507 OA
ATOM     18  H   LIG A   1      -3.886  -5.086 131.356  0.00  0.00    +0.292 HD
ENDBRANCH  14  17
ENDBRANCH   2   7
BRANCH   4  19
ATOM     19  C   LIG A   1      -6.774   2.858 124.462  0.00  0.00    +0.011 C 
ATOM     20  C   LIG A   1      -7.644   4.027 125.010  0.00  0.00    +0.020 C 
ATOM     21  C   LIG A   1      -5.541   2.819 125.400  0.00  0.00    +0.020 C 
BRANCH  19  22
ATOM     22  C   LIG A   1      -6.275   3.153 123.043  0.00  0.00    -0.024 C 
ATOM     23  C   LIG A   1      -5.501   4.186 122.648  0.00  0.00    +0.005 C 
ENDBRANCH  19  22
ENDBRANCH   4  19
BRANCH   1  24
ATOM     24  O   LIG A   1      -9.471  -2.284 124.616  0.00  0.00    -0.491 OA
ATOM     25  C   LIG A   1      -9.155  -3.249 123.622  0.00  0.00    +0.277 C 
ENDBRANCH   1  24
BRANCH   6  26
ATOM     26  O   LIG A   1     -10.187  -0.247 122.597  0.00  0.00    -0.501 OA
ATOM     27  H   LIG A   1      -9.702  -0.119 121.757  0.00  0.00    +0.292 HD
ENDBRANCH   6  26
BRANCH   5  28
ATOM     28  O   LIG A   1      -9.070   2.049 122.611  0.00  0.00    -0.503 OA
ATOM     29  H   LIG A   1      -8.285   2.409 122.159  0.00  0.00    +0.292 HD
ENDBRANCH   5  28
TORSDOF 7
ENDMDL
MODEL 9
REMARK VINA RESULT:      -6.8      2.994      5.344
REMARK  Name = NuBBE_2417
REMARK  10 active torsions:
REMARK  status: ('A' for Active; 'I' for Inactive)
REMARK    1  A    between atoms: O_1  and  C_2
REMARK    2  A    between atoms: O_1  and  C_3
REMARK    3  A    between atoms: C_4  and  C_16
REMARK    4  A    between atoms: C_6  and  C_11
REMARK    5  A    between atoms: C_7  and  O_10
REMARK    6  A    between atoms: C_8  and  O_9
REMARK    7  A    between atoms: C_11  and  C_12
REMARK    8  A    between atoms: C_11  and  C_14
REMARK    9  A    between atoms: C_11  and  C_15
REMARK   10  A    between atoms: C_24  and  O_27
REMARK                            x       y       z     vdW  Elec       q    Type
REMARK                         _______ _______ _______ _____ _____    ______ ____
ROOT
ATOM      1  C   LIG A   1      -8.873   1.304 123.816  0.00  0.00    +0.169 A 
ATOM      2  C   LIG A   1      -7.882   1.173 124.815  0.00  0.00    +0.005 A 
ATOM      3  C   LIG A   1      -7.579  -0.115 125.330  0.00  0.00    +0.016 A 
ATOM      4  C   LIG A   1      -8.199  -1.300 124.871  0.00  0.00    +0.008 A 
ATOM      5  C   LIG A   1      -9.129  -1.122 123.838  0.00  0.00    +0.166 A 
ATOM      6  C   LIG A   1      -9.480   0.146 123.339  0.00  0.00    +0.201 A 
ENDROOT
BRANCH   2   7
ATOM      7  C   LIG A   1      -7.193   2.424 125.364  0.00  0.00    +0.065 C 
ATOM      8  C   LIG A   1      -6.925   2.285 126.868  0.00  0.00    +0.050 C 
ATOM      9  C   LIG A   1      -6.038   3.390 127.372  0.00  0.00    -0.005 A 
ATOM     10  C   LIG A   1      -5.325   4.208 126.487  0.00  0.00    +0.127 A 
ATOM     11  O   LIG A   1      -5.392   4.084 125.123  0.00  0.00    -0.491 OA
ATOM     12  C   LIG A   1      -5.876   2.810 124.679  0.00  0.00    +0.237 C 
ATOM     13  C   LIG A   1      -4.514   5.238 126.967  0.00  0.00    +0.091 A 
ATOM     14  C   LIG A   1      -4.391   5.429 128.340  0.00  0.00    +0.120 A 
ATOM     15  C   LIG A   1      -5.075   4.616 129.235  0.00  0.00    +0.046 A 
ATOM     16  C   LIG A   1      -5.900   3.598 128.753  0.00  0.00    +0.011 A 
BRANCH  14  17
ATOM     17  O   LIG A   1      -3.598   6.412 128.853  0.00  0.00    -0.507 OA
ATOM     18  H   LIG A   1      -3.329   7.001 128.127  0.00  0.00    +0.292 HD
ENDBRANCH  14  17
ENDBRANCH   2   7
BRANCH   4  19
ATOM     19  C   LIG A   1      -7.822  -2.674 125.500  0.00  0.00    +0.011 C 
ATOM     20  C   LIG A   1      -7.364  -3.686 124.411  0.00  0.00    +0.020 C 
ATOM     21  C   LIG A   1      -6.615  -2.570 126.466  0.00  0.00    +0.020 C 
BRANCH  19  22
ATOM     22  C   LIG A   1      -9.015  -3.217 126.297  0.00  0.00    -0.024 C 
ATOM     23  C   LIG A   1      -8.992  -3.766 127.529  0.00  0.00    +0.005 C 
ENDBRANCH  19  22
ENDBRANCH   4  19
BRANCH   1  24
ATOM     24  O   LIG A   1      -9.143   2.590 123.430  0.00  0.00    -0.491 OA
ATOM     25  C   LIG A   1      -8.690   3.038 122.160  0.00  0.00    +0.277 C 
ENDBRANCH   1  24
BRANCH   6  26
ATOM     26  O   LIG A   1     -10.447   0.161 122.363  0.00  0.00    -0.501 OA
ATOM     27  H   LIG A   1     -11.274   0.373 122.840  0.00  0.00    +0.292 HD
ENDBRANCH   6  26
BRANCH   5  28
ATOM     28  O   LIG A   1      -9.776  -2.155 123.205  0.00  0.00    -0.503 OA
ATOM     29  H   LIG A   1     -10.583  -1.766 122.820  0.00  0.00    +0.292 HD
ENDBRANCH   5  28
TORSDOF 7
ENDMDL
