MODEL 1
REMARK VINA RESULT:      -6.4      0.000      0.000
REMARK  Name = NuBBE_1404
REMARK  7 active torsions:
REMARK  status: ('A' for Active; 'I' for Inactive)
REMARK    1  A    between atoms: C_1  and  C_3
REMARK    2  A    between atoms: C_1  and  C_4
REMARK    3  A    between atoms: C_6  and  C_7
REMARK    4  A    between atoms: C_6  and  C_9
REMARK    5  A    between atoms: C_12  and  C_14
REMARK    6  A    between atoms: C_14  and  C_15
REMARK    7  A    between atoms: C_14  and  C_16
REMARK                            x       y       z     vdW  Elec       q    Type
REMARK                         _______ _______ _______ _____ _____    ______ ____
ROOT
ATOM      1  C   LIG A   1      -6.652  -1.103 124.920  0.00  0.00    +0.046 C 
ATOM      2  C   LIG A   1      -6.518  -2.342 123.949  0.00  0.00    -0.004 C 
ATOM      3  C   LIG A   1      -6.416  -1.895 122.470  0.00  0.00    +0.016 C 
ATOM      4  C   LIG A   1      -7.768  -3.247 124.075  0.00  0.00    +0.016 C 
ATOM      5  C   LIG A   1      -8.143  -3.645 125.510  0.00  0.00    +0.031 C 
ATOM      6  C   LIG A   1      -7.854  -2.613 126.578  0.00  0.00    -0.070 C 
ATOM      7  C   LIG A   1      -7.166  -1.490 126.292  0.00  0.00    -0.019 C 
ENDROOT
BRANCH   1   8
ATOM      8  C   LIG A   1      -7.451   0.101 124.391  0.00  0.00    -0.072 C 
ATOM      9  C   LIG A   1      -6.831   1.250 124.067  0.00  0.00    +0.008 C 
ATOM     10  C   LIG A   1      -8.951  -0.004 124.281  0.00  0.00    +0.039 C 
ENDBRANCH   1   8
BRANCH   6  11
ATOM     11  C   LIG A   1      -8.362  -2.960 127.977  0.00  0.00    +0.009 C 
ATOM     12  C   LIG A   1      -9.232  -4.223 128.030  0.00  0.00    +0.012 C 
ATOM     13  C   LIG A   1      -7.210  -3.082 128.981  0.00  0.00    +0.012 C 
ENDBRANCH   6  11
BRANCH   2  14
ATOM     14  C   LIG A   1      -5.263  -3.147 124.351  0.00  0.00    -0.027 C 
ATOM     15  C   LIG A   1      -4.570  -4.028 123.603  0.00  0.00    +0.004 C 
ENDBRANCH   2  14
TORSDOF 3
ENDMDL
MODEL 2
REMARK VINA RESULT:      -6.1      1.345      4.400
REMARK  Name = NuBBE_1404
REMARK  7 active torsions:
REMARK  status: ('A' for Active; 'I' for Inactive)
REMARK    1  A    between atoms: C_1  and  C_3
REMARK    2  A    between atoms: C_1  and  C_4
REMARK    3  A    between atoms: C_6  and  C_7
REMARK    4  A    between atoms: C_6  and  C_9
REMARK    5  A    between atoms: C_12  and  C_14
REMARK    6  A    between atoms: C_14  and  C_15
REMARK    7  A    between atoms: C_14  and  C_16
REMARK                            x       y       z     vdW  Elec       q    Type
REMARK                         _______ _______ _______ _____ _____    ______ ____
ROOT
ATOM      1  C   LIG A   1      -6.157  -2.406 125.189  0.00  0.00    +0.046 C 
ATOM      2  C   LIG A   1      -7.690  -2.689 125.445  0.00  0.00    -0.004 C 
ATOM      3  C   LIG A   1      -8.149  -3.992 124.746  0.00  0.00    +0.016 C 
ATOM      4  C   LIG A   1      -8.542  -1.530 124.872  0.00  0.00    +0.016 C 
ATOM      5  C   LIG A   1      -8.110  -0.124 125.311  0.00  0.00    +0.031 C 
ATOM      6  C   LIG A   1      -6.625   0.074 125.526  0.00  0.00    -0.070 C 
ATOM      7  C   LIG A   1      -5.772  -0.970 125.486  0.00  0.00    -0.019 C 
ENDROOT
BRANCH   1   8
ATOM      8  C   LIG A   1      -5.603  -2.813 123.814  0.00  0.00    -0.072 C 
ATOM      9  C   LIG A   1      -4.718  -3.820 123.699  0.00  0.00    +0.008 C 
ATOM     10  C   LIG A   1      -6.028  -2.040 122.591  0.00  0.00    +0.039 C 
ENDBRANCH   1   8
BRANCH   6  11
ATOM     11  C   LIG A   1      -6.192   1.509 125.821  0.00  0.00    +0.009 C 
ATOM     12  C   LIG A   1      -4.741   1.638 126.303  0.00  0.00    +0.012 C 
ATOM     13  C   LIG A   1      -6.418   2.425 124.612  0.00  0.00    +0.012 C 
ENDBRANCH   6  11
BRANCH   2  14
ATOM     14  C   LIG A   1      -7.924  -2.789 126.968  0.00  0.00    -0.027 C 
ATOM     15  C   LIG A   1      -8.746  -3.631 127.625  0.00  0.00    +0.004 C 
ENDBRANCH   2  14
TORSDOF 3
ENDMDL
MODEL 3
REMARK VINA RESULT:      -5.8      1.326      3.057
REMARK  Name = NuBBE_1404
REMARK  7 active torsions:
REMARK  status: ('A' for Active; 'I' for Inactive)
REMARK    1  A    between atoms: C_1  and  C_3
REMARK    2  A    between atoms: C_1  and  C_4
REMARK    3  A    between atoms: C_6  and  C_7
REMARK    4  A    between atoms: C_6  and  C_9
REMARK    5  A    between atoms: C_12  and  C_14
REMARK    6  A    between atoms: C_14  and  C_15
REMARK    7  A    between atoms: C_14  and  C_16
REMARK                            x       y       z     vdW  Elec       q    Type
REMARK                         _______ _______ _______ _____ _____    ______ ____
ROOT
ATOM      1  C   LIG A   1      -8.098  -1.866 124.909  0.00  0.00    +0.046 C 
ATOM      2  C   LIG A   1      -6.716  -1.292 124.404  0.00  0.00    -0.004 C 
ATOM      3  C   LIG A   1      -6.492  -1.593 122.902  0.00  0.00    +0.016 C 
ATOM      4  C   LIG A   1      -5.554  -1.951 125.188  0.00  0.00    +0.016 C 
ATOM      5  C   LIG A   1      -5.697  -1.918 126.716  0.00  0.00    +0.031 C 
ATOM      6  C   LIG A   1      -7.110  -2.013 127.250  0.00  0.00    -0.070 C 
ATOM      7  C   LIG A   1      -8.171  -1.968 126.419  0.00  0.00    -0.019 C 
ENDROOT
BRANCH   1   8
ATOM      8  C   LIG A   1      -8.562  -3.192 124.281  0.00  0.00    -0.072 C 
ATOM      9  C   LIG A   1      -8.002  -4.360 124.648  0.00  0.00    +0.008 C 
ATOM     10  C   LIG A   1      -9.625  -3.168 123.213  0.00  0.00    +0.039 C 
ENDBRANCH   1   8
BRANCH   6  11
ATOM     11  C   LIG A   1      -7.228  -2.125 128.769  0.00  0.00    +0.009 C 
ATOM     12  C   LIG A   1      -8.237  -3.180 129.241  0.00  0.00    +0.012 C 
ATOM     13  C   LIG A   1      -5.866  -2.382 129.423  0.00  0.00    +0.012 C 
ENDBRANCH   6  11
BRANCH   2  14
ATOM     14  C   LIG A   1      -6.697   0.232 124.651  0.00  0.00    -0.027 C 
ATOM     15  C   LIG A   1      -7.520   1.165 124.134  0.00  0.00    +0.004 C 
ENDBRANCH   2  14
TORSDOF 3
ENDMDL
MODEL 4
REMARK VINA RESULT:      -5.6      1.577      4.812
REMARK  Name = NuBBE_1404
REMARK  7 active torsions:
REMARK  status: ('A' for Active; 'I' for Inactive)
REMARK    1  A    between atoms: C_1  and  C_3
REMARK    2  A    between atoms: C_1  and  C_4
REMARK    3  A    between atoms: C_6  and  C_7
REMARK    4  A    between atoms: C_6  and  C_9
REMARK    5  A    between atoms: C_12  and  C_14
REMARK    6  A    between atoms: C_14  and  C_15
REMARK    7  A    between atoms: C_14  and  C_16
REMARK                            x       y       z     vdW  Elec       q    Type
REMARK                         _______ _______ _______ _____ _____    ______ ____
ROOT
ATOM      1  C   LIG A   1      -7.014  -2.666 127.164  0.00  0.00    +0.046 C 
ATOM      2  C   LIG A   1      -6.684  -1.229 127.732  0.00  0.00    -0.004 C 
ATOM      3  C   LIG A   1      -7.686  -0.812 128.837  0.00  0.00    +0.016 C 
ATOM      4  C   LIG A   1      -6.781  -0.179 126.598  0.00  0.00    +0.016 C 
ATOM      5  C   LIG A   1      -5.991  -0.519 125.327  0.00  0.00    +0.031 C 
ATOM      6  C   LIG A   1      -5.895  -1.989 124.981  0.00  0.00    -0.070 C 
ATOM      7  C   LIG A   1      -6.345  -2.934 125.831  0.00  0.00    -0.019 C 
ENDROOT
BRANCH   1   8
ATOM      8  C   LIG A   1      -8.502  -3.045 127.078  0.00  0.00    -0.072 C 
ATOM      9  C   LIG A   1      -9.048  -3.898 127.965  0.00  0.00    +0.008 C 
ATOM     10  C   LIG A   1      -9.340  -2.484 125.957  0.00  0.00    +0.039 C 
ENDBRANCH   1   8
BRANCH   6  11
ATOM     11  C   LIG A   1      -5.233  -2.304 123.640  0.00  0.00    +0.009 C 
ATOM     12  C   LIG A   1      -4.654  -3.721 123.547  0.00  0.00    +0.012 C 
ATOM     13  C   LIG A   1      -6.190  -2.058 122.467  0.00  0.00    +0.012 C 
ENDBRANCH   6  11
BRANCH   2  14
ATOM     14  C   LIG A   1      -5.246  -1.241 128.295  0.00  0.00    -0.027 C 
ATOM     15  C   LIG A   1      -4.625  -2.236 128.959  0.00  0.00    +0.004 C 
ENDBRANCH   2  14
TORSDOF 3
ENDMDL
MODEL 5
REMARK VINA RESULT:      -5.6     10.650     12.516
REMARK  Name = NuBBE_1404
REMARK  7 active torsions:
REMARK  status: ('A' for Active; 'I' for Inactive)
REMARK    1  A    between atoms: C_1  and  C_3
REMARK    2  A    between atoms: C_1  and  C_4
REMARK    3  A    between atoms: C_6  and  C_7
REMARK    4  A    between atoms: C_6  and  C_9
REMARK    5  A    between atoms: C_12  and  C_14
REMARK    6  A    between atoms: C_14  and  C_15
REMARK    7  A    between atoms: C_14  and  C_16
REMARK                            x       y       z     vdW  Elec       q    Type
REMARK                         _______ _______ _______ _____ _____    ______ ____
ROOT
ATOM      1  C   LIG A   1      -3.817   7.009 131.032  0.00  0.00    +0.046 C 
ATOM      2  C   LIG A   1      -2.845   5.851 130.575  0.00  0.00    -0.004 C 
ATOM      3  C   LIG A   1      -3.633   4.606 130.098  0.00  0.00    +0.016 C 
ATOM      4  C   LIG A   1      -1.956   5.410 131.763  0.00  0.00    +0.016 C 
ATOM      5  C   LIG A   1      -1.231   6.549 132.493  0.00  0.00    +0.031 C 
ATOM      6  C   LIG A   1      -1.971   7.867 132.560  0.00  0.00    -0.070 C 
ATOM      7  C   LIG A   1      -3.120   8.054 131.880  0.00  0.00    -0.019 C 
ENDROOT
BRANCH   1   8
ATOM      8  C   LIG A   1      -5.124   6.578 131.719  0.00  0.00    -0.072 C 
ATOM      9  C   LIG A   1      -6.312   6.755 131.111  0.00  0.00    +0.008 C 
ATOM     10  C   LIG A   1      -5.067   5.993 133.107  0.00  0.00    +0.039 C 
ENDBRANCH   1   8
BRANCH   6  11
ATOM     11  C   LIG A   1      -1.306   8.948 133.411  0.00  0.00    +0.009 C 
ATOM     12  C   LIG A   1       0.227   8.887 133.413  0.00  0.00    +0.012 C 
ATOM     13  C   LIG A   1      -1.767  10.351 133.001  0.00  0.00    +0.012 C 
ENDBRANCH   6  11
BRANCH   2  14
ATOM     14  C   LIG A   1      -1.948   6.383 129.436  0.00  0.00    -0.027 C 
ATOM     15  C   LIG A   1      -2.322   6.780 128.204  0.00  0.00    +0.004 C 
ENDBRANCH   2  14
TORSDOF 3
ENDMDL
MODEL 6
REMARK VINA RESULT:      -5.6      3.739      6.377
REMARK  Name = NuBBE_1404
REMARK  7 active torsions:
REMARK  status: ('A' for Active; 'I' for Inactive)
REMARK    1  A    between atoms: C_1  and  C_3
REMARK    2  A    between atoms: C_1  and  C_4
REMARK    3  A    between atoms: C_6  and  C_7
REMARK    4  A    between atoms: C_6  and  C_9
REMARK    5  A    between atoms: C_12  and  C_14
REMARK    6  A    between atoms: C_14  and  C_15
REMARK    7  A    between atoms: C_14  and  C_16
REMARK                            x       y       z     vdW  Elec       q    Type
REMARK                         _______ _______ _______ _____ _____    ______ ____
ROOT
ATOM      1  C   LIG A   1      -5.571  -3.724 130.007  0.00  0.00    +0.046 C 
ATOM      2  C   LIG A   1      -6.726  -2.847 129.379  0.00  0.00    -0.004 C 
ATOM      3  C   LIG A   1      -6.271  -2.170 128.063  0.00  0.00    +0.016 C 
ATOM      4  C   LIG A   1      -7.128  -1.722 130.364  0.00  0.00    +0.016 C 
ATOM      5  C   LIG A   1      -7.436  -2.187 131.794  0.00  0.00    +0.031 C 
ATOM      6  C   LIG A   1      -6.632  -3.368 132.293  0.00  0.00    -0.070 C 
ATOM      7  C   LIG A   1      -5.817  -4.053 131.466  0.00  0.00    -0.019 C 
ENDROOT
BRANCH   1   8
ATOM      8  C   LIG A   1      -4.137  -3.198 129.833  0.00  0.00    -0.072 C 
ATOM      9  C   LIG A   1      -3.275  -3.810 128.999  0.00  0.00    +0.008 C 
ATOM     10  C   LIG A   1      -3.686  -2.009 130.643  0.00  0.00    +0.039 C 
ENDBRANCH   1   8
BRANCH   6  11
ATOM     11  C   LIG A   1      -6.844  -3.730 133.762  0.00  0.00    +0.009 C 
ATOM     12  C   LIG A   1      -8.303  -3.635 134.225  0.00  0.00    +0.012 C 
ATOM     13  C   LIG A   1      -6.287  -5.121 134.086  0.00  0.00    +0.012 C 
ENDBRANCH   6  11
BRANCH   2  14
ATOM     14  C   LIG A   1      -7.947  -3.755 129.117  0.00  0.00    -0.027 C 
ATOM     15  C   LIG A   1      -8.747  -3.775 128.034  0.00  0.00    +0.004 C 
ENDBRANCH   2  14
TORSDOF 3
ENDMDL
MODEL 7
REMARK VINA RESULT:      -5.6      1.567      4.285
REMARK  Name = NuBBE_1404
REMARK  7 active torsions:
REMARK  status: ('A' for Active; 'I' for Inactive)
REMARK    1  A    between atoms: C_1  and  C_3
REMARK    2  A    between atoms: C_1  and  C_4
REMARK    3  A    between atoms: C_6  and  C_7
REMARK    4  A    between atoms: C_6  and  C_9
REMARK    5  A    between atoms: C_12  and  C_14
REMARK    6  A    between atoms: C_14  and  C_15
REMARK    7  A    between atoms: C_14  and  C_16
REMARK                            x       y       z     vdW  Elec       q    Type
REMARK                         _______ _______ _______ _____ _____    ______ ____
ROOT
ATOM      1  C   LIG A   1      -8.577  -2.289 125.851  0.00  0.00    +0.046 C 
ATOM      2  C   LIG A   1      -7.766  -2.772 124.584  0.00  0.00    -0.004 C 
ATOM      3  C   LIG A   1      -7.295  -4.239 124.739  0.00  0.00    +0.016 C 
ATOM      4  C   LIG A   1      -6.502  -1.897 124.403  0.00  0.00    +0.016 C 
ATOM      5  C   LIG A   1      -6.751  -0.382 124.414  0.00  0.00    +0.031 C 
ATOM      6  C   LIG A   1      -7.872   0.096 125.312  0.00  0.00    -0.070 C 
ATOM      7  C   LIG A   1      -8.689  -0.780 125.930  0.00  0.00    -0.019 C 
ENDROOT
BRANCH   1   8
ATOM      8  C   LIG A   1      -8.122  -2.843 127.211  0.00  0.00    -0.072 C 
ATOM      9  C   LIG A   1      -7.010  -2.374 127.808  0.00  0.00    +0.008 C 
ATOM     10  C   LIG A   1      -8.912  -3.954 127.855  0.00  0.00    +0.039 C 
ENDBRANCH   1   8
BRANCH   6  11
ATOM     11  C   LIG A   1      -8.016   1.613 125.427  0.00  0.00    +0.009 C 
ATOM     12  C   LIG A   1      -9.140   2.201 124.565  0.00  0.00    +0.012 C 
ATOM     13  C   LIG A   1      -8.197   2.054 126.884  0.00  0.00    +0.012 C 
ENDBRANCH   6  11
BRANCH   2  14
ATOM     14  C   LIG A   1      -8.668  -2.630 123.339  0.00  0.00    -0.027 C 
ATOM     15  C   LIG A   1      -9.831  -3.261 123.083  0.00  0.00    +0.004 C 
ENDBRANCH   2  14
TORSDOF 3
ENDMDL
MODEL 8
REMARK VINA RESULT:      -5.3     16.164     18.515
REMARK  Name = NuBBE_1404
REMARK  7 active torsions:
REMARK  status: ('A' for Active; 'I' for Inactive)
REMARK    1  A    between atoms: C_1  and  C_3
REMARK    2  A    between atoms: C_1  and  C_4
REMARK    3  A    between atoms: C_6  and  C_7
REMARK    4  A    between atoms: C_6  and  C_9
REMARK    5  A    between atoms: C_12  and  C_14
REMARK    6  A    between atoms: C_14  and  C_15
REMARK    7  A    between atoms: C_14  and  C_16
REMARK                            x       y       z     vdW  Elec       q    Type
REMARK                         _______ _______ _______ _____ _____    ______ ____
ROOT
ATOM      1  C   LIG A   1      -1.357  11.801 132.863  0.00  0.00    +0.046 C 
ATOM      2  C   LIG A   1       0.180  11.962 133.194  0.00  0.00    -0.004 C 
ATOM      3  C   LIG A   1       0.897  10.590 133.237  0.00  0.00    +0.016 C 
ATOM      4  C   LIG A   1       0.353  12.620 134.584  0.00  0.00    +0.016 C 
ATOM      5  C   LIG A   1      -0.446  13.913 134.798  0.00  0.00    +0.031 C 
ATOM      6  C   LIG A   1      -1.785  13.986 134.097  0.00  0.00    -0.070 C 
ATOM      7  C   LIG A   1      -2.162  13.035 133.218  0.00  0.00    -0.019 C 
ENDROOT
BRANCH   1   8
ATOM      8  C   LIG A   1      -2.054  10.552 133.429  0.00  0.00    -0.072 C 
ATOM      9  C   LIG A   1      -2.299   9.486 132.645  0.00  0.00    +0.008 C 
ATOM     10  C   LIG A   1      -2.504  10.549 134.868  0.00  0.00    +0.039 C 
ENDBRANCH   1   8
BRANCH   6  11
ATOM     11  C   LIG A   1      -2.633  15.211 134.432  0.00  0.00    +0.009 C 
ATOM     12  C   LIG A   1      -1.939  16.218 135.359  0.00  0.00    +0.012 C 
ATOM     13  C   LIG A   1      -3.118  15.925 133.164  0.00  0.00    +0.012 C 
ENDBRANCH   6  11
BRANCH   2  14
ATOM     14  C   LIG A   1       0.821  12.866 132.118  0.00  0.00    -0.027 C 
ATOM     15  C   LIG A   1       0.583  12.872 130.792  0.00  0.00    +0.004 C 
ENDBRANCH   2  14
TORSDOF 3
ENDMDL
MODEL 9
REMARK VINA RESULT:      -5.2      1.683      4.992
REMARK  Name = NuBBE_1404
REMARK  7 active torsions:
REMARK  status: ('A' for Active; 'I' for Inactive)
REMARK    1  A    between atoms: C_1  and  C_3
REMARK    2  A    between atoms: C_1  and  C_4
REMARK    3  A    between atoms: C_6  and  C_7
REMARK    4  A    between atoms: C_6  and  C_9
REMARK    5  A    between atoms: C_12  and  C_14
REMARK    6  A    between atoms: C_14  and  C_15
REMARK    7  A    between atoms: C_14  and  C_16
REMARK                            x       y       z     vdW  Elec       q    Type
REMARK                         _______ _______ _______ _____ _____    ______ ____
ROOT
ATOM      1  C   LIG A   1      -6.656  -1.919 127.617  0.00  0.00    +0.046 C 
ATOM      2  C   LIG A   1      -7.189  -0.437 127.496  0.00  0.00    -0.004 C 
ATOM      3  C   LIG A   1      -7.963  -0.008 128.767  0.00  0.00    +0.016 C 
ATOM      4  C   LIG A   1      -8.165  -0.325 126.299  0.00  0.00    +0.016 C 
ATOM      5  C   LIG A   1      -7.635  -0.883 124.971  0.00  0.00    +0.031 C 
ATOM      6  C   LIG A   1      -6.715  -2.079 125.078  0.00  0.00    -0.070 C 
ATOM      7  C   LIG A   1      -6.274  -2.513 126.276  0.00  0.00    -0.019 C 
ENDROOT
BRANCH   1   8
ATOM      8  C   LIG A   1      -7.549  -2.911 128.382  0.00  0.00    -0.072 C 
ATOM      9  C   LIG A   1      -8.631  -3.456 127.796  0.00  0.00    +0.008 C 
ATOM     10  C   LIG A   1      -7.225  -3.235 129.819  0.00  0.00    +0.039 C 
ENDBRANCH   1   8
BRANCH   6  11
ATOM     11  C   LIG A   1      -6.310  -2.714 123.748  0.00  0.00    +0.009 C 
ATOM     12  C   LIG A   1      -6.446  -1.776 122.541  0.00  0.00    +0.012 C 
ATOM     13  C   LIG A   1      -4.887  -3.282 123.804  0.00  0.00    +0.012 C 
ENDBRANCH   6  11
BRANCH   2  14
ATOM     14  C   LIG A   1      -5.985   0.501 127.262  0.00  0.00    -0.027 C 
ATOM     15  C   LIG A   1      -5.167   1.043 128.185  0.00  0.00    +0.004 C 
ENDBRANCH   2  14
TORSDOF 3
ENDMDL
