MODEL 1
REMARK VINA RESULT:      -9.1      0.000      0.000
REMARK  Name = NuBBE_71
REMARK  9 active torsions:
REMARK  status: ('A' for Active; 'I' for Inactive)
REMARK    1  A    between atoms: O_1  and  C_2
REMARK    2  A    between atoms: C_6  and  C_35
REMARK    3  A    between atoms: C_8  and  C_9
REMARK    4  A    between atoms: C_8  and  C_10
REMARK    5  A    between atoms: C_14  and  C_34
REMARK    6  A    between atoms: C_20  and  C_33
REMARK    7  A    between atoms: C_23  and  C_32
REMARK    8  A    between atoms: C_27  and  C_28
REMARK    9  A    between atoms: C_27  and  C_31
REMARK                            x       y       z     vdW  Elec       q    Type
REMARK                         _______ _______ _______ _____ _____    ______ ____
ROOT
ATOM      1  C   LIG A   1      -3.295   7.692 129.804  0.00  0.00    +0.120 C 
ATOM      2  C   LIG A   1      -4.063   8.007 131.083  0.00  0.00    +0.032 C 
ATOM      3  C   LIG A   1      -4.953   6.859 131.556  0.00  0.00    +0.010 C 
ATOM      4  C   LIG A   1      -4.206   5.477 131.725  0.00  0.00    -0.025 C 
ATOM      5  C   LIG A   1      -3.743   5.198 130.238  0.00  0.00    +0.003 C 
ATOM      6  C   LIG A   1      -2.634   6.255 129.726  0.00  0.00    -0.006 C 
ATOM      7  C   LIG A   1      -2.162   6.096 128.256  0.00  0.00    +0.014 C 
ATOM      8  C   LIG A   1      -1.309   6.195 130.534  0.00  0.00    +0.014 C 
ATOM      9  C   LIG A   1      -3.631   3.698 129.947  0.00  0.00    +0.005 C 
ATOM     10  C   LIG A   1      -4.996   2.954 130.283  0.00  0.00    +0.008 C 
ATOM     11  C   LIG A   1      -5.305   2.820 131.805  0.00  0.00    -0.019 C 
ATOM     12  C   LIG A   1      -5.070   4.308 132.468  0.00  0.00    +0.006 C 
ATOM     13  C   LIG A   1      -6.262   5.036 133.142  0.00  0.00    +0.031 C 
ATOM     14  C   LIG A   1      -7.358   4.126 133.593  0.00  0.00    -0.026 C 
ATOM     15  C   LIG A   1      -7.670   3.359 132.571  0.00  0.00    -0.063 C 
ATOM     16  C   LIG A   1      -6.787   2.152 132.311  0.00  0.00    -0.005 C 
ATOM     17  C   LIG A   1      -7.575   1.080 131.468  0.00  0.00    +0.012 C 
ATOM     18  C   LIG A   1      -9.122   1.345 131.366  0.00  0.00    +0.008 C 
ATOM     19  C   LIG A   1      -9.402   2.723 130.720  0.00  0.00    -0.025 C 
ATOM     20  C   LIG A   1      -8.808   3.780 131.657  0.00  0.00    +0.022 C 
ATOM     21  C   LIG A   1      -8.807   5.156 130.948  0.00  0.00    +0.014 C 
ATOM     22  C   LIG A   1     -10.246   5.709 130.914  0.00  0.00    -0.034 C 
ATOM     23  C   LIG A   1     -10.328   6.957 129.999  0.00  0.00    +0.011 C 
ATOM     24  C   LIG A   1     -11.228   4.613 130.386  0.00  0.00    +0.007 C 
ATOM     25  C   LIG A   1     -10.914   3.100 130.631  0.00  0.00    +0.008 C 
ATOM     26  C   LIG A   1     -10.565   6.242 132.341  0.00  0.00    +0.011 C 
ATOM     27  C   LIG A   1      -8.807   2.667 129.297  0.00  0.00    +0.012 C 
ATOM     28  C   LIG A   1      -6.611   1.392 133.694  0.00  0.00    +0.016 C 
ATOM     29  C   LIG A   1      -4.194   1.834 132.317  0.00  0.00    +0.012 C 
ATOM     30  C   LIG A   1      -3.101   5.728 132.789  0.00  0.00    +0.012 C 
ENDROOT
BRANCH   1  31
ATOM     31  O   LIG A   1      -4.266   7.848 128.755  0.00  0.00    -0.391 OA
ATOM     32  H   LIG A   1      -4.118   7.141 128.106  0.00  0.00    +0.210 HD
ENDBRANCH   1  31
TORSDOF 1
ENDMDL
MODEL 2
REMARK VINA RESULT:      -9.0      4.629      7.429
REMARK  Name = NuBBE_71
REMARK  9 active torsions:
REMARK  status: ('A' for Active; 'I' for Inactive)
REMARK    1  A    between atoms: O_1  and  C_2
REMARK    2  A    between atoms: C_6  and  C_35
REMARK    3  A    between atoms: C_8  and  C_9
REMARK    4  A    between atoms: C_8  and  C_10
REMARK    5  A    between atoms: C_14  and  C_34
REMARK    6  A    between atoms: C_20  and  C_33
REMARK    7  A    between atoms: C_23  and  C_32
REMARK    8  A    between atoms: C_27  and  C_28
REMARK    9  A    between atoms: C_27  and  C_31
REMARK                            x       y       z     vdW  Elec       q    Type
REMARK                         _______ _______ _______ _____ _____    ______ ____
ROOT
ATOM      1  C   LIG A   1      -8.345  -1.240 124.551  0.00  0.00    +0.120 C 
ATOM      2  C   LIG A   1      -7.113  -0.375 124.799  0.00  0.00    +0.032 C 
ATOM      3  C   LIG A   1      -6.699  -0.314 126.267  0.00  0.00    +0.010 C 
ATOM      4  C   LIG A   1      -6.491  -1.724 126.950  0.00  0.00    -0.025 C 
ATOM      5  C   LIG A   1      -7.948  -2.330 126.845  0.00  0.00    +0.003 C 
ATOM      6  C   LIG A   1      -8.388  -2.624 125.319  0.00  0.00    -0.006 C 
ATOM      7  C   LIG A   1      -9.827  -3.166 125.111  0.00  0.00    +0.014 C 
ATOM      8  C   LIG A   1      -7.502  -3.689 124.618  0.00  0.00    +0.014 C 
ATOM      9  C   LIG A   1      -8.238  -3.319 127.979  0.00  0.00    +0.005 C 
ATOM     10  C   LIG A   1      -7.988  -2.643 129.396  0.00  0.00    +0.008 C 
ATOM     11  C   LIG A   1      -6.488  -2.402 129.745  0.00  0.00    -0.019 C 
ATOM     12  C   LIG A   1      -5.806  -1.683 128.432  0.00  0.00    +0.006 C 
ATOM     13  C   LIG A   1      -5.202  -0.261 128.572  0.00  0.00    +0.031 C 
ATOM     14  C   LIG A   1      -4.822   0.106 129.970  0.00  0.00    -0.026 C 
ATOM     15  C   LIG A   1      -5.864  -0.143 130.733  0.00  0.00    -0.063 C 
ATOM     16  C   LIG A   1      -6.075  -1.579 131.177  0.00  0.00    -0.005 C 
ATOM     17  C   LIG A   1      -6.969  -1.615 132.474  0.00  0.00    +0.012 C 
ATOM     18  C   LIG A   1      -7.162  -0.217 133.167  0.00  0.00    +0.008 C 
ATOM     19  C   LIG A   1      -7.818   0.792 132.194  0.00  0.00    -0.025 C 
ATOM     20  C   LIG A   1      -6.843   0.981 131.028  0.00  0.00    +0.022 C 
ATOM     21  C   LIG A   1      -7.545   1.760 129.888  0.00  0.00    +0.014 C 
ATOM     22  C   LIG A   1      -7.663   3.244 130.288  0.00  0.00    -0.034 C 
ATOM     23  C   LIG A   1      -8.576   4.004 129.293  0.00  0.00    +0.011 C 
ATOM     24  C   LIG A   1      -8.254   3.364 131.731  0.00  0.00    +0.007 C 
ATOM     25  C   LIG A   1      -7.997   2.229 132.777  0.00  0.00    +0.008 C 
ATOM     26  C   LIG A   1      -6.256   3.881 130.102  0.00  0.00    +0.011 C 
ATOM     27  C   LIG A   1      -9.203   0.214 131.834  0.00  0.00    +0.012 C 
ATOM     28  C   LIG A   1      -4.687  -2.106 131.741  0.00  0.00    +0.016 C 
ATOM     29  C   LIG A   1      -5.914  -3.856 129.907  0.00  0.00    +0.012 C 
ATOM     30  C   LIG A   1      -5.361  -2.417 126.139  0.00  0.00    +0.012 C 
ENDROOT
BRANCH   1  31
ATOM     31  O   LIG A   1      -9.449  -0.413 124.956  0.00  0.00    -0.391 OA
ATOM     32  H   LIG A   1      -9.128   0.501 125.022  0.00  0.00    +0.210 HD
ENDBRANCH   1  31
TORSDOF 1
ENDMDL
MODEL 3
REMARK VINA RESULT:      -8.9      3.051      5.210
REMARK  Name = NuBBE_71
REMARK  9 active torsions:
REMARK  status: ('A' for Active; 'I' for Inactive)
REMARK    1  A    between atoms: O_1  and  C_2
REMARK    2  A    between atoms: C_6  and  C_35
REMARK    3  A    between atoms: C_8  and  C_9
REMARK    4  A    between atoms: C_8  and  C_10
REMARK    5  A    between atoms: C_14  and  C_34
REMARK    6  A    between atoms: C_20  and  C_33
REMARK    7  A    between atoms: C_23  and  C_32
REMARK    8  A    between atoms: C_27  and  C_28
REMARK    9  A    between atoms: C_27  and  C_31
REMARK                            x       y       z     vdW  Elec       q    Type
REMARK                         _______ _______ _______ _____ _____    ______ ____
ROOT
ATOM      1  C   LIG A   1      -7.851   3.205 124.626  0.00  0.00    +0.120 C 
ATOM      2  C   LIG A   1      -6.698   4.010 125.215  0.00  0.00    +0.032 C 
ATOM      3  C   LIG A   1      -6.446   3.719 126.693  0.00  0.00    +0.010 C 
ATOM      4  C   LIG A   1      -6.242   2.190 127.036  0.00  0.00    -0.025 C 
ATOM      5  C   LIG A   1      -7.647   1.595 126.620  0.00  0.00    +0.003 C 
ATOM      6  C   LIG A   1      -7.908   1.674 125.028  0.00  0.00    -0.006 C 
ATOM      7  C   LIG A   1      -9.287   1.167 124.531  0.00  0.00    +0.014 C 
ATOM      8  C   LIG A   1      -6.899   0.833 124.198  0.00  0.00    +0.014 C 
ATOM      9  C   LIG A   1      -8.007   0.353 127.441  0.00  0.00    +0.005 C 
ATOM     10  C   LIG A   1      -7.943   0.668 128.999  0.00  0.00    +0.008 C 
ATOM     11  C   LIG A   1      -6.503   0.849 129.566  0.00  0.00    -0.019 C 
ATOM     12  C   LIG A   1      -5.722   1.883 128.553  0.00  0.00    +0.006 C 
ATOM     13  C   LIG A   1      -5.208   3.240 129.100  0.00  0.00    +0.031 C 
ATOM     14  C   LIG A   1      -4.997   3.263 130.578  0.00  0.00    -0.026 C 
ATOM     15  C   LIG A   1      -6.101   2.811 131.134  0.00  0.00    -0.063 C 
ATOM     16  C   LIG A   1      -6.286   1.306 131.192  0.00  0.00    -0.005 C 
ATOM     17  C   LIG A   1      -7.310   0.933 132.330  0.00  0.00    +0.012 C 
ATOM     18  C   LIG A   1      -7.646   2.115 133.312  0.00  0.00    +0.008 C 
ATOM     19  C   LIG A   1      -8.244   3.316 132.541  0.00  0.00    -0.025 C 
ATOM     20  C   LIG A   1      -7.160   3.806 131.575  0.00  0.00    +0.022 C 
ATOM     21  C   LIG A   1      -7.775   4.824 130.584  0.00  0.00    +0.014 C 
ATOM     22  C   LIG A   1      -8.009   6.163 131.312  0.00  0.00    -0.034 C 
ATOM     23  C   LIG A   1      -8.848   7.122 130.431  0.00  0.00    +0.011 C 
ATOM     24  C   LIG A   1      -8.756   5.913 132.663  0.00  0.00    +0.007 C 
ATOM     25  C   LIG A   1      -8.555   4.562 133.428  0.00  0.00    +0.008 C 
ATOM     26  C   LIG A   1      -6.624   6.858 131.448  0.00  0.00    +0.011 C 
ATOM     27  C   LIG A   1      -9.552   2.812 131.895  0.00  0.00    +0.012 C 
ATOM     28  C   LIG A   1      -4.942   0.689 131.769  0.00  0.00    +0.016 C 
ATOM     29  C   LIG A   1      -5.877  -0.587 129.439  0.00  0.00    +0.012 C 
ATOM     30  C   LIG A   1      -4.999   1.742 126.217  0.00  0.00    +0.012 C 
ENDROOT
BRANCH   1  31
ATOM     31  O   LIG A   1      -9.033   3.882 125.087  0.00  0.00    -0.391 OA
ATOM     32  H   LIG A   1      -9.678   3.206 125.353  0.00  0.00    +0.210 HD
ENDBRANCH   1  31
TORSDOF 1
ENDMDL
MODEL 4
REMARK VINA RESULT:      -8.7      5.297      8.533
REMARK  Name = NuBBE_71
REMARK  9 active torsions:
REMARK  status: ('A' for Active; 'I' for Inactive)
REMARK    1  A    between atoms: O_1  and  C_2
REMARK    2  A    between atoms: C_6  and  C_35
REMARK    3  A    between atoms: C_8  and  C_9
REMARK    4  A    between atoms: C_8  and  C_10
REMARK    5  A    between atoms: C_14  and  C_34
REMARK    6  A    between atoms: C_20  and  C_33
REMARK    7  A    between atoms: C_23  and  C_32
REMARK    8  A    between atoms: C_27  and  C_28
REMARK    9  A    between atoms: C_27  and  C_31
REMARK                            x       y       z     vdW  Elec       q    Type
REMARK                         _______ _______ _______ _____ _____    ______ ____
ROOT
ATOM      1  C   LIG A   1      -7.209  -2.291 130.519  0.00  0.00    +0.120 C 
ATOM      2  C   LIG A   1      -6.195  -2.597 129.421  0.00  0.00    +0.032 C 
ATOM      3  C   LIG A   1      -6.268  -1.632 128.240  0.00  0.00    +0.010 C 
ATOM      4  C   LIG A   1      -6.163  -0.104 128.633  0.00  0.00    -0.025 C 
ATOM      5  C   LIG A   1      -7.457   0.068 129.527  0.00  0.00    +0.003 C 
ATOM      6  C   LIG A   1      -7.371  -0.765 130.909  0.00  0.00    -0.006 C 
ATOM      7  C   LIG A   1      -8.621  -0.703 131.826  0.00  0.00    +0.014 C 
ATOM      8  C   LIG A   1      -6.222  -0.292 131.841  0.00  0.00    +0.014 C 
ATOM      9  C   LIG A   1      -8.001   1.500 129.474  0.00  0.00    +0.005 C 
ATOM     10  C   LIG A   1      -8.265   1.947 127.972  0.00  0.00    +0.008 C 
ATOM     11  C   LIG A   1      -6.976   2.213 127.136  0.00  0.00    -0.019 C 
ATOM     12  C   LIG A   1      -5.982   0.924 127.378  0.00  0.00    +0.006 C 
ATOM     13  C   LIG A   1      -5.577   0.039 126.170  0.00  0.00    +0.031 C 
ATOM     14  C   LIG A   1      -5.686   0.725 124.847  0.00  0.00    -0.026 C 
ATOM     15  C   LIG A   1      -6.889   1.253 124.782  0.00  0.00    -0.063 C 
ATOM     16  C   LIG A   1      -7.104   2.584 125.480  0.00  0.00    -0.005 C 
ATOM     17  C   LIG A   1      -8.351   3.321 124.861  0.00  0.00    +0.012 C 
ATOM     18  C   LIG A   1      -8.871   2.695 123.515  0.00  0.00    +0.008 C 
ATOM     19  C   LIG A   1      -9.274   1.215 123.717  0.00  0.00    -0.025 C 
ATOM     20  C   LIG A   1      -8.003   0.461 124.121  0.00  0.00    +0.022 C 
ATOM     21  C   LIG A   1      -8.378  -0.962 124.604  0.00  0.00    +0.014 C 
ATOM     22  C   LIG A   1      -8.742  -1.830 123.383  0.00  0.00    -0.034 C 
ATOM     23  C   LIG A   1      -9.361  -3.176 123.839  0.00  0.00    +0.011 C 
ATOM     24  C   LIG A   1      -9.763  -1.073 122.473  0.00  0.00    +0.007 C 
ATOM     25  C   LIG A   1      -9.748   0.492 122.418  0.00  0.00    +0.008 C 
ATOM     26  C   LIG A   1      -7.407  -2.222 122.686  0.00  0.00    +0.011 C 
ATOM     27  C   LIG A   1     -10.422   1.212 124.749  0.00  0.00    +0.012 C 
ATOM     28  C   LIG A   1      -5.922   3.546 125.033  0.00  0.00    +0.016 C 
ATOM     29  C   LIG A   1      -6.358   3.489 127.814  0.00  0.00    +0.012 C 
ATOM     30  C   LIG A   1      -4.781   0.053 129.326  0.00  0.00    +0.012 C 
ENDROOT
BRANCH   1  31
ATOM     31  O   LIG A   1      -8.451  -2.808 130.013  0.00  0.00    -0.391 OA
ATOM     32  H   LIG A   1      -9.070  -2.064 129.928  0.00  0.00    +0.210 HD
ENDBRANCH   1  31
TORSDOF 1
ENDMDL
MODEL 5
REMARK VINA RESULT:      -8.7      4.204      7.446
REMARK  Name = NuBBE_71
REMARK  9 active torsions:
REMARK  status: ('A' for Active; 'I' for Inactive)
REMARK    1  A    between atoms: O_1  and  C_2
REMARK    2  A    between atoms: C_6  and  C_35
REMARK    3  A    between atoms: C_8  and  C_9
REMARK    4  A    between atoms: C_8  and  C_10
REMARK    5  A    between atoms: C_14  and  C_34
REMARK    6  A    between atoms: C_20  and  C_33
REMARK    7  A    between atoms: C_23  and  C_32
REMARK    8  A    between atoms: C_27  and  C_28
REMARK    9  A    between atoms: C_27  and  C_31
REMARK                            x       y       z     vdW  Elec       q    Type
REMARK                         _______ _______ _______ _____ _____    ______ ____
ROOT
ATOM      1  C   LIG A   1      -4.181  -2.650 131.498  0.00  0.00    +0.120 C 
ATOM      2  C   LIG A   1      -5.187  -1.670 132.090  0.00  0.00    +0.032 C 
ATOM      3  C   LIG A   1      -5.823  -0.749 131.051  0.00  0.00    +0.010 C 
ATOM      4  C   LIG A   1      -6.486  -1.499 129.828  0.00  0.00    -0.025 C 
ATOM      5  C   LIG A   1      -5.226  -2.212 129.190  0.00  0.00    +0.003 C 
ATOM      6  C   LIG A   1      -4.612  -3.358 130.148  0.00  0.00    -0.006 C 
ATOM      7  C   LIG A   1      -3.336  -4.074 129.632  0.00  0.00    +0.014 C 
ATOM      8  C   LIG A   1      -5.596  -4.531 130.412  0.00  0.00    +0.014 C 
ATOM      9  C   LIG A   1      -5.388  -2.417 127.680  0.00  0.00    +0.005 C 
ATOM     10  C   LIG A   1      -5.708  -1.038 126.956  0.00  0.00    +0.008 C 
ATOM     11  C   LIG A   1      -7.141  -0.483 127.219  0.00  0.00    -0.019 C 
ATOM     12  C   LIG A   1      -7.387  -0.558 128.843  0.00  0.00    +0.006 C 
ATOM     13  C   LIG A   1      -7.639   0.752 129.635  0.00  0.00    +0.031 C 
ATOM     14  C   LIG A   1      -8.156   1.879 128.803  0.00  0.00    -0.026 C 
ATOM     15  C   LIG A   1      -7.355   1.992 127.764  0.00  0.00    -0.063 C 
ATOM     16  C   LIG A   1      -7.583   1.042 126.603  0.00  0.00    -0.005 C 
ATOM     17  C   LIG A   1      -6.966   1.645 125.285  0.00  0.00    +0.012 C 
ATOM     18  C   LIG A   1      -6.560   3.161 125.394  0.00  0.00    +0.008 C 
ATOM     19  C   LIG A   1      -5.518   3.370 126.519  0.00  0.00    -0.025 C 
ATOM     20  C   LIG A   1      -6.199   2.974 127.833  0.00  0.00    +0.022 C 
ATOM     21  C   LIG A   1      -5.140   2.896 128.960  0.00  0.00    +0.014 C 
ATOM     22  C   LIG A   1      -4.733   4.325 129.372  0.00  0.00    -0.034 C 
ATOM     23  C   LIG A   1      -3.503   4.290 130.314  0.00  0.00    +0.011 C 
ATOM     24  C   LIG A   1      -4.392   5.171 128.103  0.00  0.00    +0.007 C 
ATOM     25  C   LIG A   1      -5.098   4.857 126.742  0.00  0.00    +0.008 C 
ATOM     26  C   LIG A   1      -5.887   4.894 130.248  0.00  0.00    +0.011 C 
ATOM     27  C   LIG A   1      -4.275   2.544 126.122  0.00  0.00    +0.012 C 
ATOM     28  C   LIG A   1      -9.134   1.076 126.264  0.00  0.00    +0.016 C 
ATOM     29  C   LIG A   1      -8.073  -1.522 126.496  0.00  0.00    +0.012 C 
ATOM     30  C   LIG A   1      -7.591  -2.402 130.442  0.00  0.00    +0.012 C 
ENDROOT
BRANCH   1  31
ATOM     31  O   LIG A   1      -2.995  -1.864 131.288  0.00  0.00    -0.391 OA
ATOM     32  H   LIG A   1      -2.841  -1.340 132.091  0.00  0.00    +0.210 HD
ENDBRANCH   1  31
TORSDOF 1
ENDMDL
MODEL 6
REMARK VINA RESULT:      -8.6      2.264      6.405
REMARK  Name = NuBBE_71
REMARK  9 active torsions:
REMARK  status: ('A' for Active; 'I' for Inactive)
REMARK    1  A    between atoms: O_1  and  C_2
REMARK    2  A    between atoms: C_6  and  C_35
REMARK    3  A    between atoms: C_8  and  C_9
REMARK    4  A    between atoms: C_8  and  C_10
REMARK    5  A    between atoms: C_14  and  C_34
REMARK    6  A    between atoms: C_20  and  C_33
REMARK    7  A    between atoms: C_23  and  C_32
REMARK    8  A    between atoms: C_27  and  C_28
REMARK    9  A    between atoms: C_27  and  C_31
REMARK                            x       y       z     vdW  Elec       q    Type
REMARK                         _______ _______ _______ _____ _____    ______ ____
ROOT
ATOM      1  C   LIG A   1     -10.760   4.945 130.336  0.00  0.00    +0.120 C 
ATOM      2  C   LIG A   1     -10.202   3.535 130.492  0.00  0.00    +0.032 C 
ATOM      3  C   LIG A   1      -8.676   3.483 130.502  0.00  0.00    +0.010 C 
ATOM      4  C   LIG A   1      -7.994   4.433 131.566  0.00  0.00    -0.025 C 
ATOM      5  C   LIG A   1      -8.464   5.853 131.050  0.00  0.00    +0.003 C 
ATOM      6  C   LIG A   1     -10.057   6.071 131.199  0.00  0.00    -0.006 C 
ATOM      7  C   LIG A   1     -10.620   7.414 130.664  0.00  0.00    +0.014 C 
ATOM      8  C   LIG A   1     -10.546   6.042 132.674  0.00  0.00    +0.014 C 
ATOM      9  C   LIG A   1      -7.457   6.952 131.406  0.00  0.00    +0.005 C 
ATOM     10  C   LIG A   1      -6.007   6.585 130.867  0.00  0.00    +0.008 C 
ATOM     11  C   LIG A   1      -5.298   5.432 131.641  0.00  0.00    -0.019 C 
ATOM     12  C   LIG A   1      -6.390   4.208 131.771  0.00  0.00    +0.006 C 
ATOM     13  C   LIG A   1      -6.076   2.837 131.117  0.00  0.00    +0.031 C 
ATOM     14  C   LIG A   1      -4.620   2.586 130.893  0.00  0.00    -0.026 C 
ATOM     15  C   LIG A   1      -4.139   3.636 130.263  0.00  0.00    -0.063 C 
ATOM     16  C   LIG A   1      -3.791   4.853 131.102  0.00  0.00    -0.005 C 
ATOM     17  C   LIG A   1      -2.751   5.755 130.336  0.00  0.00    +0.012 C 
ATOM     18  C   LIG A   1      -2.095   5.067 129.083  0.00  0.00    +0.008 C 
ATOM     19  C   LIG A   1      -3.175   4.651 128.057  0.00  0.00    -0.025 C 
ATOM     20  C   LIG A   1      -4.065   3.612 128.747  0.00  0.00    +0.022 C 
ATOM     21  C   LIG A   1      -5.323   3.354 127.881  0.00  0.00    +0.014 C 
ATOM     22  C   LIG A   1      -4.931   2.497 126.661  0.00  0.00    -0.034 C 
ATOM     23  C   LIG A   1      -6.101   2.428 125.646  0.00  0.00    +0.011 C 
ATOM     24  C   LIG A   1      -3.673   3.108 125.961  0.00  0.00    +0.007 C 
ATOM     25  C   LIG A   1      -2.621   3.904 126.803  0.00  0.00    +0.008 C 
ATOM     26  C   LIG A   1      -4.756   1.036 127.165  0.00  0.00    +0.011 C 
ATOM     27  C   LIG A   1      -3.873   5.952 127.607  0.00  0.00    +0.012 C 
ATOM     28  C   LIG A   1      -2.919   4.346 132.328  0.00  0.00    +0.016 C 
ATOM     29  C   LIG A   1      -5.035   6.054 133.060  0.00  0.00    +0.012 C 
ATOM     30  C   LIG A   1      -8.522   3.957 132.948  0.00  0.00    +0.012 C 
ENDROOT
BRANCH   1  31
ATOM     31  O   LIG A   1     -10.618   5.234 128.935  0.00  0.00    -0.391 OA
ATOM     32  H   LIG A   1     -11.267   5.919 128.705  0.00  0.00    +0.210 HD
ENDBRANCH   1  31
TORSDOF 1
ENDMDL
MODEL 7
REMARK VINA RESULT:      -8.6      3.419      6.567
REMARK  Name = NuBBE_71
REMARK  9 active torsions:
REMARK  status: ('A' for Active; 'I' for Inactive)
REMARK    1  A    between atoms: O_1  and  C_2
REMARK    2  A    between atoms: C_6  and  C_35
REMARK    3  A    between atoms: C_8  and  C_9
REMARK    4  A    between atoms: C_8  and  C_10
REMARK    5  A    between atoms: C_14  and  C_34
REMARK    6  A    between atoms: C_20  and  C_33
REMARK    7  A    between atoms: C_23  and  C_32
REMARK    8  A    between atoms: C_27  and  C_28
REMARK    9  A    between atoms: C_27  and  C_31
REMARK                            x       y       z     vdW  Elec       q    Type
REMARK                         _______ _______ _______ _____ _____    ______ ____
ROOT
ATOM      1  C   LIG A   1      -9.581   2.240 132.424  0.00  0.00    +0.120 C 
ATOM      2  C   LIG A   1      -8.967   0.949 131.894  0.00  0.00    +0.032 C 
ATOM      3  C   LIG A   1      -7.974   1.171 130.755  0.00  0.00    +0.010 C 
ATOM      4  C   LIG A   1      -6.819   2.199 131.083  0.00  0.00    -0.025 C 
ATOM      5  C   LIG A   1      -7.650   3.525 131.315  0.00  0.00    +0.003 C 
ATOM      6  C   LIG A   1      -8.582   3.451 132.632  0.00  0.00    -0.006 C 
ATOM      7  C   LIG A   1      -9.480   4.685 132.909  0.00  0.00    +0.014 C 
ATOM      8  C   LIG A   1      -7.772   3.297 133.949  0.00  0.00    +0.014 C 
ATOM      9  C   LIG A   1      -6.840   4.777 130.963  0.00  0.00    +0.005 C 
ATOM     10  C   LIG A   1      -6.283   4.689 129.476  0.00  0.00    +0.008 C 
ATOM     11  C   LIG A   1      -5.127   3.661 129.275  0.00  0.00    -0.019 C 
ATOM     12  C   LIG A   1      -5.611   2.259 129.986  0.00  0.00    +0.006 C 
ATOM     13  C   LIG A   1      -5.774   0.984 129.118  0.00  0.00    +0.031 C 
ATOM     14  C   LIG A   1      -4.984   1.004 127.850  0.00  0.00    -0.026 C 
ATOM     15  C   LIG A   1      -5.256   2.139 127.243  0.00  0.00    -0.063 C 
ATOM     16  C   LIG A   1      -4.513   3.375 127.714  0.00  0.00    -0.005 C 
ATOM     17  C   LIG A   1      -4.514   4.469 126.579  0.00  0.00    +0.012 C 
ATOM     18  C   LIG A   1      -4.978   3.941 125.172  0.00  0.00    +0.008 C 
ATOM     19  C   LIG A   1      -6.413   3.366 125.247  0.00  0.00    -0.025 C 
ATOM     20  C   LIG A   1      -6.359   2.167 126.200  0.00  0.00    +0.022 C 
ATOM     21  C   LIG A   1      -7.800   1.711 126.536  0.00  0.00    +0.014 C 
ATOM     22  C   LIG A   1      -8.393   0.970 125.321  0.00  0.00    -0.034 C 
ATOM     23  C   LIG A   1      -9.909   0.719 125.523  0.00  0.00    +0.011 C 
ATOM     24  C   LIG A   1      -8.176   1.813 124.022  0.00  0.00    +0.007 C 
ATOM     25  C   LIG A   1      -6.937   2.763 123.906  0.00  0.00    +0.008 C 
ATOM     26  C   LIG A   1      -7.756  -0.449 125.294  0.00  0.00    +0.011 C 
ATOM     27  C   LIG A   1      -7.329   4.532 125.674  0.00  0.00    +0.012 C 
ATOM     28  C   LIG A   1      -2.971   3.001 127.782  0.00  0.00    +0.016 C 
ATOM     29  C   LIG A   1      -3.939   4.284 130.094  0.00  0.00    +0.012 C 
ATOM     30  C   LIG A   1      -6.062   1.601 132.301  0.00  0.00    +0.012 C 
ENDROOT
BRANCH   1  31
ATOM     31  O   LIG A   1     -10.583   2.586 131.452  0.00  0.00    -0.391 OA
ATOM     32  H   LIG A   1     -10.247   2.333 130.576  0.00  0.00    +0.210 HD
ENDBRANCH   1  31
TORSDOF 1
ENDMDL
MODEL 8
REMARK VINA RESULT:      -8.5      2.465      4.712
REMARK  Name = NuBBE_71
REMARK  9 active torsions:
REMARK  status: ('A' for Active; 'I' for Inactive)
REMARK    1  A    between atoms: O_1  and  C_2
REMARK    2  A    between atoms: C_6  and  C_35
REMARK    3  A    between atoms: C_8  and  C_9
REMARK    4  A    between atoms: C_8  and  C_10
REMARK    5  A    between atoms: C_14  and  C_34
REMARK    6  A    between atoms: C_20  and  C_33
REMARK    7  A    between atoms: C_23  and  C_32
REMARK    8  A    between atoms: C_27  and  C_28
REMARK    9  A    between atoms: C_27  and  C_31
REMARK                            x       y       z     vdW  Elec       q    Type
REMARK                         _______ _______ _______ _____ _____    ______ ____
ROOT
ATOM      1  C   LIG A   1      -1.959   8.983 135.175  0.00  0.00    +0.120 C 
ATOM      2  C   LIG A   1      -1.756   7.498 135.456  0.00  0.00    +0.032 C 
ATOM      3  C   LIG A   1      -2.367   6.589 134.392  0.00  0.00    +0.010 C 
ATOM      4  C   LIG A   1      -1.906   6.906 132.914  0.00  0.00    -0.025 C 
ATOM      5  C   LIG A   1      -2.467   8.374 132.730  0.00  0.00    +0.003 C 
ATOM      6  C   LIG A   1      -1.722   9.446 133.680  0.00  0.00    -0.006 C 
ATOM      7  C   LIG A   1      -2.245  10.905 133.612  0.00  0.00    +0.014 C 
ATOM      8  C   LIG A   1      -0.207   9.596 133.367  0.00  0.00    +0.014 C 
ATOM      9  C   LIG A   1      -2.799   8.679 131.266  0.00  0.00    +0.005 C 
ATOM     10  C   LIG A   1      -3.800   7.593 130.676  0.00  0.00    +0.008 C 
ATOM     11  C   LIG A   1      -3.165   6.190 130.430  0.00  0.00    -0.019 C 
ATOM     12  C   LIG A   1      -2.342   5.796 131.798  0.00  0.00    +0.006 C 
ATOM     13  C   LIG A   1      -2.763   4.539 132.603  0.00  0.00    +0.031 C 
ATOM     14  C   LIG A   1      -3.511   3.524 131.803  0.00  0.00    -0.026 C 
ATOM     15  C   LIG A   1      -4.488   4.156 131.191  0.00  0.00    -0.063 C 
ATOM     16  C   LIG A   1      -4.145   4.898 129.912  0.00  0.00    -0.005 C 
ATOM     17  C   LIG A   1      -5.443   5.102 129.043  0.00  0.00    +0.012 C 
ATOM     18  C   LIG A   1      -6.680   4.253 129.516  0.00  0.00    +0.008 C 
ATOM     19  C   LIG A   1      -7.055   4.598 130.978  0.00  0.00    -0.025 C 
ATOM     20  C   LIG A   1      -5.857   4.201 131.847  0.00  0.00    +0.022 C 
ATOM     21  C   LIG A   1      -6.049   4.765 133.277  0.00  0.00    +0.014 C 
ATOM     22  C   LIG A   1      -7.112   3.926 134.013  0.00  0.00    -0.034 C 
ATOM     23  C   LIG A   1      -7.512   4.604 135.348  0.00  0.00    +0.011 C 
ATOM     24  C   LIG A   1      -8.381   3.762 133.114  0.00  0.00    +0.007 C 
ATOM     25  C   LIG A   1      -8.238   3.759 131.555  0.00  0.00    +0.008 C 
ATOM     26  C   LIG A   1      -6.431   2.592 134.434  0.00  0.00    +0.011 C 
ATOM     27  C   LIG A   1      -7.438   6.093 130.989  0.00  0.00    +0.012 C 
ATOM     28  C   LIG A   1      -3.313   3.901 128.998  0.00  0.00    +0.016 C 
ATOM     29  C   LIG A   1      -2.149   6.451 129.260  0.00  0.00    +0.012 C 
ATOM     30  C   LIG A   1      -0.364   6.718 132.910  0.00  0.00    +0.012 C 
ENDROOT
BRANCH   1  31
ATOM     31  O   LIG A   1      -3.320   9.237 135.563  0.00  0.00    -0.391 OA
ATOM     32  H   LIG A   1      -3.898   8.875 134.872  0.00  0.00    +0.210 HD
ENDBRANCH   1  31
TORSDOF 1
ENDMDL
MODEL 9
REMARK VINA RESULT:      -8.3      3.301      6.394
REMARK  Name = NuBBE_71
REMARK  9 active torsions:
REMARK  status: ('A' for Active; 'I' for Inactive)
REMARK    1  A    between atoms: O_1  and  C_2
REMARK    2  A    between atoms: C_6  and  C_35
REMARK    3  A    between atoms: C_8  and  C_9
REMARK    4  A    between atoms: C_8  and  C_10
REMARK    5  A    between atoms: C_14  and  C_34
REMARK    6  A    between atoms: C_20  and  C_33
REMARK    7  A    between atoms: C_23  and  C_32
REMARK    8  A    between atoms: C_27  and  C_28
REMARK    9  A    between atoms: C_27  and  C_31
REMARK                            x       y       z     vdW  Elec       q    Type
REMARK                         _______ _______ _______ _____ _____    ______ ____
ROOT
ATOM      1  C   LIG A   1      -9.179   3.598 133.142  0.00  0.00    +0.120 C 
ATOM      2  C   LIG A   1      -8.002   2.716 133.545  0.00  0.00    +0.032 C 
ATOM      3  C   LIG A   1      -7.102   2.331 132.373  0.00  0.00    +0.010 C 
ATOM      4  C   LIG A   1      -6.569   3.554 131.526  0.00  0.00    -0.025 C 
ATOM      5  C   LIG A   1      -7.923   4.150 130.968  0.00  0.00    +0.003 C 
ATOM      6  C   LIG A   1      -8.852   4.774 132.132  0.00  0.00    -0.006 C 
ATOM      7  C   LIG A   1     -10.230   5.331 131.688  0.00  0.00    +0.014 C 
ATOM      8  C   LIG A   1      -8.198   5.980 132.860  0.00  0.00    +0.014 C 
ATOM      9  C   LIG A   1      -7.725   4.856 129.622  0.00  0.00    +0.005 C 
ATOM     10  C   LIG A   1      -7.039   3.881 128.570  0.00  0.00    +0.008 C 
ATOM     11  C   LIG A   1      -5.532   3.586 128.843  0.00  0.00    -0.019 C 
ATOM     12  C   LIG A   1      -5.409   3.189 130.435  0.00  0.00    +0.006 C 
ATOM     13  C   LIG A   1      -4.896   1.780 130.829  0.00  0.00    +0.031 C 
ATOM     14  C   LIG A   1      -4.073   1.113 129.775  0.00  0.00    -0.026 C 
ATOM     15  C   LIG A   1      -4.759   1.171 128.654  0.00  0.00    -0.063 C 
ATOM     16  C   LIG A   1      -4.699   2.468 127.867  0.00  0.00    -0.005 C 
ATOM     17  C   LIG A   1      -5.072   2.201 126.360  0.00  0.00    +0.012 C 
ATOM     18  C   LIG A   1      -5.106   0.680 125.960  0.00  0.00    +0.008 C 
ATOM     19  C   LIG A   1      -6.132  -0.092 126.824  0.00  0.00    -0.025 C 
ATOM     20  C   LIG A   1      -5.646  -0.002 128.274  0.00  0.00    +0.022 C 
ATOM     21  C   LIG A   1      -6.758  -0.513 129.223  0.00  0.00    +0.014 C 
ATOM     22  C   LIG A   1      -6.830  -2.051 129.136  0.00  0.00    -0.034 C 
ATOM     23  C   LIG A   1      -8.086  -2.579 129.873  0.00  0.00    +0.011 C 
ATOM     24  C   LIG A   1      -6.881  -2.499 127.639  0.00  0.00    +0.007 C 
ATOM     25  C   LIG A   1      -6.192  -1.625 126.538  0.00  0.00    +0.008 C 
ATOM     26  C   LIG A   1      -5.627  -2.613 129.947  0.00  0.00    +0.011 C 
ATOM     27  C   LIG A   1      -7.511   0.535 126.529  0.00  0.00    +0.012 C 
ATOM     28  C   LIG A   1      -3.168   2.871 127.741  0.00  0.00    +0.016 C 
ATOM     29  C   LIG A   1      -4.838   4.974 128.591  0.00  0.00    +0.012 C 
ATOM     30  C   LIG A   1      -5.753   4.425 132.521  0.00  0.00    +0.012 C 
ENDROOT
BRANCH   1  31
ATOM     31  O   LIG A   1     -10.124   2.689 132.554  0.00  0.00    -0.391 OA
ATOM     32  H   LIG A   1     -10.994   3.122 132.556  0.00  0.00    +0.210 HD
ENDBRANCH   1  31
TORSDOF 1
ENDMDL
