MODEL 1
REMARK VINA RESULT:      -9.4      0.000      0.000
REMARK  Name = NuBBE_2428
REMARK  11 active torsions:
REMARK  status: ('A' for Active; 'I' for Inactive)
REMARK    1  A    between atoms: C_10  and  C_15
REMARK    2  A    between atoms: C_10  and  C_16
REMARK    3  A    between atoms: C_17  and  C_35
REMARK    4  A    between atoms: C_18  and  C_34
REMARK    5  A    between atoms: C_21  and  C_25
REMARK    6  A    between atoms: C_25  and  C_27
REMARK    7  A    between atoms: C_25  and  C_33
REMARK    8  A    between atoms: C_27  and  C_28
REMARK    9  A    between atoms: C_28  and  C_29
REMARK   10  A    between atoms: C_30  and  C_31
REMARK   11  A    between atoms: C_30  and  C_32
REMARK                            x       y       z     vdW  Elec       q    Type
REMARK                         _______ _______ _______ _____ _____    ______ ____
ROOT
ATOM      1  C   LIG A   1      -7.158  -2.484 128.688  0.00  0.00    -0.019 C 
ATOM      2  C   LIG A   1      -7.657  -2.401 127.225  0.00  0.00    -0.019 C 
ATOM      3  C   LIG A   1      -7.843  -1.237 128.186  0.00  0.00    +0.015 C 
ATOM      4  C   LIG A   1      -6.679  -2.093 126.078  0.00  0.00    +0.002 C 
ATOM      5  C   LIG A   1      -5.285  -2.632 126.437  0.00  0.00    +0.005 C 
ATOM      6  C   LIG A   1      -4.809  -2.025 127.759  0.00  0.00    +0.005 C 
ATOM      7  C   LIG A   1      -5.648  -2.539 128.941  0.00  0.00    +0.009 C 
ATOM      8  C   LIG A   1      -5.269  -1.924 130.327  0.00  0.00    +0.027 C 
ATOM      9  C   LIG A   1      -6.189  -2.530 131.402  0.00  0.00    +0.139 C 
ATOM     10  O   LIG A   1      -5.767  -2.823 132.535  0.00  0.00    -0.297 OA
ATOM     11  C   LIG A   1      -7.670  -2.631 131.116  0.00  0.00    +0.075 C 
ATOM     12  C   LIG A   1      -7.915  -3.254 129.756  0.00  0.00    +0.015 C 
ATOM     13  C   LIG A   1      -3.807  -2.273 130.678  0.00  0.00    +0.019 C 
ATOM     14  C   LIG A   1      -5.423  -0.395 130.395  0.00  0.00    +0.019 C 
ATOM     15  C   LIG A   1      -7.199  -2.504 124.641  0.00  0.00    -0.023 C 
ATOM     16  C   LIG A   1      -8.722  -2.097 124.436  0.00  0.00    -0.023 C 
ATOM     17  C   LIG A   1      -9.579  -2.354 125.701  0.00  0.00    +0.008 C 
ATOM     18  C   LIG A   1      -8.892  -3.150 126.797  0.00  0.00    +0.008 C 
ATOM     19  C   LIG A   1      -8.685  -0.585 123.899  0.00  0.00    -0.002 C 
ATOM     20  C   LIG A   1      -7.195  -0.294 123.618  0.00  0.00    +0.005 C 
ATOM     21  C   LIG A   1      -6.500  -1.643 123.562  0.00  0.00    +0.008 C 
ATOM     22  C   LIG A   1      -9.384  -2.922 123.290  0.00  0.00    +0.012 C 
ATOM     23  C   LIG A   1      -6.870  -3.983 124.323  0.00  0.00    +0.012 C 
ENDROOT
BRANCH  19  24
ATOM     24  C   LIG A   1      -9.367   0.570 124.709  0.00  0.00    -0.010 C 
ATOM     25  C   LIG A   1     -10.468   1.283 123.897  0.00  0.00    +0.008 C 
BRANCH  24  26
ATOM     26  C   LIG A   1      -8.325   1.621 125.193  0.00  0.00    +0.007 C 
BRANCH  26  27
ATOM     27  C   LIG A   1      -8.413   3.004 124.522  0.00  0.00    +0.027 C 
BRANCH  27  28
ATOM     28  C   LIG A   1      -7.312   3.236 123.525  0.00  0.00    -0.028 C 
ATOM     29  C   LIG A   1      -7.414   3.375 122.188  0.00  0.00    -0.080 C 
ATOM     30  C   LIG A   1      -8.691   3.328 121.395  0.00  0.00    +0.038 C 
ATOM     31  C   LIG A   1      -6.180   3.598 121.354  0.00  0.00    +0.038 C 
ENDBRANCH  27  28
ENDBRANCH  26  27
ENDBRANCH  24  26
ENDBRANCH  19  24
TORSDOF 4
ENDMDL
MODEL 2
REMARK VINA RESULT:      -9.1      1.425      2.155
REMARK  Name = NuBBE_2428
REMARK  11 active torsions:
REMARK  status: ('A' for Active; 'I' for Inactive)
REMARK    1  A    between atoms: C_10  and  C_15
REMARK    2  A    between atoms: C_10  and  C_16
REMARK    3  A    between atoms: C_17  and  C_35
REMARK    4  A    between atoms: C_18  and  C_34
REMARK    5  A    between atoms: C_21  and  C_25
REMARK    6  A    between atoms: C_25  and  C_27
REMARK    7  A    between atoms: C_25  and  C_33
REMARK    8  A    between atoms: C_27  and  C_28
REMARK    9  A    between atoms: C_28  and  C_29
REMARK   10  A    between atoms: C_30  and  C_31
REMARK   11  A    between atoms: C_30  and  C_32
REMARK                            x       y       z     vdW  Elec       q    Type
REMARK                         _______ _______ _______ _____ _____    ______ ____
ROOT
ATOM      1  C   LIG A   1      -7.085  -2.607 128.826  0.00  0.00    -0.019 C 
ATOM      2  C   LIG A   1      -7.605  -2.511 127.371  0.00  0.00    -0.019 C 
ATOM      3  C   LIG A   1      -7.878  -1.404 128.379  0.00  0.00    +0.015 C 
ATOM      4  C   LIG A   1      -6.669  -2.078 126.230  0.00  0.00    +0.002 C 
ATOM      5  C   LIG A   1      -5.230  -2.510 126.557  0.00  0.00    +0.005 C 
ATOM      6  C   LIG A   1      -4.793  -1.917 127.898  0.00  0.00    +0.005 C 
ATOM      7  C   LIG A   1      -5.573  -2.545 129.065  0.00  0.00    +0.009 C 
ATOM      8  C   LIG A   1      -5.232  -1.955 130.472  0.00  0.00    +0.027 C 
ATOM      9  C   LIG A   1      -6.086  -2.676 131.529  0.00  0.00    +0.139 C 
ATOM     10  O   LIG A   1      -5.628  -2.976 132.646  0.00  0.00    -0.297 OA
ATOM     11  C   LIG A   1      -7.556  -2.891 131.250  0.00  0.00    +0.075 C 
ATOM     12  C   LIG A   1      -7.763  -3.479 129.868  0.00  0.00    +0.015 C 
ATOM     13  C   LIG A   1      -3.742  -2.192 130.798  0.00  0.00    +0.019 C 
ATOM     14  C   LIG A   1      -5.513  -0.448 130.601  0.00  0.00    +0.019 C 
ATOM     15  C   LIG A   1      -7.168  -2.475 124.782  0.00  0.00    -0.023 C 
ATOM     16  C   LIG A   1      -8.723  -2.190 124.604  0.00  0.00    -0.023 C 
ATOM     17  C   LIG A   1      -9.541  -2.568 125.864  0.00  0.00    +0.008 C 
ATOM     18  C   LIG A   1      -8.777  -3.344 126.923  0.00  0.00    +0.008 C 
ATOM     19  C   LIG A   1      -8.818  -0.661 124.127  0.00  0.00    -0.002 C 
ATOM     20  C   LIG A   1      -7.361  -0.235 123.847  0.00  0.00    +0.005 C 
ATOM     21  C   LIG A   1      -6.556  -1.517 123.732  0.00  0.00    +0.008 C 
ATOM     22  C   LIG A   1      -9.325  -3.024 123.432  0.00  0.00    +0.012 C 
ATOM     23  C   LIG A   1      -6.720  -3.907 124.403  0.00  0.00    +0.012 C 
ENDROOT
BRANCH  19  24
ATOM     24  C   LIG A   1      -9.586   0.400 124.987  0.00  0.00    -0.010 C 
ATOM     25  C   LIG A   1      -9.958   1.656 124.172  0.00  0.00    +0.008 C 
BRANCH  24  26
ATOM     26  C   LIG A   1      -8.762   0.826 126.237  0.00  0.00    +0.007 C 
BRANCH  26  27
ATOM     27  C   LIG A   1      -8.129   2.229 126.173  0.00  0.00    +0.027 C 
BRANCH  27  28
ATOM     28  C   LIG A   1      -7.094   2.447 127.240  0.00  0.00    -0.028 C 
ATOM     29  C   LIG A   1      -5.804   2.055 127.243  0.00  0.00    -0.080 C 
ATOM     30  C   LIG A   1      -5.114   1.297 126.143  0.00  0.00    +0.038 C 
ATOM     31  C   LIG A   1      -4.920   2.370 128.422  0.00  0.00    +0.038 C 
ENDBRANCH  27  28
ENDBRANCH  26  27
ENDBRANCH  24  26
ENDBRANCH  19  24
TORSDOF 4
ENDMDL
MODEL 3
REMARK VINA RESULT:      -8.8      3.048      6.973
REMARK  Name = NuBBE_2428
REMARK  11 active torsions:
REMARK  status: ('A' for Active; 'I' for Inactive)
REMARK    1  A    between atoms: C_10  and  C_15
REMARK    2  A    between atoms: C_10  and  C_16
REMARK    3  A    between atoms: C_17  and  C_35
REMARK    4  A    between atoms: C_18  and  C_34
REMARK    5  A    between atoms: C_21  and  C_25
REMARK    6  A    between atoms: C_25  and  C_27
REMARK    7  A    between atoms: C_25  and  C_33
REMARK    8  A    between atoms: C_27  and  C_28
REMARK    9  A    between atoms: C_28  and  C_29
REMARK   10  A    between atoms: C_30  and  C_31
REMARK   11  A    between atoms: C_30  and  C_32
REMARK                            x       y       z     vdW  Elec       q    Type
REMARK                         _______ _______ _______ _____ _____    ______ ____
ROOT
ATOM      1  C   LIG A   1      -6.559  -2.081 126.673  0.00  0.00    -0.019 C 
ATOM      2  C   LIG A   1      -6.169  -2.125 128.170  0.00  0.00    -0.019 C 
ATOM      3  C   LIG A   1      -6.702  -0.851 127.533  0.00  0.00    +0.015 C 
ATOM      4  C   LIG A   1      -7.124  -2.730 129.214  0.00  0.00    +0.002 C 
ATOM      5  C   LIG A   1      -7.965  -3.835 128.557  0.00  0.00    +0.005 C 
ATOM      6  C   LIG A   1      -8.729  -3.274 127.356  0.00  0.00    +0.005 C 
ATOM      7  C   LIG A   1      -7.770  -2.899 126.212  0.00  0.00    +0.009 C 
ATOM      8  C   LIG A   1      -8.460  -2.260 124.964  0.00  0.00    +0.027 C 
ATOM      9  C   LIG A   1      -7.382  -1.942 123.914  0.00  0.00    +0.139 C 
ATOM     10  O   LIG A   1      -7.582  -2.109 122.698  0.00  0.00    -0.297 OA
ATOM     11  C   LIG A   1      -6.104  -1.272 124.368  0.00  0.00    +0.075 C 
ATOM     12  C   LIG A   1      -5.519  -1.985 125.571  0.00  0.00    +0.015 C 
ATOM     13  C   LIG A   1      -9.466  -3.256 124.348  0.00  0.00    +0.019 C 
ATOM     14  C   LIG A   1      -9.211  -0.952 125.267  0.00  0.00    +0.019 C 
ATOM     15  C   LIG A   1      -6.434  -3.142 130.577  0.00  0.00    -0.023 C 
ATOM     16  C   LIG A   1      -5.414  -2.028 131.074  0.00  0.00    -0.023 C 
ATOM     17  C   LIG A   1      -4.590  -1.420 129.911  0.00  0.00    +0.008 C 
ATOM     18  C   LIG A   1      -4.719  -2.140 128.581  0.00  0.00    +0.008 C 
ATOM     19  C   LIG A   1      -6.300  -1.000 131.930  0.00  0.00    -0.002 C 
ATOM     20  C   LIG A   1      -7.682  -1.674 132.065  0.00  0.00    +0.005 C 
ATOM     21  C   LIG A   1      -7.478  -3.139 131.719  0.00  0.00    +0.008 C 
ATOM     22  C   LIG A   1      -4.377  -2.612 132.081  0.00  0.00    +0.012 C 
ATOM     23  C   LIG A   1      -5.850  -4.574 130.503  0.00  0.00    +0.012 C 
ENDROOT
BRANCH  19  24
ATOM     24  C   LIG A   1      -6.418   0.504 131.504  0.00  0.00    -0.010 C 
ATOM     25  C   LIG A   1      -6.384   1.459 132.714  0.00  0.00    +0.008 C 
BRANCH  24  26
ATOM     26  C   LIG A   1      -7.715   0.763 130.683  0.00  0.00    +0.007 C 
BRANCH  26  27
ATOM     27  C   LIG A   1      -7.724   2.052 129.840  0.00  0.00    +0.027 C 
BRANCH  27  28
ATOM     28  C   LIG A   1      -9.086   2.683 129.759  0.00  0.00    -0.028 C 
ATOM     29  C   LIG A   1      -9.677   3.506 130.648  0.00  0.00    -0.080 C 
ATOM     30  C   LIG A   1      -9.075   3.980 131.942  0.00  0.00    +0.038 C 
ATOM     31  C   LIG A   1     -11.063   4.035 130.384  0.00  0.00    +0.038 C 
ENDBRANCH  27  28
ENDBRANCH  26  27
ENDBRANCH  24  26
ENDBRANCH  19  24
TORSDOF 4
ENDMDL
MODEL 4
REMARK VINA RESULT:      -8.8      2.701      6.287
REMARK  Name = NuBBE_2428
REMARK  11 active torsions:
REMARK  status: ('A' for Active; 'I' for Inactive)
REMARK    1  A    between atoms: C_10  and  C_15
REMARK    2  A    between atoms: C_10  and  C_16
REMARK    3  A    between atoms: C_17  and  C_35
REMARK    4  A    between atoms: C_18  and  C_34
REMARK    5  A    between atoms: C_21  and  C_25
REMARK    6  A    between atoms: C_25  and  C_27
REMARK    7  A    between atoms: C_25  and  C_33
REMARK    8  A    between atoms: C_27  and  C_28
REMARK    9  A    between atoms: C_28  and  C_29
REMARK   10  A    between atoms: C_30  and  C_31
REMARK   11  A    between atoms: C_30  and  C_32
REMARK                            x       y       z     vdW  Elec       q    Type
REMARK                         _______ _______ _______ _____ _____    ______ ____
ROOT
ATOM      1  C   LIG A   1      -6.644  -2.149 126.060  0.00  0.00    -0.019 C 
ATOM      2  C   LIG A   1      -6.305  -2.097 127.570  0.00  0.00    -0.019 C 
ATOM      3  C   LIG A   1      -6.697  -0.840 126.808  0.00  0.00    +0.015 C 
ATOM      4  C   LIG A   1      -7.344  -2.518 128.623  0.00  0.00    +0.002 C 
ATOM      5  C   LIG A   1      -8.266  -3.596 128.030  0.00  0.00    +0.005 C 
ATOM      6  C   LIG A   1      -8.936  -3.074 126.757  0.00  0.00    +0.005 C 
ATOM      7  C   LIG A   1      -7.912  -2.890 125.624  0.00  0.00    +0.009 C 
ATOM      8  C   LIG A   1      -8.501  -2.302 124.301  0.00  0.00    +0.027 C 
ATOM      9  C   LIG A   1      -7.366  -2.176 123.270  0.00  0.00    +0.139 C 
ATOM     10  O   LIG A   1      -7.544  -2.429 122.065  0.00  0.00    -0.297 OA
ATOM     11  C   LIG A   1      -6.045  -1.589 123.714  0.00  0.00    +0.075 C 
ATOM     12  C   LIG A   1      -5.567  -2.244 124.995  0.00  0.00    +0.015 C 
ATOM     13  C   LIG A   1      -9.578  -3.252 123.733  0.00  0.00    +0.019 C 
ATOM     14  C   LIG A   1      -9.134  -0.909 124.463  0.00  0.00    +0.019 C 
ATOM     15  C   LIG A   1      -6.738  -2.872 130.041  0.00  0.00    -0.023 C 
ATOM     16  C   LIG A   1      -5.633  -1.816 130.482  0.00  0.00    -0.023 C 
ATOM     17  C   LIG A   1      -4.720  -1.390 129.305  0.00  0.00    +0.008 C 
ATOM     18  C   LIG A   1      -4.877  -2.209 128.035  0.00  0.00    +0.008 C 
ATOM     19  C   LIG A   1      -6.444  -0.641 131.214  0.00  0.00    -0.002 C 
ATOM     20  C   LIG A   1      -7.887  -1.171 131.352  0.00  0.00    +0.005 C 
ATOM     21  C   LIG A   1      -7.811  -2.673 131.138  0.00  0.00    +0.008 C 
ATOM     22  C   LIG A   1      -4.687  -2.403 131.573  0.00  0.00    +0.012 C 
ATOM     23  C   LIG A   1      -6.290  -4.352 130.111  0.00  0.00    +0.012 C 
ENDROOT
BRANCH  19  24
ATOM     24  C   LIG A   1      -6.407   0.824 130.659  0.00  0.00    -0.010 C 
ATOM     25  C   LIG A   1      -6.452   1.878 131.784  0.00  0.00    +0.008 C 
BRANCH  24  26
ATOM     26  C   LIG A   1      -7.575   1.087 129.664  0.00  0.00    +0.007 C 
BRANCH  26  27
ATOM     27  C   LIG A   1      -7.348   2.228 128.655  0.00  0.00    +0.027 C 
BRANCH  27  28
ATOM     28  C   LIG A   1      -5.916   2.331 128.210  0.00  0.00    -0.028 C 
ATOM     29  C   LIG A   1      -5.440   2.494 126.959  0.00  0.00    -0.080 C 
ATOM     30  C   LIG A   1      -6.273   2.614 125.712  0.00  0.00    +0.038 C 
ATOM     31  C   LIG A   1      -3.955   2.571 126.717  0.00  0.00    +0.038 C 
ENDBRANCH  27  28
ENDBRANCH  26  27
ENDBRANCH  24  26
ENDBRANCH  19  24
TORSDOF 4
ENDMDL
MODEL 5
REMARK VINA RESULT:      -8.5      6.151      8.901
REMARK  Name = NuBBE_2428
REMARK  11 active torsions:
REMARK  status: ('A' for Active; 'I' for Inactive)
REMARK    1  A    between atoms: C_10  and  C_15
REMARK    2  A    between atoms: C_10  and  C_16
REMARK    3  A    between atoms: C_17  and  C_35
REMARK    4  A    between atoms: C_18  and  C_34
REMARK    5  A    between atoms: C_21  and  C_25
REMARK    6  A    between atoms: C_25  and  C_27
REMARK    7  A    between atoms: C_25  and  C_33
REMARK    8  A    between atoms: C_27  and  C_28
REMARK    9  A    between atoms: C_28  and  C_29
REMARK   10  A    between atoms: C_30  and  C_31
REMARK   11  A    between atoms: C_30  and  C_32
REMARK                            x       y       z     vdW  Elec       q    Type
REMARK                         _______ _______ _______ _____ _____    ______ ____
ROOT
ATOM      1  C   LIG A   1      -6.463   4.695 132.247  0.00  0.00    -0.019 C 
ATOM      2  C   LIG A   1      -5.138   5.119 131.570  0.00  0.00    -0.019 C 
ATOM      3  C   LIG A   1      -5.942   3.936 131.052  0.00  0.00    +0.015 C 
ATOM      4  C   LIG A   1      -5.100   6.305 130.590  0.00  0.00    +0.002 C 
ATOM      5  C   LIG A   1      -6.181   7.326 130.982  0.00  0.00    +0.005 C 
ATOM      6  C   LIG A   1      -7.557   6.657 131.002  0.00  0.00    +0.005 C 
ATOM      7  C   LIG A   1      -7.665   5.641 132.152  0.00  0.00    +0.009 C 
ATOM      8  C   LIG A   1      -9.020   4.864 132.211  0.00  0.00    +0.027 C 
ATOM      9  C   LIG A   1      -8.979   3.892 133.403  0.00  0.00    +0.139 C 
ATOM     10  O   LIG A   1      -9.976   3.691 134.119  0.00  0.00    -0.297 OA
ATOM     11  C   LIG A   1      -7.737   3.055 133.613  0.00  0.00    +0.075 C 
ATOM     12  C   LIG A   1      -6.490   3.915 133.549  0.00  0.00    +0.015 C 
ATOM     13  C   LIG A   1     -10.187   5.852 132.423  0.00  0.00    +0.019 C 
ATOM     14  C   LIG A   1      -9.322   4.036 130.950  0.00  0.00    +0.019 C 
ATOM     15  C   LIG A   1      -3.661   6.919 130.355  0.00  0.00    -0.023 C 
ATOM     16  C   LIG A   1      -2.565   5.782 130.172  0.00  0.00    -0.023 C 
ATOM     17  C   LIG A   1      -2.780   4.593 131.143  0.00  0.00    +0.008 C 
ATOM     18  C   LIG A   1      -3.816   4.823 132.229  0.00  0.00    +0.008 C 
ATOM     19  C   LIG A   1      -2.581   5.431 128.606  0.00  0.00    -0.002 C 
ATOM     20  C   LIG A   1      -3.486   6.504 127.962  0.00  0.00    +0.005 C 
ATOM     21  C   LIG A   1      -3.608   7.625 128.979  0.00  0.00    +0.008 C 
ATOM     22  C   LIG A   1      -1.130   6.320 130.457  0.00  0.00    +0.012 C 
ATOM     23  C   LIG A   1      -3.321   7.987 131.423  0.00  0.00    +0.012 C 
ENDROOT
BRANCH  19  24
ATOM     24  C   LIG A   1      -2.937   3.987 128.111  0.00  0.00    -0.010 C 
ATOM     25  C   LIG A   1      -1.939   3.468 127.056  0.00  0.00    +0.008 C 
BRANCH  24  26
ATOM     26  C   LIG A   1      -4.380   3.924 127.528  0.00  0.00    +0.007 C 
BRANCH  26  27
ATOM     27  C   LIG A   1      -4.486   3.461 126.063  0.00  0.00    +0.027 C 
BRANCH  27  28
ATOM     28  C   LIG A   1      -5.910   3.326 125.600  0.00  0.00    -0.028 C 
ATOM     29  C   LIG A   1      -6.424   3.615 124.388  0.00  0.00    -0.080 C 
ATOM     30  C   LIG A   1      -5.652   4.146 123.211  0.00  0.00    +0.038 C 
ATOM     31  C   LIG A   1      -7.893   3.413 124.120  0.00  0.00    +0.038 C 
ENDBRANCH  27  28
ENDBRANCH  26  27
ENDBRANCH  24  26
ENDBRANCH  19  24
TORSDOF 4
ENDMDL
MODEL 6
REMARK VINA RESULT:      -8.2      2.889      6.092
REMARK  Name = NuBBE_2428
REMARK  11 active torsions:
REMARK  status: ('A' for Active; 'I' for Inactive)
REMARK    1  A    between atoms: C_10  and  C_15
REMARK    2  A    between atoms: C_10  and  C_16
REMARK    3  A    between atoms: C_17  and  C_35
REMARK    4  A    between atoms: C_18  and  C_34
REMARK    5  A    between atoms: C_21  and  C_25
REMARK    6  A    between atoms: C_25  and  C_27
REMARK    7  A    between atoms: C_25  and  C_33
REMARK    8  A    between atoms: C_27  and  C_28
REMARK    9  A    between atoms: C_28  and  C_29
REMARK   10  A    between atoms: C_30  and  C_31
REMARK   11  A    between atoms: C_30  and  C_32
REMARK                            x       y       z     vdW  Elec       q    Type
REMARK                         _______ _______ _______ _____ _____    ______ ____
ROOT
ATOM      1  C   LIG A   1      -6.227   2.775 126.244  0.00  0.00    -0.019 C 
ATOM      2  C   LIG A   1      -6.933   1.660 125.436  0.00  0.00    -0.019 C 
ATOM      3  C   LIG A   1      -5.482   1.519 125.867  0.00  0.00    +0.015 C 
ATOM      4  C   LIG A   1      -7.874   0.661 126.131  0.00  0.00    +0.002 C 
ATOM      5  C   LIG A   1      -8.540   1.342 127.338  0.00  0.00    +0.005 C 
ATOM      6  C   LIG A   1      -7.473   1.871 128.299  0.00  0.00    +0.005 C 
ATOM      7  C   LIG A   1      -6.697   3.045 127.677  0.00  0.00    +0.009 C 
ATOM      8  C   LIG A   1      -5.544   3.611 128.568  0.00  0.00    +0.027 C 
ATOM      9  C   LIG A   1      -4.865   4.769 127.818  0.00  0.00    +0.139 C 
ATOM     10  O   LIG A   1      -4.480   5.795 128.407  0.00  0.00    -0.297 OA
ATOM     11  C   LIG A   1      -4.530   4.587 126.355  0.00  0.00    +0.075 C 
ATOM     12  C   LIG A   1      -5.723   4.049 125.590  0.00  0.00    +0.015 C 
ATOM     13  C   LIG A   1      -6.119   4.155 129.894  0.00  0.00    +0.019 C 
ATOM     14  C   LIG A   1      -4.455   2.580 128.910  0.00  0.00    +0.019 C 
ATOM     15  C   LIG A   1      -8.872  -0.090 125.160  0.00  0.00    -0.023 C 
ATOM     16  C   LIG A   1      -8.140  -0.573 123.833  0.00  0.00    -0.023 C 
ATOM     17  C   LIG A   1      -7.138   0.478 123.295  0.00  0.00    +0.008 C 
ATOM     18  C   LIG A   1      -7.205   1.839 123.965  0.00  0.00    +0.008 C 
ATOM     19  C   LIG A   1      -7.534  -2.015 124.190  0.00  0.00    -0.002 C 
ATOM     20  C   LIG A   1      -8.122  -2.369 125.573  0.00  0.00    +0.005 C 
ATOM     21  C   LIG A   1      -9.303  -1.438 125.785  0.00  0.00    +0.008 C 
ATOM     22  C   LIG A   1      -9.158  -0.830 122.681  0.00  0.00    +0.012 C 
ATOM     23  C   LIG A   1     -10.163   0.734 124.929  0.00  0.00    +0.012 C 
ENDROOT
BRANCH  19  24
ATOM     24  C   LIG A   1      -5.990  -2.274 124.124  0.00  0.00    -0.010 C 
ATOM     25  C   LIG A   1      -5.653  -3.771 123.973  0.00  0.00    +0.008 C 
BRANCH  24  26
ATOM     26  C   LIG A   1      -5.262  -1.710 125.380  0.00  0.00    +0.007 C 
BRANCH  26  27
ATOM     27  C   LIG A   1      -5.429  -2.531 126.672  0.00  0.00    +0.027 C 
BRANCH  27  28
ATOM     28  C   LIG A   1      -5.273  -1.697 127.913  0.00  0.00    -0.028 C 
ATOM     29  C   LIG A   1      -6.131  -1.569 128.945  0.00  0.00    -0.080 C 
ATOM     30  C   LIG A   1      -7.461  -2.259 129.071  0.00  0.00    +0.038 C 
ATOM     31  C   LIG A   1      -5.790  -0.672 130.106  0.00  0.00    +0.038 C 
ENDBRANCH  27  28
ENDBRANCH  26  27
ENDBRANCH  24  26
ENDBRANCH  19  24
TORSDOF 4
ENDMDL
MODEL 7
REMARK VINA RESULT:      -8.1      3.092      7.472
REMARK  Name = NuBBE_2428
REMARK  11 active torsions:
REMARK  status: ('A' for Active; 'I' for Inactive)
REMARK    1  A    between atoms: C_10  and  C_15
REMARK    2  A    between atoms: C_10  and  C_16
REMARK    3  A    between atoms: C_17  and  C_35
REMARK    4  A    between atoms: C_18  and  C_34
REMARK    5  A    between atoms: C_21  and  C_25
REMARK    6  A    between atoms: C_25  and  C_27
REMARK    7  A    between atoms: C_25  and  C_33
REMARK    8  A    between atoms: C_27  and  C_28
REMARK    9  A    between atoms: C_28  and  C_29
REMARK   10  A    between atoms: C_30  and  C_31
REMARK   11  A    between atoms: C_30  and  C_32
REMARK                            x       y       z     vdW  Elec       q    Type
REMARK                         _______ _______ _______ _____ _____    ______ ____
ROOT
ATOM      1  C   LIG A   1      -5.971  -2.268 127.398  0.00  0.00    -0.019 C 
ATOM      2  C   LIG A   1      -5.382  -2.591 128.793  0.00  0.00    -0.019 C 
ATOM      3  C   LIG A   1      -5.470  -1.158 128.289  0.00  0.00    +0.015 C 
ATOM      4  C   LIG A   1      -6.305  -2.873 129.990  0.00  0.00    +0.002 C 
ATOM      5  C   LIG A   1      -7.612  -3.508 129.489  0.00  0.00    +0.005 C 
ATOM      6  C   LIG A   1      -8.285  -2.592 128.465  0.00  0.00    +0.005 C 
ATOM      7  C   LIG A   1      -7.465  -2.514 127.165  0.00  0.00    +0.009 C 
ATOM      8  C   LIG A   1      -8.049  -1.550 126.081  0.00  0.00    +0.027 C 
ATOM      9  C   LIG A   1      -7.128  -1.578 124.850  0.00  0.00    +0.139 C 
ATOM     10  O   LIG A   1      -7.581  -1.546 123.692  0.00  0.00    -0.297 OA
ATOM     11  C   LIG A   1      -5.633  -1.494 125.061  0.00  0.00    +0.075 C 
ATOM     12  C   LIG A   1      -5.181  -2.480 126.120  0.00  0.00    +0.015 C 
ATOM     13  C   LIG A   1      -9.455  -2.025 125.654  0.00  0.00    +0.019 C 
ATOM     14  C   LIG A   1      -8.162  -0.087 126.542  0.00  0.00    +0.019 C 
ATOM     15  C   LIG A   1      -5.613  -3.638 131.190  0.00  0.00    -0.023 C 
ATOM     16  C   LIG A   1      -4.169  -3.050 131.500  0.00  0.00    -0.023 C 
ATOM     17  C   LIG A   1      -3.382  -2.704 130.211  0.00  0.00    +0.008 C 
ATOM     18  C   LIG A   1      -4.008  -3.197 128.918  0.00  0.00    +0.008 C 
ATOM     19  C   LIG A   1      -4.419  -1.841 132.525  0.00  0.00    -0.002 C 
ATOM     20  C   LIG A   1      -5.910  -1.942 132.912  0.00  0.00    +0.005 C 
ATOM     21  C   LIG A   1      -6.361  -3.336 132.510  0.00  0.00    +0.008 C 
ATOM     22  C   LIG A   1      -3.290  -4.075 132.281  0.00  0.00    +0.012 C 
ATOM     23  C   LIG A   1      -5.662  -5.172 130.984  0.00  0.00    +0.012 C 
ENDROOT
BRANCH  19  24
ATOM     24  C   LIG A   1      -4.006  -0.376 132.153  0.00  0.00    -0.010 C 
ATOM     25  C   LIG A   1      -3.444   0.399 133.361  0.00  0.00    +0.008 C 
BRANCH  24  26
ATOM     26  C   LIG A   1      -5.202   0.417 131.547  0.00  0.00    +0.007 C 
BRANCH  26  27
ATOM     27  C   LIG A   1      -5.265   1.911 131.913  0.00  0.00    +0.027 C 
BRANCH  27  28
ATOM     28  C   LIG A   1      -4.667   2.793 130.852  0.00  0.00    -0.028 C 
ATOM     29  C   LIG A   1      -3.651   3.670 130.972  0.00  0.00    -0.080 C 
ATOM     30  C   LIG A   1      -2.880   3.954 132.232  0.00  0.00    +0.038 C 
ATOM     31  C   LIG A   1      -3.197   4.471 129.779  0.00  0.00    +0.038 C 
ENDBRANCH  27  28
ENDBRANCH  26  27
ENDBRANCH  24  26
ENDBRANCH  19  24
TORSDOF 4
ENDMDL
MODEL 8
REMARK VINA RESULT:      -8.0      2.727      8.373
REMARK  Name = NuBBE_2428
REMARK  11 active torsions:
REMARK  status: ('A' for Active; 'I' for Inactive)
REMARK    1  A    between atoms: C_10  and  C_15
REMARK    2  A    between atoms: C_10  and  C_16
REMARK    3  A    between atoms: C_17  and  C_35
REMARK    4  A    between atoms: C_18  and  C_34
REMARK    5  A    between atoms: C_21  and  C_25
REMARK    6  A    between atoms: C_25  and  C_27
REMARK    7  A    between atoms: C_25  and  C_33
REMARK    8  A    between atoms: C_27  and  C_28
REMARK    9  A    between atoms: C_28  and  C_29
REMARK   10  A    between atoms: C_30  and  C_31
REMARK   11  A    between atoms: C_30  and  C_32
REMARK                            x       y       z     vdW  Elec       q    Type
REMARK                         _______ _______ _______ _____ _____    ______ ____
ROOT
ATOM      1  C   LIG A   1      -8.174  -1.930 126.807  0.00  0.00    -0.019 C 
ATOM      2  C   LIG A   1      -7.804  -1.955 128.310  0.00  0.00    -0.019 C 
ATOM      3  C   LIG A   1      -6.887  -2.570 127.265  0.00  0.00    +0.015 C 
ATOM      4  C   LIG A   1      -7.205  -0.713 128.992  0.00  0.00    +0.002 C 
ATOM      5  C   LIG A   1      -7.732   0.554 128.301  0.00  0.00    +0.005 C 
ATOM      6  C   LIG A   1      -7.401   0.518 126.808  0.00  0.00    +0.005 C 
ATOM      7  C   LIG A   1      -8.202  -0.579 126.087  0.00  0.00    +0.009 C 
ATOM      8  C   LIG A   1      -7.882  -0.727 124.564  0.00  0.00    +0.027 C 
ATOM      9  C   LIG A   1      -8.753  -1.855 123.985  0.00  0.00    +0.139 C 
ATOM     10  O   LIG A   1      -9.261  -1.774 122.852  0.00  0.00    -0.297 OA
ATOM     11  C   LIG A   1      -8.870  -3.150 124.757  0.00  0.00    +0.075 C 
ATOM     12  C   LIG A   1      -9.196  -2.883 126.213  0.00  0.00    +0.015 C 
ATOM     13  C   LIG A   1      -8.219   0.585 123.822  0.00  0.00    +0.019 C 
ATOM     14  C   LIG A   1      -6.414  -1.077 124.266  0.00  0.00    +0.019 C 
ATOM     15  C   LIG A   1      -7.322  -0.707 130.570  0.00  0.00    -0.023 C 
ATOM     16  C   LIG A   1      -6.963  -2.128 131.186  0.00  0.00    -0.023 C 
ATOM     17  C   LIG A   1      -7.532  -3.298 130.346  0.00  0.00    +0.008 C 
ATOM     18  C   LIG A   1      -8.508  -2.895 129.254  0.00  0.00    +0.008 C 
ATOM     19  C   LIG A   1      -5.371  -2.108 131.388  0.00  0.00    -0.002 C 
ATOM     20  C   LIG A   1      -4.947  -0.651 131.102  0.00  0.00    +0.005 C 
ATOM     21  C   LIG A   1      -6.213   0.184 131.178  0.00  0.00    +0.008 C 
ATOM     22  C   LIG A   1      -7.555  -2.295 132.619  0.00  0.00    +0.012 C 
ATOM     23  C   LIG A   1      -8.678  -0.119 131.033  0.00  0.00    +0.012 C 
ENDROOT
BRANCH  19  24
ATOM     24  C   LIG A   1      -4.456  -3.142 130.647  0.00  0.00    -0.010 C 
ATOM     25  C   LIG A   1      -4.068  -2.672 129.231  0.00  0.00    +0.008 C 
BRANCH  24  26
ATOM     26  C   LIG A   1      -5.135  -4.541 130.555  0.00  0.00    +0.007 C 
BRANCH  26  27
ATOM     27  C   LIG A   1      -5.195  -5.341 131.870  0.00  0.00    +0.027 C 
BRANCH  27  28
ATOM     28  C   LIG A   1      -4.154  -4.903 132.862  0.00  0.00    -0.028 C 
ATOM     29  C   LIG A   1      -4.330  -4.529 134.145  0.00  0.00    -0.080 C 
ATOM     30  C   LIG A   1      -5.647  -4.476 134.871  0.00  0.00    +0.038 C 
ATOM     31  C   LIG A   1      -3.148  -4.117 134.983  0.00  0.00    +0.038 C 
ENDBRANCH  27  28
ENDBRANCH  26  27
ENDBRANCH  24  26
ENDBRANCH  19  24
TORSDOF 4
ENDMDL
MODEL 9
REMARK VINA RESULT:      -7.9      3.013      4.661
REMARK  Name = NuBBE_2428
REMARK  11 active torsions:
REMARK  status: ('A' for Active; 'I' for Inactive)
REMARK    1  A    between atoms: C_10  and  C_15
REMARK    2  A    between atoms: C_10  and  C_16
REMARK    3  A    between atoms: C_17  and  C_35
REMARK    4  A    between atoms: C_18  and  C_34
REMARK    5  A    between atoms: C_21  and  C_25
REMARK    6  A    between atoms: C_25  and  C_27
REMARK    7  A    between atoms: C_25  and  C_33
REMARK    8  A    between atoms: C_27  and  C_28
REMARK    9  A    between atoms: C_28  and  C_29
REMARK   10  A    between atoms: C_30  and  C_31
REMARK   11  A    between atoms: C_30  and  C_32
REMARK                            x       y       z     vdW  Elec       q    Type
REMARK                         _______ _______ _______ _____ _____    ______ ____
ROOT
ATOM      1  C   LIG A   1      -7.764   0.100 129.938  0.00  0.00    -0.019 C 
ATOM      2  C   LIG A   1      -7.875   0.678 128.507  0.00  0.00    -0.019 C 
ATOM      3  C   LIG A   1      -6.683   1.000 129.395  0.00  0.00    +0.015 C 
ATOM      4  C   LIG A   1      -7.508  -0.178 127.282  0.00  0.00    +0.002 C 
ATOM      5  C   LIG A   1      -7.791  -1.657 127.590  0.00  0.00    +0.005 C 
ATOM      6  C   LIG A   1      -7.016  -2.095 128.835  0.00  0.00    +0.005 C 
ATOM      7  C   LIG A   1      -7.562  -1.411 130.099  0.00  0.00    +0.009 C 
ATOM      8  C   LIG A   1      -6.789  -1.755 131.414  0.00  0.00    +0.027 C 
ATOM      9  C   LIG A   1      -7.445  -1.001 132.583  0.00  0.00    +0.139 C 
ATOM     10  O   LIG A   1      -7.580  -1.522 133.705  0.00  0.00    -0.297 OA
ATOM     11  C   LIG A   1      -7.800   0.457 132.397  0.00  0.00    +0.075 C 
ATOM     12  C   LIG A   1      -8.558   0.667 131.101  0.00  0.00    +0.015 C 
ATOM     13  C   LIG A   1      -6.875  -3.271 131.696  0.00  0.00    +0.019 C 
ATOM     14  C   LIG A   1      -5.302  -1.361 131.386  0.00  0.00    +0.019 C 
ATOM     15  C   LIG A   1      -8.106   0.341 125.913  0.00  0.00    -0.023 C 
ATOM     16  C   LIG A   1      -7.960   1.918 125.775  0.00  0.00    -0.023 C 
ATOM     17  C   LIG A   1      -8.250   2.657 127.106  0.00  0.00    +0.008 C 
ATOM     18  C   LIG A   1      -8.840   1.796 128.209  0.00  0.00    +0.008 C 
ATOM     19  C   LIG A   1      -6.508   2.153 125.134  0.00  0.00    -0.002 C 
ATOM     20  C   LIG A   1      -6.009   0.745 124.741  0.00  0.00    +0.005 C 
ATOM     21  C   LIG A   1      -7.233  -0.155 124.735  0.00  0.00    +0.008 C 
ATOM     22  C   LIG A   1      -8.966   2.495 124.732  0.00  0.00    +0.012 C 
ATOM     23  C   LIG A   1      -9.535  -0.206 125.677  0.00  0.00    +0.012 C 
ENDROOT
BRANCH  19  24
ATOM     24  C   LIG A   1      -5.415   2.970 125.903  0.00  0.00    -0.010 C 
ATOM     25  C   LIG A   1      -4.830   4.114 125.049  0.00  0.00    +0.008 C 
BRANCH  24  26
ATOM     26  C   LIG A   1      -4.256   2.053 126.394  0.00  0.00    +0.007 C 
BRANCH  26  27
ATOM     27  C   LIG A   1      -3.001   2.782 126.909  0.00  0.00    +0.027 C 
BRANCH  27  28
ATOM     28  C   LIG A   1      -3.137   3.228 128.338  0.00  0.00    -0.028 C 
ATOM     29  C   LIG A   1      -2.964   4.465 128.845  0.00  0.00    -0.080 C 
ATOM     30  C   LIG A   1      -2.591   5.693 128.060  0.00  0.00    +0.038 C 
ATOM     31  C   LIG A   1      -3.144   4.711 130.321  0.00  0.00    +0.038 C 
ENDBRANCH  27  28
ENDBRANCH  26  27
ENDBRANCH  24  26
ENDBRANCH  19  24
TORSDOF 4
ENDMDL
