MODEL 1
REMARK VINA RESULT:      -7.0      0.000      0.000
REMARK  Name = NuBBE_331
REMARK  20 active torsions:
REMARK  status: ('A' for Active; 'I' for Inactive)
REMARK    1  A    between atoms: C_2  and  O_3
REMARK    2  A    between atoms: C_2  and  C_5
REMARK    3  A    between atoms: O_3  and  C_4
REMARK    4  A    between atoms: C_8  and  O_9
REMARK    5  A    between atoms: O_9  and  C_10
REMARK    6  A    between atoms: C_13  and  C_15
REMARK    7  A    between atoms: C_15  and  O_16
REMARK    8  A    between atoms: O_16  and  C_17
REMARK    9  A    between atoms: C_17  and  C_18
REMARK   10  A    between atoms: C_20  and  O_22
REMARK   11  A    between atoms: C_23  and  O_25
REMARK   12  A    between atoms: C_26  and  O_28
REMARK   13  A    between atoms: C_29  and  C_30
REMARK   14  A    between atoms: C_30  and  O_32
REMARK   15  A    between atoms: C_30  and  C_36
REMARK   16  A    between atoms: O_32  and  C_33
REMARK   17  A    between atoms: C_33  and  C_34
REMARK   18  A    between atoms: C_37  and  C_39
REMARK   19  A    between atoms: C_39  and  C_40
REMARK   20  A    between atoms: C_40  and  O_41
REMARK                            x       y       z     vdW  Elec       q    Type
REMARK                         _______ _______ _______ _____ _____    ______ ____
ROOT
ATOM      1  C   LIG A   1      -6.568   3.491 124.312  0.00  0.00    +0.075 C 
ATOM      2  C   LIG A   1      -7.822   3.768 124.690  0.00  0.00    +0.201 C 
ATOM      3  O   LIG A   1      -8.399   3.400 125.881  0.00  0.00    -0.470 OA
ATOM      4  C   LIG A   1      -7.558   2.780 126.869  0.00  0.00    +0.316 C 
ATOM      5  C   LIG A   1      -6.492   1.878 126.200  0.00  0.00    +0.106 C 
ATOM      6  C   LIG A   1      -5.620   2.771 125.240  0.00  0.00    +0.052 C 
ENDROOT
BRANCH   5   7
ATOM      7  C   LIG A   1      -7.155   0.686 125.408  0.00  0.00    +0.183 C 
ATOM      8  C   LIG A   1      -8.275  -0.047 126.157  0.00  0.00    +0.052 C 
BRANCH   7   9
ATOM      9  O   LIG A   1      -6.138  -0.312 125.125  0.00  0.00    -0.461 OA
BRANCH   9  10
ATOM     10  C   LIG A   1      -6.313  -1.066 124.004  0.00  0.00    +0.304 C 
ATOM     11  C   LIG A   1      -5.615  -2.380 124.140  0.00  0.00    +0.136 C 
ATOM     12  O   LIG A   1      -6.885  -0.707 122.984  0.00  0.00    -0.251 OA
ENDBRANCH   9  10
ENDBRANCH   7   9
ENDBRANCH   5   7
BRANCH   1  14
ATOM     13  O   LIG A   1      -5.118   4.377 122.605  0.00  0.00    -0.245 OA
ATOM     14  C   LIG A   1      -6.177   3.834 122.924  0.00  0.00    +0.338 C 
BRANCH  14  15
ATOM     15  O   LIG A   1      -7.114   3.364 122.071  0.00  0.00    -0.465 OA
ATOM     16  C   LIG A   1      -7.011   3.762 120.711  0.00  0.00    +0.280 C 
ENDBRANCH  14  15
ENDBRANCH   1  14
BRANCH   6  17
ATOM     17  C   LIG A   1      -4.700   3.826 125.887  0.00  0.00    +0.129 C 
BRANCH  17  18
ATOM     18  C   LIG A   1      -3.645   3.273 126.796  0.00  0.00    +0.305 C 
ATOM     19  O   LIG A   1      -2.605   2.729 126.467  0.00  0.00    -0.251 OA
BRANCH  18  20
ATOM     20  O   LIG A   1      -3.959   3.398 128.099  0.00  0.00    -0.481 OA
ATOM     21  H   LIG A   1      -3.747   4.336 128.296  0.00  0.00    +0.295 HD
ENDBRANCH  18  20
ENDBRANCH  17  18
ENDBRANCH   6  17
BRANCH   4  22
ATOM     22  O   LIG A   1      -6.900   3.723 127.727  0.00  0.00    -0.309 OA
BRANCH  22  23
ATOM     23  C   LIG A   1      -7.673   4.107 128.868  0.00  0.00    +0.286 C 
ATOM     24  O   LIG A   1      -8.568   5.144 128.475  0.00  0.00    -0.339 OA
ATOM     25  C   LIG A   1      -9.431   5.619 129.506  0.00  0.00    +0.190 C 
ATOM     26  C   LIG A   1      -8.574   6.252 130.608  0.00  0.00    +0.178 C 
ATOM     27  C   LIG A   1      -7.571   5.220 131.121  0.00  0.00    +0.179 C 
ATOM     28  C   LIG A   1      -6.731   4.646 129.975  0.00  0.00    +0.201 C 
BRANCH  26  29
ATOM     29  O   LIG A   1      -9.352   6.707 131.715  0.00  0.00    -0.386 OA
ATOM     30  H   LIG A   1      -9.484   7.666 131.609  0.00  0.00    +0.210 HD
ENDBRANCH  26  29
BRANCH  28  31
ATOM     31  O   LIG A   1      -5.881   3.630 130.525  0.00  0.00    -0.384 OA
ATOM     32  H   LIG A   1      -6.244   2.787 130.182  0.00  0.00    +0.210 HD
ENDBRANCH  28  31
BRANCH  27  33
ATOM     33  O   LIG A   1      -6.707   5.839 132.091  0.00  0.00    -0.386 OA
ATOM     34  H   LIG A   1      -5.799   5.660 131.771  0.00  0.00    +0.210 HD
ENDBRANCH  27  33
BRANCH  25  35
ATOM     35  C   LIG A   1     -10.351   6.673 128.875  0.00  0.00    +0.266 C 
BRANCH  35  36
ATOM     36  O   LIG A   1     -10.128   6.823 127.461  0.00  0.00    -0.462 OA
BRANCH  36  37
ATOM     37  C   LIG A   1     -10.914   7.730 126.824  0.00  0.00    +0.304 C 
ATOM     38  C   LIG A   1     -11.859   8.364 127.800  0.00  0.00    +0.136 C 
ATOM     39  O   LIG A   1     -10.861   7.998 125.634  0.00  0.00    -0.251 OA
ENDBRANCH  36  37
ENDBRANCH  35  36
ENDBRANCH  25  35
ENDBRANCH  22  23
ENDBRANCH   4  22
TORSDOF 16
ENDMDL
MODEL 2
REMARK VINA RESULT:      -6.8      2.865      5.290
REMARK  Name = NuBBE_331
REMARK  20 active torsions:
REMARK  status: ('A' for Active; 'I' for Inactive)
REMARK    1  A    between atoms: C_2  and  O_3
REMARK    2  A    between atoms: C_2  and  C_5
REMARK    3  A    between atoms: O_3  and  C_4
REMARK    4  A    between atoms: C_8  and  O_9
REMARK    5  A    between atoms: O_9  and  C_10
REMARK    6  A    between atoms: C_13  and  C_15
REMARK    7  A    between atoms: C_15  and  O_16
REMARK    8  A    between atoms: O_16  and  C_17
REMARK    9  A    between atoms: C_17  and  C_18
REMARK   10  A    between atoms: C_20  and  O_22
REMARK   11  A    between atoms: C_23  and  O_25
REMARK   12  A    between atoms: C_26  and  O_28
REMARK   13  A    between atoms: C_29  and  C_30
REMARK   14  A    between atoms: C_30  and  O_32
REMARK   15  A    between atoms: C_30  and  C_36
REMARK   16  A    between atoms: O_32  and  C_33
REMARK   17  A    between atoms: C_33  and  C_34
REMARK   18  A    between atoms: C_37  and  C_39
REMARK   19  A    between atoms: C_39  and  C_40
REMARK   20  A    between atoms: C_40  and  O_41
REMARK                            x       y       z     vdW  Elec       q    Type
REMARK                         _______ _______ _______ _____ _____    ______ ____
ROOT
ATOM      1  C   LIG A   1      -5.413   3.023 128.459  0.00  0.00    +0.075 C 
ATOM      2  C   LIG A   1      -5.671   2.416 129.624  0.00  0.00    +0.201 C 
ATOM      3  O   LIG A   1      -6.529   2.876 130.593  0.00  0.00    -0.470 OA
ATOM      4  C   LIG A   1      -7.324   4.034 130.288  0.00  0.00    +0.316 C 
ATOM      5  C   LIG A   1      -6.536   5.029 129.402  0.00  0.00    +0.106 C 
ATOM      6  C   LIG A   1      -6.131   4.292 128.070  0.00  0.00    +0.052 C 
ENDROOT
BRANCH   5   7
ATOM      7  C   LIG A   1      -5.259   5.582 130.145  0.00  0.00    +0.183 C 
ATOM      8  C   LIG A   1      -5.549   6.554 131.294  0.00  0.00    +0.052 C 
BRANCH   7   9
ATOM      9  O   LIG A   1      -4.442   6.314 129.193  0.00  0.00    -0.461 OA
BRANCH   9  10
ATOM     10  C   LIG A   1      -3.094   6.132 129.272  0.00  0.00    +0.304 C 
ATOM     11  C   LIG A   1      -2.401   6.851 128.162  0.00  0.00    +0.136 C 
ATOM     12  O   LIG A   1      -2.516   5.418 130.080  0.00  0.00    -0.251 OA
ENDBRANCH   9  10
ENDBRANCH   7   9
ENDBRANCH   5   7
BRANCH   1  14
ATOM     13  O   LIG A   1      -4.521   1.779 126.599  0.00  0.00    -0.245 OA
ATOM     14  C   LIG A   1      -4.336   2.456 127.612  0.00  0.00    +0.338 C 
BRANCH  14  15
ATOM     15  O   LIG A   1      -3.140   2.886 128.069  0.00  0.00    -0.465 OA
ATOM     16  C   LIG A   1      -2.144   3.187 127.102  0.00  0.00    +0.280 C 
ENDBRANCH  14  15
ENDBRANCH   1  14
BRANCH   6  17
ATOM     17  C   LIG A   1      -7.263   3.913 127.092  0.00  0.00    +0.129 C 
BRANCH  17  18
ATOM     18  C   LIG A   1      -7.573   4.946 126.053  0.00  0.00    +0.305 C 
ATOM     19  O   LIG A   1      -6.789   5.463 125.276  0.00  0.00    -0.251 OA
BRANCH  18  20
ATOM     20  O   LIG A   1      -8.867   5.318 126.054  0.00  0.00    -0.481 OA
ATOM     21  H   LIG A   1      -9.333   4.523 125.715  0.00  0.00    +0.295 HD
ENDBRANCH  18  20
ENDBRANCH  17  18
ENDBRANCH   6  17
BRANCH   4  22
ATOM     22  O   LIG A   1      -8.565   3.717 129.643  0.00  0.00    -0.309 OA
BRANCH  22  23
ATOM     23  C   LIG A   1      -9.721   4.180 130.347  0.00  0.00    +0.286 C 
ATOM     24  O   LIG A   1     -10.466   5.029 129.478  0.00  0.00    -0.339 OA
ATOM     25  C   LIG A   1     -11.671   5.553 130.032  0.00  0.00    +0.190 C 
ATOM     26  C   LIG A   1     -11.312   6.448 131.223  0.00  0.00    +0.178 C 
ATOM     27  C   LIG A   1     -10.512   5.636 132.240  0.00  0.00    +0.179 C 
ATOM     28  C   LIG A   1      -9.281   4.993 131.591  0.00  0.00    +0.201 C 
BRANCH  26  29
ATOM     29  O   LIG A   1     -12.465   6.974 131.881  0.00  0.00    -0.386 OA
ATOM     30  H   LIG A   1     -12.457   6.646 132.798  0.00  0.00    +0.210 HD
ENDBRANCH  26  29
BRANCH  28  31
ATOM     31  O   LIG A   1      -8.637   4.184 132.585  0.00  0.00    -0.384 OA
ATOM     32  H   LIG A   1      -8.758   3.263 132.275  0.00  0.00    +0.210 HD
ENDBRANCH  28  31
BRANCH  27  33
ATOM     33  O   LIG A   1     -10.097   6.497 133.315  0.00  0.00    -0.386 OA
ATOM     34  H   LIG A   1      -9.331   6.043 133.721  0.00  0.00    +0.210 HD
ENDBRANCH  27  33
BRANCH  25  35
ATOM     35  C   LIG A   1     -12.352   6.378 128.932  0.00  0.00    +0.266 C 
BRANCH  35  36
ATOM     36  O   LIG A   1     -11.950   7.760 128.951  0.00  0.00    -0.462 OA
BRANCH  36  37
ATOM     37  C   LIG A   1     -10.996   8.117 128.052  0.00  0.00    +0.304 C 
ATOM     38  C   LIG A   1     -11.381   7.647 126.682  0.00  0.00    +0.136 C 
ATOM     39  O   LIG A   1      -9.974   8.733 128.314  0.00  0.00    -0.251 OA
ENDBRANCH  36  37
ENDBRANCH  35  36
ENDBRANCH  25  35
ENDBRANCH  22  23
ENDBRANCH   4  22
TORSDOF 16
ENDMDL
MODEL 3
REMARK VINA RESULT:      -6.7      2.190      2.439
REMARK  Name = NuBBE_331
REMARK  20 active torsions:
REMARK  status: ('A' for Active; 'I' for Inactive)
REMARK    1  A    between atoms: C_2  and  O_3
REMARK    2  A    between atoms: C_2  and  C_5
REMARK    3  A    between atoms: O_3  and  C_4
REMARK    4  A    between atoms: C_8  and  O_9
REMARK    5  A    between atoms: O_9  and  C_10
REMARK    6  A    between atoms: C_13  and  C_15
REMARK    7  A    between atoms: C_15  and  O_16
REMARK    8  A    between atoms: O_16  and  C_17
REMARK    9  A    between atoms: C_17  and  C_18
REMARK   10  A    between atoms: C_20  and  O_22
REMARK   11  A    between atoms: C_23  and  O_25
REMARK   12  A    between atoms: C_26  and  O_28
REMARK   13  A    between atoms: C_29  and  C_30
REMARK   14  A    between atoms: C_30  and  O_32
REMARK   15  A    between atoms: C_30  and  C_36
REMARK   16  A    between atoms: O_32  and  C_33
REMARK   17  A    between atoms: C_33  and  C_34
REMARK   18  A    between atoms: C_37  and  C_39
REMARK   19  A    between atoms: C_39  and  C_40
REMARK   20  A    between atoms: C_40  and  O_41
REMARK                            x       y       z     vdW  Elec       q    Type
REMARK                         _______ _______ _______ _____ _____    ______ ____
ROOT
ATOM      1  C   LIG A   1      -7.763   2.059 124.426  0.00  0.00    +0.075 C 
ATOM      2  C   LIG A   1      -9.025   1.983 124.867  0.00  0.00    +0.201 C 
ATOM      3  O   LIG A   1      -9.420   1.473 126.078  0.00  0.00    -0.470 OA
ATOM      4  C   LIG A   1      -8.394   1.107 127.018  0.00  0.00    +0.316 C 
ATOM      5  C   LIG A   1      -7.157   0.530 126.289  0.00  0.00    +0.106 C 
ATOM      6  C   LIG A   1      -6.610   1.626 125.299  0.00  0.00    +0.052 C 
ENDROOT
BRANCH   5   7
ATOM      7  C   LIG A   1      -7.507  -0.799 125.514  0.00  0.00    +0.183 C 
ATOM      8  C   LIG A   1      -8.245  -1.856 126.344  0.00  0.00    +0.052 C 
BRANCH   7   9
ATOM      9  O   LIG A   1      -6.273  -1.422 125.070  0.00  0.00    -0.461 OA
BRANCH   9  10
ATOM     10  C   LIG A   1      -6.178  -1.720 123.744  0.00  0.00    +0.304 C 
ATOM     11  C   LIG A   1      -5.272  -2.889 123.532  0.00  0.00    +0.136 C 
ATOM     12  O   LIG A   1      -6.687  -1.085 122.830  0.00  0.00    -0.251 OA
ENDBRANCH   9  10
ENDBRANCH   7   9
ENDBRANCH   5   7
BRANCH   1  14
ATOM     13  O   LIG A   1      -6.486   2.389 122.411  0.00  0.00    -0.245 OA
ATOM     14  C   LIG A   1      -7.549   2.493 123.024  0.00  0.00    +0.338 C 
BRANCH  14  15
ATOM     15  O   LIG A   1      -8.723   2.919 122.508  0.00  0.00    -0.465 OA
ATOM     16  C   LIG A   1      -8.689   3.504 121.214  0.00  0.00    +0.280 C 
ENDBRANCH  14  15
ENDBRANCH   1  14
BRANCH   6  17
ATOM     17  C   LIG A   1      -5.982   2.894 125.914  0.00  0.00    +0.129 C 
BRANCH  17  18
ATOM     18  C   LIG A   1      -4.753   2.655 126.736  0.00  0.00    +0.305 C 
ATOM     19  O   LIG A   1      -3.631   2.413 126.324  0.00  0.00    -0.251 OA
BRANCH  18  20
ATOM     20  O   LIG A   1      -4.992   2.698 128.060  0.00  0.00    -0.481 OA
ATOM     21  H   LIG A   1      -5.903   2.342 128.138  0.00  0.00    +0.295 HD
ENDBRANCH  18  20
ENDBRANCH  17  18
ENDBRANCH   6  17
BRANCH   4  22
ATOM     22  O   LIG A   1      -7.978   2.195 127.855  0.00  0.00    -0.309 OA
BRANCH  22  23
ATOM     23  C   LIG A   1      -8.565   2.182 129.159  0.00  0.00    +0.286 C 
ATOM     24  O   LIG A   1      -9.535   3.224 129.224  0.00  0.00    -0.339 OA
ATOM     25  C   LIG A   1     -10.232   3.323 130.465  0.00  0.00    +0.190 C 
ATOM     26  C   LIG A   1      -9.224   3.672 131.565  0.00  0.00    +0.178 C 
ATOM     27  C   LIG A   1      -8.128   2.609 131.599  0.00  0.00    +0.179 C 
ATOM     28  C   LIG A   1      -7.471   2.445 130.225  0.00  0.00    +0.201 C 
BRANCH  26  29
ATOM     29  O   LIG A   1      -9.824   3.737 132.859  0.00  0.00    -0.386 OA
ATOM     30  H   LIG A   1      -9.362   4.430 133.364  0.00  0.00    +0.210 HD
ENDBRANCH  26  29
BRANCH  28  31
ATOM     31  O   LIG A   1      -6.520   1.376 130.321  0.00  0.00    -0.384 OA
ATOM     32  H   LIG A   1      -6.590   0.901 129.467  0.00  0.00    +0.210 HD
ENDBRANCH  28  31
BRANCH  27  33
ATOM     33  O   LIG A   1      -7.134   2.983 132.570  0.00  0.00    -0.386 OA
ATOM     34  H   LIG A   1      -7.021   2.190 133.133  0.00  0.00    +0.210 HD
ENDBRANCH  27  33
BRANCH  25  35
ATOM     35  C   LIG A   1     -11.266   4.448 130.313  0.00  0.00    +0.266 C 
BRANCH  35  36
ATOM     36  O   LIG A   1     -10.988   5.571 131.170  0.00  0.00    -0.462 OA
BRANCH  36  37
ATOM     37  C   LIG A   1     -11.803   6.648 131.027  0.00  0.00    +0.304 C 
ATOM     38  C   LIG A   1     -11.317   7.514 129.904  0.00  0.00    +0.136 C 
ATOM     39  O   LIG A   1     -12.789   6.881 131.709  0.00  0.00    -0.251 OA
ENDBRANCH  36  37
ENDBRANCH  35  36
ENDBRANCH  25  35
ENDBRANCH  22  23
ENDBRANCH   4  22
TORSDOF 16
ENDMDL
MODEL 4
REMARK VINA RESULT:      -6.7      2.613      8.172
REMARK  Name = NuBBE_331
REMARK  20 active torsions:
REMARK  status: ('A' for Active; 'I' for Inactive)
REMARK    1  A    between atoms: C_2  and  O_3
REMARK    2  A    between atoms: C_2  and  C_5
REMARK    3  A    between atoms: O_3  and  C_4
REMARK    4  A    between atoms: C_8  and  O_9
REMARK    5  A    between atoms: O_9  and  C_10
REMARK    6  A    between atoms: C_13  and  C_15
REMARK    7  A    between atoms: C_15  and  O_16
REMARK    8  A    between atoms: O_16  and  C_17
REMARK    9  A    between atoms: C_17  and  C_18
REMARK   10  A    between atoms: C_20  and  O_22
REMARK   11  A    between atoms: C_23  and  O_25
REMARK   12  A    between atoms: C_26  and  O_28
REMARK   13  A    between atoms: C_29  and  C_30
REMARK   14  A    between atoms: C_30  and  O_32
REMARK   15  A    between atoms: C_30  and  C_36
REMARK   16  A    between atoms: O_32  and  C_33
REMARK   17  A    between atoms: C_33  and  C_34
REMARK   18  A    between atoms: C_37  and  C_39
REMARK   19  A    between atoms: C_39  and  C_40
REMARK   20  A    between atoms: C_40  and  O_41
REMARK                            x       y       z     vdW  Elec       q    Type
REMARK                         _______ _______ _______ _____ _____    ______ ____
ROOT
ATOM      1  C   LIG A   1      -5.725   3.509 128.373  0.00  0.00    +0.075 C 
ATOM      2  C   LIG A   1      -5.616   2.191 128.583  0.00  0.00    +0.201 C 
ATOM      3  O   LIG A   1      -6.625   1.271 128.439  0.00  0.00    -0.470 OA
ATOM      4  C   LIG A   1      -7.874   1.728 127.890  0.00  0.00    +0.316 C 
ATOM      5  C   LIG A   1      -8.187   3.172 128.353  0.00  0.00    +0.106 C 
ATOM      6  C   LIG A   1      -7.016   4.109 127.873  0.00  0.00    +0.052 C 
ENDROOT
BRANCH   5   7
ATOM      7  C   LIG A   1      -8.364   3.254 129.918  0.00  0.00    +0.183 C 
ATOM      8  C   LIG A   1      -9.747   2.842 130.436  0.00  0.00    +0.052 C 
BRANCH   7   9
ATOM      9  O   LIG A   1      -8.166   4.629 130.341  0.00  0.00    -0.461 OA
BRANCH   9  10
ATOM     10  C   LIG A   1      -7.547   4.820 131.539  0.00  0.00    +0.304 C 
ATOM     11  C   LIG A   1      -7.834   6.188 132.067  0.00  0.00    +0.136 C 
ATOM     12  O   LIG A   1      -6.791   4.030 132.087  0.00  0.00    -0.251 OA
ENDBRANCH   9  10
ENDBRANCH   7   9
ENDBRANCH   5   7
BRANCH   1  14
ATOM     13  O   LIG A   1      -3.389   4.000 128.696  0.00  0.00    -0.245 OA
ATOM     14  C   LIG A   1      -4.567   4.361 128.735  0.00  0.00    +0.338 C 
BRANCH  14  15
ATOM     15  O   LIG A   1      -5.004   5.609 129.009  0.00  0.00    -0.465 OA
ATOM     16  C   LIG A   1      -4.487   6.237 130.174  0.00  0.00    +0.280 C 
ENDBRANCH  14  15
ENDBRANCH   1  14
BRANCH   6  17
ATOM     17  C   LIG A   1      -6.869   4.348 126.355  0.00  0.00    +0.129 C 
BRANCH  17  18
ATOM     18  C   LIG A   1      -8.106   4.846 125.672  0.00  0.00    +0.305 C 
ATOM     19  O   LIG A   1      -8.884   5.689 126.085  0.00  0.00    -0.251 OA
BRANCH  18  20
ATOM     20  O   LIG A   1      -8.336   4.233 124.496  0.00  0.00    -0.481 OA
ATOM     21  H   LIG A   1      -8.783   4.926 123.962  0.00  0.00    +0.295 HD
ENDBRANCH  18  20
ENDBRANCH  17  18
ENDBRANCH   6  17
BRANCH   4  22
ATOM     22  O   LIG A   1      -7.916   1.677 126.457  0.00  0.00    -0.309 OA
BRANCH  22  23
ATOM     23  C   LIG A   1      -8.709   0.606 125.936  0.00  0.00    +0.286 C 
ATOM     24  O   LIG A   1      -7.910  -0.573 125.916  0.00  0.00    -0.339 OA
ATOM     25  C   LIG A   1      -8.575  -1.743 125.443  0.00  0.00    +0.190 C 
ATOM     26  C   LIG A   1      -8.967  -1.524 123.977  0.00  0.00    +0.178 C 
ATOM     27  C   LIG A   1      -9.844  -0.277 123.873  0.00  0.00    +0.179 C 
ATOM     28  C   LIG A   1      -9.150   0.942 124.489  0.00  0.00    +0.201 C 
BRANCH  26  29
ATOM     29  O   LIG A   1      -9.693  -2.626 123.432  0.00  0.00    -0.386 OA
ATOM     30  H   LIG A   1     -10.012  -3.167 124.176  0.00  0.00    +0.210 HD
ENDBRANCH  26  29
BRANCH  28  31
ATOM     31  O   LIG A   1     -10.067   2.043 124.429  0.00  0.00    -0.384 OA
ATOM     32  H   LIG A   1      -9.752   2.670 125.112  0.00  0.00    +0.210 HD
ENDBRANCH  28  31
BRANCH  27  33
ATOM     33  O   LIG A   1     -10.139  -0.018 122.489  0.00  0.00    -0.386 OA
ATOM     34  H   LIG A   1     -11.112   0.080 122.452  0.00  0.00    +0.210 HD
ENDBRANCH  27  33
BRANCH  25  35
ATOM     35  C   LIG A   1      -7.579  -2.906 125.558  0.00  0.00    +0.266 C 
BRANCH  35  36
ATOM     36  O   LIG A   1      -6.923  -3.196 124.310  0.00  0.00    -0.462 OA
BRANCH  36  37
ATOM     37  C   LIG A   1      -5.602  -2.886 124.242  0.00  0.00    +0.304 C 
ATOM     38  C   LIG A   1      -4.816  -4.083 123.801  0.00  0.00    +0.136 C 
ATOM     39  O   LIG A   1      -5.120  -1.794 124.499  0.00  0.00    -0.251 OA
ENDBRANCH  36  37
ENDBRANCH  35  36
ENDBRANCH  25  35
ENDBRANCH  22  23
ENDBRANCH   4  22
TORSDOF 16
ENDMDL
MODEL 5
REMARK VINA RESULT:      -6.7      2.175      7.942
REMARK  Name = NuBBE_331
REMARK  20 active torsions:
REMARK  status: ('A' for Active; 'I' for Inactive)
REMARK    1  A    between atoms: C_2  and  O_3
REMARK    2  A    between atoms: C_2  and  C_5
REMARK    3  A    between atoms: O_3  and  C_4
REMARK    4  A    between atoms: C_8  and  O_9
REMARK    5  A    between atoms: O_9  and  C_10
REMARK    6  A    between atoms: C_13  and  C_15
REMARK    7  A    between atoms: C_15  and  O_16
REMARK    8  A    between atoms: O_16  and  C_17
REMARK    9  A    between atoms: C_17  and  C_18
REMARK   10  A    between atoms: C_20  and  O_22
REMARK   11  A    between atoms: C_23  and  O_25
REMARK   12  A    between atoms: C_26  and  O_28
REMARK   13  A    between atoms: C_29  and  C_30
REMARK   14  A    between atoms: C_30  and  O_32
REMARK   15  A    between atoms: C_30  and  C_36
REMARK   16  A    between atoms: O_32  and  C_33
REMARK   17  A    between atoms: C_33  and  C_34
REMARK   18  A    between atoms: C_37  and  C_39
REMARK   19  A    between atoms: C_39  and  C_40
REMARK   20  A    between atoms: C_40  and  O_41
REMARK                            x       y       z     vdW  Elec       q    Type
REMARK                         _______ _______ _______ _____ _____    ______ ____
ROOT
ATOM      1  C   LIG A   1      -7.894   5.440 130.641  0.00  0.00    +0.075 C 
ATOM      2  C   LIG A   1      -6.717   5.297 130.021  0.00  0.00    +0.201 C 
ATOM      3  O   LIG A   1      -6.498   4.574 128.875  0.00  0.00    -0.470 OA
ATOM      4  C   LIG A   1      -7.644   4.027 128.199  0.00  0.00    +0.316 C 
ATOM      5  C   LIG A   1      -8.725   3.582 129.215  0.00  0.00    +0.106 C 
ATOM      6  C   LIG A   1      -9.152   4.838 130.064  0.00  0.00    +0.052 C 
ENDROOT
BRANCH   5   7
ATOM      7  C   LIG A   1      -8.200   2.426 130.151  0.00  0.00    +0.183 C 
ATOM      8  C   LIG A   1      -7.888   1.106 129.437  0.00  0.00    +0.052 C 
BRANCH   7   9
ATOM      9  O   LIG A   1      -9.222   2.121 131.137  0.00  0.00    -0.461 OA
BRANCH   9  10
ATOM     10  C   LIG A   1      -8.800   1.920 132.417  0.00  0.00    +0.304 C 
ATOM     11  C   LIG A   1      -9.274   3.022 133.307  0.00  0.00    +0.136 C 
ATOM     12  O   LIG A   1      -8.066   1.016 132.793  0.00  0.00    -0.251 OA
ENDBRANCH   9  10
ENDBRANCH   7   9
ENDBRANCH   5   7
BRANCH   1  14
ATOM     13  O   LIG A   1      -8.915   6.480 132.559  0.00  0.00    -0.245 OA
ATOM     14  C   LIG A   1      -7.901   6.127 131.955  0.00  0.00    +0.338 C 
BRANCH  14  15
ATOM     15  O   LIG A   1      -6.635   6.206 132.420  0.00  0.00    -0.465 OA
ATOM     16  C   LIG A   1      -6.370   5.617 133.685  0.00  0.00    +0.280 C 
ENDBRANCH  14  15
ENDBRANCH   1  14
BRANCH   6  17
ATOM     17  C   LIG A   1      -9.923   5.961 129.339  0.00  0.00    +0.129 C 
BRANCH  17  18
ATOM     18  C   LIG A   1     -11.347   6.132 129.772  0.00  0.00    +0.305 C 
ATOM     19  O   LIG A   1     -12.347   5.886 129.119  0.00  0.00    -0.251 OA
BRANCH  18  20
ATOM     20  O   LIG A   1     -11.459   6.641 131.013  0.00  0.00    -0.481 OA
ATOM     21  H   LIG A   1     -12.268   7.195 130.960  0.00  0.00    +0.295 HD
ENDBRANCH  18  20
ENDBRANCH  17  18
ENDBRANCH   6  17
BRANCH   4  22
ATOM     22  O   LIG A   1      -8.234   4.934 127.257  0.00  0.00    -0.309 OA
BRANCH  22  23
ATOM     23  C   LIG A   1      -8.242   4.449 125.911  0.00  0.00    +0.286 C 
ATOM     24  O   LIG A   1      -8.583   3.066 125.935  0.00  0.00    -0.339 OA
ATOM     25  C   LIG A   1      -8.659   2.442 124.654  0.00  0.00    +0.190 C 
ATOM     26  C   LIG A   1      -7.269   2.481 124.009  0.00  0.00    +0.178 C 
ATOM     27  C   LIG A   1      -6.796   3.931 123.919  0.00  0.00    +0.179 C 
ATOM     28  C   LIG A   1      -6.831   4.611 125.292  0.00  0.00    +0.201 C 
BRANCH  26  29
ATOM     29  O   LIG A   1      -7.259   1.926 122.693  0.00  0.00    -0.386 OA
ATOM     30  H   LIG A   1      -6.959   2.623 122.082  0.00  0.00    +0.210 HD
ENDBRANCH  26  29
BRANCH  28  31
ATOM     31  O   LIG A   1      -6.458   5.983 125.108  0.00  0.00    -0.384 OA
ATOM     32  H   LIG A   1      -7.307   6.467 125.045  0.00  0.00    +0.210 HD
ENDBRANCH  28  31
BRANCH  27  33
ATOM     33  O   LIG A   1      -5.456   3.962 123.397  0.00  0.00    -0.386 OA
ATOM     34  H   LIG A   1      -5.544   3.691 122.461  0.00  0.00    +0.210 HD
ENDBRANCH  27  33
BRANCH  25  35
ATOM     35  C   LIG A   1      -9.098   0.989 124.886  0.00  0.00    +0.266 C 
BRANCH  35  36
ATOM     36  O   LIG A   1      -8.011   0.056 124.744  0.00  0.00    -0.462 OA
BRANCH  36  37
ATOM     37  C   LIG A   1      -8.336  -1.173 124.265  0.00  0.00    +0.304 C 
ATOM     38  C   LIG A   1      -9.147  -1.037 123.012  0.00  0.00    +0.136 C 
ATOM     39  O   LIG A   1      -8.017  -2.236 124.774  0.00  0.00    -0.251 OA
ENDBRANCH  36  37
ENDBRANCH  35  36
ENDBRANCH  25  35
ENDBRANCH  22  23
ENDBRANCH   4  22
TORSDOF 16
ENDMDL
MODEL 6
REMARK VINA RESULT:      -6.7      2.297      3.340
REMARK  Name = NuBBE_331
REMARK  20 active torsions:
REMARK  status: ('A' for Active; 'I' for Inactive)
REMARK    1  A    between atoms: C_2  and  O_3
REMARK    2  A    between atoms: C_2  and  C_5
REMARK    3  A    between atoms: O_3  and  C_4
REMARK    4  A    between atoms: C_8  and  O_9
REMARK    5  A    between atoms: O_9  and  C_10
REMARK    6  A    between atoms: C_13  and  C_15
REMARK    7  A    between atoms: C_15  and  O_16
REMARK    8  A    between atoms: O_16  and  C_17
REMARK    9  A    between atoms: C_17  and  C_18
REMARK   10  A    between atoms: C_20  and  O_22
REMARK   11  A    between atoms: C_23  and  O_25
REMARK   12  A    between atoms: C_26  and  O_28
REMARK   13  A    between atoms: C_29  and  C_30
REMARK   14  A    between atoms: C_30  and  O_32
REMARK   15  A    between atoms: C_30  and  C_36
REMARK   16  A    between atoms: O_32  and  C_33
REMARK   17  A    between atoms: C_33  and  C_34
REMARK   18  A    between atoms: C_37  and  C_39
REMARK   19  A    between atoms: C_39  and  C_40
REMARK   20  A    between atoms: C_40  and  O_41
REMARK                            x       y       z     vdW  Elec       q    Type
REMARK                         _______ _______ _______ _____ _____    ______ ____
ROOT
ATOM      1  C   LIG A   1      -6.561   2.270 127.221  0.00  0.00    +0.075 C 
ATOM      2  C   LIG A   1      -7.855   2.275 126.875  0.00  0.00    +0.201 C 
ATOM      3  O   LIG A   1      -8.916   2.292 127.746  0.00  0.00    -0.470 OA
ATOM      4  C   LIG A   1      -8.630   2.451 129.147  0.00  0.00    +0.316 C 
ATOM      5  C   LIG A   1      -7.313   1.732 129.528  0.00  0.00    +0.106 C 
ATOM      6  C   LIG A   1      -6.146   2.351 128.670  0.00  0.00    +0.052 C 
ENDROOT
BRANCH   5   7
ATOM      7  C   LIG A   1      -7.413   0.175 129.296  0.00  0.00    +0.183 C 
ATOM      8  C   LIG A   1      -8.037  -0.613 130.453  0.00  0.00    +0.052 C 
BRANCH   7   9
ATOM      9  O   LIG A   1      -6.075  -0.359 129.118  0.00  0.00    -0.461 OA
BRANCH   9  10
ATOM     10  C   LIG A   1      -5.959  -1.486 128.361  0.00  0.00    +0.304 C 
ATOM     11  C   LIG A   1      -6.772  -1.368 127.114  0.00  0.00    +0.136 C 
ATOM     12  O   LIG A   1      -5.347  -2.498 128.676  0.00  0.00    -0.251 OA
ENDBRANCH   9  10
ENDBRANCH   7   9
ENDBRANCH   5   7
BRANCH   1  14
ATOM     13  O   LIG A   1      -4.608   1.310 126.189  0.00  0.00    -0.245 OA
ATOM     14  C   LIG A   1      -5.561   2.090 126.141  0.00  0.00    +0.338 C 
BRANCH  14  15
ATOM     15  O   LIG A   1      -5.924   2.833 125.073  0.00  0.00    -0.465 OA
ATOM     16  C   LIG A   1      -5.305   4.103 124.926  0.00  0.00    +0.280 C 
ENDBRANCH  14  15
ENDBRANCH   1  14
BRANCH   6  17
ATOM     17  C   LIG A   1      -5.742   3.811 128.964  0.00  0.00    +0.129 C 
BRANCH  17  18
ATOM     18  C   LIG A   1      -5.090   4.030 130.295  0.00  0.00    +0.305 C 
ATOM     19  O   LIG A   1      -3.913   3.872 130.571  0.00  0.00    -0.251 OA
BRANCH  18  20
ATOM     20  O   LIG A   1      -5.961   4.413 131.248  0.00  0.00    -0.481 OA
ATOM     21  H   LIG A   1      -5.602   5.274 131.552  0.00  0.00    +0.295 HD
ENDBRANCH  18  20
ENDBRANCH  17  18
ENDBRANCH   6  17
BRANCH   4  22
ATOM     22  O   LIG A   1      -8.550   3.822 129.558  0.00  0.00    -0.309 OA
BRANCH  22  23
ATOM     23  C   LIG A   1      -9.719   4.297 130.232  0.00  0.00    +0.286 C 
ATOM     24  O   LIG A   1     -10.388   5.217 129.375  0.00  0.00    -0.339 OA
ATOM     25  C   LIG A   1     -11.597   5.762 129.901  0.00  0.00    +0.190 C 
ATOM     26  C   LIG A   1     -11.261   6.581 131.151  0.00  0.00    +0.178 C 
ATOM     27  C   LIG A   1     -10.541   5.687 132.160  0.00  0.00    +0.179 C 
ATOM     28  C   LIG A   1      -9.307   5.028 131.535  0.00  0.00    +0.201 C 
BRANCH  26  29
ATOM     29  O   LIG A   1     -12.422   7.121 131.783  0.00  0.00    -0.386 OA
ATOM     30  H   LIG A   1     -12.145   7.903 132.293  0.00  0.00    +0.210 HD
ENDBRANCH  26  29
BRANCH  28  31
ATOM     31  O   LIG A   1      -8.742   4.145 132.513  0.00  0.00    -0.384 OA
ATOM     32  H   LIG A   1      -9.153   4.414 133.361  0.00  0.00    +0.210 HD
ENDBRANCH  28  31
BRANCH  27  33
ATOM     33  O   LIG A   1     -10.145   6.477 133.296  0.00  0.00    -0.386 OA
ATOM     34  H   LIG A   1     -10.362   5.925 134.074  0.00  0.00    +0.210 HD
ENDBRANCH  27  33
BRANCH  25  35
ATOM     35  C   LIG A   1     -12.194   6.668 128.815  0.00  0.00    +0.266 C 
BRANCH  35  36
ATOM     36  O   LIG A   1     -11.549   6.498 127.540  0.00  0.00    -0.462 OA
BRANCH  36  37
ATOM     37  C   LIG A   1     -11.040   7.623 126.972  0.00  0.00    +0.304 C 
ATOM     38  C   LIG A   1     -10.565   8.565 128.038  0.00  0.00    +0.136 C 
ATOM     39  O   LIG A   1     -10.973   7.840 125.772  0.00  0.00    -0.251 OA
ENDBRANCH  36  37
ENDBRANCH  35  36
ENDBRANCH  25  35
ENDBRANCH  22  23
ENDBRANCH   4  22
TORSDOF 16
ENDMDL
MODEL 7
REMARK VINA RESULT:      -6.7      1.865      2.124
REMARK  Name = NuBBE_331
REMARK  20 active torsions:
REMARK  status: ('A' for Active; 'I' for Inactive)
REMARK    1  A    between atoms: C_2  and  O_3
REMARK    2  A    between atoms: C_2  and  C_5
REMARK    3  A    between atoms: O_3  and  C_4
REMARK    4  A    between atoms: C_8  and  O_9
REMARK    5  A    between atoms: O_9  and  C_10
REMARK    6  A    between atoms: C_13  and  C_15
REMARK    7  A    between atoms: C_15  and  O_16
REMARK    8  A    between atoms: O_16  and  C_17
REMARK    9  A    between atoms: C_17  and  C_18
REMARK   10  A    between atoms: C_20  and  O_22
REMARK   11  A    between atoms: C_23  and  O_25
REMARK   12  A    between atoms: C_26  and  O_28
REMARK   13  A    between atoms: C_29  and  C_30
REMARK   14  A    between atoms: C_30  and  O_32
REMARK   15  A    between atoms: C_30  and  C_36
REMARK   16  A    between atoms: O_32  and  C_33
REMARK   17  A    between atoms: C_33  and  C_34
REMARK   18  A    between atoms: C_37  and  C_39
REMARK   19  A    between atoms: C_39  and  C_40
REMARK   20  A    between atoms: C_40  and  O_41
REMARK                            x       y       z     vdW  Elec       q    Type
REMARK                         _______ _______ _______ _____ _____    ______ ____
ROOT
ATOM      1  C   LIG A   1      -7.888   2.027 124.696  0.00  0.00    +0.075 C 
ATOM      2  C   LIG A   1      -9.080   1.809 125.266  0.00  0.00    +0.201 C 
ATOM      3  O   LIG A   1      -9.288   1.191 126.474  0.00  0.00    -0.470 OA
ATOM      4  C   LIG A   1      -8.134   0.864 127.266  0.00  0.00    +0.316 C 
ATOM      5  C   LIG A   1      -6.944   0.448 126.367  0.00  0.00    +0.106 C 
ATOM      6  C   LIG A   1      -6.610   1.649 125.404  0.00  0.00    +0.052 C 
ENDROOT
BRANCH   5   7
ATOM      7  C   LIG A   1      -7.269  -0.857 125.542  0.00  0.00    +0.183 C 
ATOM      8  C   LIG A   1      -7.845  -2.016 126.364  0.00  0.00    +0.052 C 
BRANCH   7   9
ATOM      9  O   LIG A   1      -6.040  -1.354 124.949  0.00  0.00    -0.461 OA
BRANCH   9  10
ATOM     10  C   LIG A   1      -6.094  -1.715 123.636  0.00  0.00    +0.304 C 
ATOM     11  C   LIG A   1      -5.311  -2.966 123.402  0.00  0.00    +0.136 C 
ATOM     12  O   LIG A   1      -6.632  -1.077 122.741  0.00  0.00    -0.251 OA
ENDBRANCH   9  10
ENDBRANCH   7   9
ENDBRANCH   5   7
BRANCH   1  14
ATOM     13  O   LIG A   1      -8.796   3.199 122.798  0.00  0.00    -0.245 OA
ATOM     14  C   LIG A   1      -7.875   2.565 123.314  0.00  0.00    +0.338 C 
BRANCH  14  15
ATOM     15  O   LIG A   1      -6.663   2.338 122.762  0.00  0.00    -0.465 OA
ATOM     16  C   LIG A   1      -6.034   3.430 122.106  0.00  0.00    +0.280 C 
ENDBRANCH  14  15
ENDBRANCH   1  14
BRANCH   6  17
ATOM     17  C   LIG A   1      -6.024   2.929 126.036  0.00  0.00    +0.129 C 
BRANCH  17  18
ATOM     18  C   LIG A   1      -4.769   2.725 126.828  0.00  0.00    +0.305 C 
ATOM     19  O   LIG A   1      -3.663   2.451 126.392  0.00  0.00    -0.251 OA
BRANCH  18  20
ATOM     20  O   LIG A   1      -4.962   2.842 128.154  0.00  0.00    -0.481 OA
ATOM     21  H   LIG A   1      -5.346   1.974 128.406  0.00  0.00    +0.295 HD
ENDBRANCH  18  20
ENDBRANCH  17  18
ENDBRANCH   6  17
BRANCH   4  22
ATOM     22  O   LIG A   1      -7.716   1.931 128.129  0.00  0.00    -0.309 OA
BRANCH  22  23
ATOM     23  C   LIG A   1      -8.721   2.358 129.053  0.00  0.00    +0.286 C 
ATOM     24  O   LIG A   1      -8.773   3.782 129.032  0.00  0.00    -0.339 OA
ATOM     25  C   LIG A   1      -9.753   4.363 129.890  0.00  0.00    +0.190 C 
ATOM     26  C   LIG A   1      -9.401   4.015 131.340  0.00  0.00    +0.178 C 
ATOM     27  C   LIG A   1      -9.327   2.497 131.490  0.00  0.00    +0.179 C 
ATOM     28  C   LIG A   1      -8.347   1.888 130.481  0.00  0.00    +0.201 C 
BRANCH  26  29
ATOM     29  O   LIG A   1     -10.364   4.509 132.272  0.00  0.00    -0.386 OA
ATOM     30  H   LIG A   1     -10.037   4.311 133.168  0.00  0.00    +0.210 HD
ENDBRANCH  26  29
BRANCH  28  31
ATOM     31  O   LIG A   1      -8.400   0.462 130.629  0.00  0.00    -0.384 OA
ATOM     32  H   LIG A   1      -9.352   0.239 130.571  0.00  0.00    +0.210 HD
ENDBRANCH  28  31
BRANCH  27  33
ATOM     33  O   LIG A   1      -8.909   2.172 132.828  0.00  0.00    -0.386 OA
ATOM     34  H   LIG A   1      -9.673   2.403 133.394  0.00  0.00    +0.210 HD
ENDBRANCH  27  33
BRANCH  25  35
ATOM     35  C   LIG A   1      -9.696   5.882 129.677  0.00  0.00    +0.266 C 
BRANCH  35  36
ATOM     36  O   LIG A   1     -10.773   6.364 128.853  0.00  0.00    -0.462 OA
BRANCH  36  37
ATOM     37  C   LIG A   1     -10.413   6.946 127.679  0.00  0.00    +0.304 C 
ATOM     38  C   LIG A   1     -10.910   8.360 127.634  0.00  0.00    +0.136 C 
ATOM     39  O   LIG A   1      -9.777   6.405 126.789  0.00  0.00    -0.251 OA
ENDBRANCH  36  37
ENDBRANCH  35  36
ENDBRANCH  25  35
ENDBRANCH  22  23
ENDBRANCH   4  22
TORSDOF 16
ENDMDL
MODEL 8
REMARK VINA RESULT:      -6.6      4.423      8.592
REMARK  Name = NuBBE_331
REMARK  20 active torsions:
REMARK  status: ('A' for Active; 'I' for Inactive)
REMARK    1  A    between atoms: C_2  and  O_3
REMARK    2  A    between atoms: C_2  and  C_5
REMARK    3  A    between atoms: O_3  and  C_4
REMARK    4  A    between atoms: C_8  and  O_9
REMARK    5  A    between atoms: O_9  and  C_10
REMARK    6  A    between atoms: C_13  and  C_15
REMARK    7  A    between atoms: C_15  and  O_16
REMARK    8  A    between atoms: O_16  and  C_17
REMARK    9  A    between atoms: C_17  and  C_18
REMARK   10  A    between atoms: C_20  and  O_22
REMARK   11  A    between atoms: C_23  and  O_25
REMARK   12  A    between atoms: C_26  and  O_28
REMARK   13  A    between atoms: C_29  and  C_30
REMARK   14  A    between atoms: C_30  and  O_32
REMARK   15  A    between atoms: C_30  and  C_36
REMARK   16  A    between atoms: O_32  and  C_33
REMARK   17  A    between atoms: C_33  and  C_34
REMARK   18  A    between atoms: C_37  and  C_39
REMARK   19  A    between atoms: C_39  and  C_40
REMARK   20  A    between atoms: C_40  and  O_41
REMARK                            x       y       z     vdW  Elec       q    Type
REMARK                         _______ _______ _______ _____ _____    ______ ____
ROOT
ATOM      1  C   LIG A   1      -6.431  -3.132 130.011  0.00  0.00    +0.075 C 
ATOM      2  C   LIG A   1      -7.654  -3.313 129.498  0.00  0.00    +0.201 C 
ATOM      3  O   LIG A   1      -8.196  -2.609 128.452  0.00  0.00    -0.470 OA
ATOM      4  C   LIG A   1      -7.342  -1.686 127.752  0.00  0.00    +0.316 C 
ATOM      5  C   LIG A   1      -6.347  -1.008 128.725  0.00  0.00    +0.106 C 
ATOM      6  C   LIG A   1      -5.478  -2.130 129.406  0.00  0.00    +0.052 C 
ENDROOT
BRANCH   5   7
ATOM      7  C   LIG A   1      -7.096  -0.143 129.811  0.00  0.00    +0.183 C 
ATOM      8  C   LIG A   1      -8.137   0.836 129.255  0.00  0.00    +0.052 C 
BRANCH   7   9
ATOM      9  O   LIG A   1      -6.121   0.665 130.521  0.00  0.00    -0.461 OA
BRANCH   9  10
ATOM     10  C   LIG A   1      -5.966   0.413 131.851  0.00  0.00    +0.304 C 
ATOM     11  C   LIG A   1      -4.537   0.117 132.168  0.00  0.00    +0.136 C 
ATOM     12  O   LIG A   1      -6.868   0.351 132.676  0.00  0.00    -0.251 OA
ENDBRANCH   9  10
ENDBRANCH   7   9
ENDBRANCH   5   7
BRANCH   1  14
ATOM     13  O   LIG A   1      -5.673  -5.041 131.269  0.00  0.00    -0.245 OA
ATOM     14  C   LIG A   1      -6.084  -3.880 131.244  0.00  0.00    +0.338 C 
BRANCH  14  15
ATOM     15  O   LIG A   1      -6.192  -3.055 132.308  0.00  0.00    -0.465 OA
ATOM     16  C   LIG A   1      -7.323  -3.226 133.150  0.00  0.00    +0.280 C 
ENDBRANCH  14  15
ENDBRANCH   1  14
BRANCH   6  17
ATOM     17  C   LIG A   1      -4.484  -2.903 128.514  0.00  0.00    +0.129 C 
BRANCH  17  18
ATOM     18  C   LIG A   1      -3.183  -3.248 129.171  0.00  0.00    +0.305 C 
ATOM     19  O   LIG A   1      -2.649  -2.659 130.096  0.00  0.00    -0.251 OA
BRANCH  18  20
ATOM     20  O   LIG A   1      -2.579  -4.312 128.610  0.00  0.00    -0.481 OA
ATOM     21  H   LIG A   1      -2.744  -4.188 127.650  0.00  0.00    +0.295 HD
ENDBRANCH  18  20
ENDBRANCH  17  18
ENDBRANCH   6  17
BRANCH   4  22
ATOM     22  O   LIG A   1      -6.607  -2.294 126.681  0.00  0.00    -0.309 OA
BRANCH  22  23
ATOM     23  C   LIG A   1      -7.112  -1.981 125.379  0.00  0.00    +0.286 C 
ATOM     24  O   LIG A   1      -7.599  -0.643 125.398  0.00  0.00    -0.339 OA
ATOM     25  C   LIG A   1      -8.115  -0.172 124.154  0.00  0.00    +0.190 C 
ATOM     26  C   LIG A   1      -9.337  -1.018 123.780  0.00  0.00    +0.178 C 
ATOM     27  C   LIG A   1      -8.931  -2.489 123.719  0.00  0.00    +0.179 C 
ATOM     28  C   LIG A   1      -8.279  -2.939 125.030  0.00  0.00    +0.201 C 
BRANCH  26  29
ATOM     29  O   LIG A   1      -9.890  -0.655 122.514  0.00  0.00    -0.386 OA
ATOM     30  H   LIG A   1     -10.112   0.293 122.550  0.00  0.00    +0.210 HD
ENDBRANCH  26  29
BRANCH  28  31
ATOM     31  O   LIG A   1      -7.852  -4.297 124.861  0.00  0.00    -0.384 OA
ATOM     32  H   LIG A   1      -7.362  -4.510 125.681  0.00  0.00    +0.210 HD
ENDBRANCH  28  31
BRANCH  27  33
ATOM     33  O   LIG A   1     -10.096  -3.293 123.457  0.00  0.00    -0.386 OA
ATOM     34  H   LIG A   1      -9.745  -4.171 123.207  0.00  0.00    +0.210 HD
ENDBRANCH  27  33
BRANCH  25  35
ATOM     35  C   LIG A   1      -8.525   1.293 124.361  0.00  0.00    +0.266 C 
BRANCH  35  36
ATOM     36  O   LIG A   1      -8.949   1.925 123.139  0.00  0.00    -0.462 OA
BRANCH  36  37
ATOM     37  C   LIG A   1      -8.046   2.750 122.547  0.00  0.00    +0.304 C 
ATOM     38  C   LIG A   1      -8.665   3.420 121.358  0.00  0.00    +0.136 C 
ATOM     39  O   LIG A   1      -6.898   2.926 122.925  0.00  0.00    -0.251 OA
ENDBRANCH  36  37
ENDBRANCH  35  36
ENDBRANCH  25  35
ENDBRANCH  22  23
ENDBRANCH   4  22
TORSDOF 16
ENDMDL
MODEL 9
REMARK VINA RESULT:      -6.6      3.396      6.380
REMARK  Name = NuBBE_331
REMARK  20 active torsions:
REMARK  status: ('A' for Active; 'I' for Inactive)
REMARK    1  A    between atoms: C_2  and  O_3
REMARK    2  A    between atoms: C_2  and  C_5
REMARK    3  A    between atoms: O_3  and  C_4
REMARK    4  A    between atoms: C_8  and  O_9
REMARK    5  A    between atoms: O_9  and  C_10
REMARK    6  A    between atoms: C_13  and  C_15
REMARK    7  A    between atoms: C_15  and  O_16
REMARK    8  A    between atoms: O_16  and  C_17
REMARK    9  A    between atoms: C_17  and  C_18
REMARK   10  A    between atoms: C_20  and  O_22
REMARK   11  A    between atoms: C_23  and  O_25
REMARK   12  A    between atoms: C_26  and  O_28
REMARK   13  A    between atoms: C_29  and  C_30
REMARK   14  A    between atoms: C_30  and  O_32
REMARK   15  A    between atoms: C_30  and  C_36
REMARK   16  A    between atoms: O_32  and  C_33
REMARK   17  A    between atoms: C_33  and  C_34
REMARK   18  A    between atoms: C_37  and  C_39
REMARK   19  A    between atoms: C_39  and  C_40
REMARK   20  A    between atoms: C_40  and  O_41
REMARK                            x       y       z     vdW  Elec       q    Type
REMARK                         _______ _______ _______ _____ _____    ______ ____
ROOT
ATOM      1  C   LIG A   1      -7.552  -1.749 126.360  0.00  0.00    +0.075 C 
ATOM      2  C   LIG A   1      -8.026  -0.684 127.017  0.00  0.00    +0.201 C 
ATOM      3  O   LIG A   1      -7.274   0.223 127.721  0.00  0.00    -0.470 OA
ATOM      4  C   LIG A   1      -5.842   0.108 127.644  0.00  0.00    +0.316 C 
ATOM      5  C   LIG A   1      -5.410  -1.376 127.564  0.00  0.00    +0.106 C 
ATOM      6  C   LIG A   1      -6.068  -2.014 126.283  0.00  0.00    +0.052 C 
ENDROOT
BRANCH   5   7
ATOM      7  C   LIG A   1      -5.825  -2.172 128.861  0.00  0.00    +0.183 C 
ATOM      8  C   LIG A   1      -5.972  -1.318 130.126  0.00  0.00    +0.052 C 
BRANCH   7   9
ATOM      9  O   LIG A   1      -4.798  -3.156 129.155  0.00  0.00    -0.461 OA
BRANCH   9  10
ATOM     10  C   LIG A   1      -5.024  -3.981 130.216  0.00  0.00    +0.304 C 
ATOM     11  C   LIG A   1      -3.920  -3.865 131.216  0.00  0.00    +0.136 C 
ATOM     12  O   LIG A   1      -5.949  -4.774 130.320  0.00  0.00    -0.251 OA
ENDBRANCH   9  10
ENDBRANCH   7   9
ENDBRANCH   5   7
BRANCH   1  14
ATOM     13  O   LIG A   1      -8.574  -3.908 126.049  0.00  0.00    -0.245 OA
ATOM     14  C   LIG A   1      -8.536  -2.703 125.794  0.00  0.00    +0.338 C 
BRANCH  14  15
ATOM     15  O   LIG A   1      -9.433  -2.023 125.047  0.00  0.00    -0.465 OA
ATOM     16  C   LIG A   1      -9.097  -1.783 123.688  0.00  0.00    +0.280 C 
ENDBRANCH  14  15
ENDBRANCH   1  14
BRANCH   6  17
ATOM     17  C   LIG A   1      -5.572  -1.524 124.907  0.00  0.00    +0.129 C 
BRANCH  17  18
ATOM     18  C   LIG A   1      -5.373  -2.602 123.886  0.00  0.00    +0.305 C 
ATOM     19  O   LIG A   1      -4.888  -3.706 124.070  0.00  0.00    -0.251 OA
BRANCH  18  20
ATOM     20  O   LIG A   1      -5.765  -2.234 122.652  0.00  0.00    -0.481 OA
ATOM     21  H   LIG A   1      -5.226  -2.803 122.062  0.00  0.00    +0.295 HD
ENDBRANCH  18  20
ENDBRANCH  17  18
ENDBRANCH   6  17
BRANCH   4  22
ATOM     22  O   LIG A   1      -5.274   0.821 126.536  0.00  0.00    -0.309 OA
BRANCH  22  23
ATOM     23  C   LIG A   1      -5.898   2.081 126.274  0.00  0.00    +0.286 C 
ATOM     24  O   LIG A   1      -5.757   2.370 124.885  0.00  0.00    -0.339 OA
ATOM     25  C   LIG A   1      -6.357   3.592 124.460  0.00  0.00    +0.190 C 
ATOM     26  C   LIG A   1      -5.650   4.755 125.165  0.00  0.00    +0.178 C 
ATOM     27  C   LIG A   1      -5.745   4.559 126.677  0.00  0.00    +0.179 C 
ATOM     28  C   LIG A   1      -5.194   3.191 127.094  0.00  0.00    +0.201 C 
BRANCH  26  29
ATOM     29  O   LIG A   1      -6.224   6.022 124.843  0.00  0.00    -0.386 OA
ATOM     30  H   LIG A   1      -5.821   6.686 125.431  0.00  0.00    +0.210 HD
ENDBRANCH  26  29
BRANCH  28  31
ATOM     31  O   LIG A   1      -5.397   3.052 128.507  0.00  0.00    -0.384 OA
ATOM     32  H   LIG A   1      -5.300   3.958 128.865  0.00  0.00    +0.210 HD
ENDBRANCH  28  31
BRANCH  27  33
ATOM     33  O   LIG A   1      -5.005   5.600 127.338  0.00  0.00    -0.386 OA
ATOM     34  H   LIG A   1      -5.290   5.558 128.274  0.00  0.00    +0.210 HD
ENDBRANCH  27  33
BRANCH  25  35
ATOM     35  C   LIG A   1      -6.156   3.689 122.941  0.00  0.00    +0.266 C 
BRANCH  35  36
ATOM     36  O   LIG A   1      -4.967   4.420 122.589  0.00  0.00    -0.462 OA
BRANCH  36  37
ATOM     37  C   LIG A   1      -4.939   4.948 121.337  0.00  0.00    +0.304 C 
ATOM     38  C   LIG A   1      -5.713   4.076 120.395  0.00  0.00    +0.136 C 
ATOM     39  O   LIG A   1      -4.370   5.981 121.019  0.00  0.00    -0.251 OA
ENDBRANCH  36  37
ENDBRANCH  35  36
ENDBRANCH  25  35
ENDBRANCH  22  23
ENDBRANCH   4  22
TORSDOF 16
ENDMDL
