MODEL 1
REMARK VINA RESULT:      -7.4      0.000      0.000
REMARK  Name = NuBBE_153
REMARK  14 active torsions:
REMARK  status: ('A' for Active; 'I' for Inactive)
REMARK    1  A    between atoms: O_1  and  C_2
REMARK    2  A    between atoms: C_2  and  C_3
REMARK    3  A    between atoms: C_5  and  C_6
REMARK    4  A    between atoms: C_6  and  C_7
REMARK    5  A    between atoms: C_7  and  C_8
REMARK    6  A    between atoms: C_8  and  C_9
REMARK    7  A    between atoms: C_8  and  C_10
REMARK    8  A    between atoms: C_13  and  C_14
REMARK    9  A    between atoms: C_13  and  C_20
REMARK   10  A    between atoms: C_14  and  C_15
REMARK   11  A    between atoms: C_15  and  C_16
REMARK   12  A    between atoms: C_16  and  C_17
REMARK   13  A    between atoms: C_17  and  C_18
REMARK   14  A    between atoms: C_17  and  C_19
REMARK                            x       y       z     vdW  Elec       q    Type
REMARK                         _______ _______ _______ _____ _____    ______ ____
ROOT
ATOM      1  C   LIG A   1      -4.348   3.824 126.357  0.00  0.00    +0.060 A 
ATOM      2  C   LIG A   1      -4.812   4.304 125.127  0.00  0.00    +0.022 A 
ATOM      3  C   LIG A   1      -5.628   3.489 124.313  0.00  0.00    -0.005 A 
ATOM      4  C   LIG A   1      -5.956   2.207 124.767  0.00  0.00    +0.128 A 
ATOM      5  O   LIG A   1      -6.755   1.484 123.932  0.00  0.00    -0.485 OA
ATOM      6  C   LIG A   1      -7.243   0.220 124.366  0.00  0.00    +0.108 C 
ATOM      7  C   LIG A   1      -8.696   0.164 123.875  0.00  0.00    +0.056 C 
ATOM      8  C   LIG A   1      -7.259   0.033 125.902  0.00  0.00    +0.052 C 
ATOM      9  C   LIG A   1      -5.926   0.399 126.527  0.00  0.00    +0.043 C 
ATOM     10  C   LIG A   1      -5.508   1.739 126.010  0.00  0.00    -0.004 A 
ATOM     11  C   LIG A   1      -4.659   2.539 126.781  0.00  0.00    +0.022 A 
ENDROOT
BRANCH   1  12
ATOM     12  C   LIG A   1      -3.511   4.704 127.191  0.00  0.00    +0.337 C 
ATOM     13  O   LIG A   1      -3.985   5.662 127.784  0.00  0.00    -0.245 OA
BRANCH  12  14
ATOM     14  O   LIG A   1      -2.191   4.365 127.271  0.00  0.00    -0.477 OA
ATOM     15  H   LIG A   1      -2.011   3.677 127.883  0.00  0.00    +0.295 HD
ENDBRANCH  12  14
ENDBRANCH   1  12
BRANCH   3  16
ATOM     16  C   LIG A   1      -6.181   4.020 123.004  0.00  0.00    +0.039 C 
BRANCH  16  17
ATOM     17  C   LIG A   1      -5.128   4.238 121.904  0.00  0.00    +0.008 C 
BRANCH  17  18
ATOM     18  C   LIG A   1      -5.718   4.124 120.478  0.00  0.00    -0.017 C 
ATOM     19  C   LIG A   1      -7.233   3.898 120.497  0.00  0.00    +0.007 C 
ATOM     20  C   LIG A   1      -5.412   5.371 119.643  0.00  0.00    +0.007 C 
ENDBRANCH  17  18
ENDBRANCH  16  17
ENDBRANCH   3  16
BRANCH   6  21
ATOM     21  C   LIG A   1      -6.389  -0.893 123.728  0.00  0.00    +0.048 C 
BRANCH  21  22
ATOM     22  C   LIG A   1      -7.106  -2.148 123.211  0.00  0.00    +0.004 C 
BRANCH  22  23
ATOM     23  C   LIG A   1      -7.291  -3.261 124.267  0.00  0.00    +0.003 C 
BRANCH  23  24
ATOM     24  C   LIG A   1      -8.745  -3.727 124.544  0.00  0.00    -0.017 C 
ATOM     25  C   LIG A   1      -9.294  -3.082 125.822  0.00  0.00    +0.007 C 
ATOM     26  C   LIG A   1      -9.740  -3.418 123.424  0.00  0.00    +0.007 C 
ENDBRANCH  23  24
ENDBRANCH  22  23
ENDBRANCH  21  22
ENDBRANCH   6  21
TORSDOF 9
ENDMDL
MODEL 2
REMARK VINA RESULT:      -7.4      1.606      2.275
REMARK  Name = NuBBE_153
REMARK  14 active torsions:
REMARK  status: ('A' for Active; 'I' for Inactive)
REMARK    1  A    between atoms: O_1  and  C_2
REMARK    2  A    between atoms: C_2  and  C_3
REMARK    3  A    between atoms: C_5  and  C_6
REMARK    4  A    between atoms: C_6  and  C_7
REMARK    5  A    between atoms: C_7  and  C_8
REMARK    6  A    between atoms: C_8  and  C_9
REMARK    7  A    between atoms: C_8  and  C_10
REMARK    8  A    between atoms: C_13  and  C_14
REMARK    9  A    between atoms: C_13  and  C_20
REMARK   10  A    between atoms: C_14  and  C_15
REMARK   11  A    between atoms: C_15  and  C_16
REMARK   12  A    between atoms: C_16  and  C_17
REMARK   13  A    between atoms: C_17  and  C_18
REMARK   14  A    between atoms: C_17  and  C_19
REMARK                            x       y       z     vdW  Elec       q    Type
REMARK                         _______ _______ _______ _____ _____    ______ ____
ROOT
ATOM      1  C   LIG A   1      -5.790   3.374 125.663  0.00  0.00    +0.060 A 
ATOM      2  C   LIG A   1      -5.918   3.744 124.319  0.00  0.00    +0.022 A 
ATOM      3  C   LIG A   1      -6.685   2.953 123.437  0.00  0.00    -0.005 A 
ATOM      4  C   LIG A   1      -7.307   1.804 123.939  0.00  0.00    +0.128 A 
ATOM      5  O   LIG A   1      -8.038   1.098 123.031  0.00  0.00    -0.485 OA
ATOM      6  C   LIG A   1      -8.808  -0.012 123.478  0.00  0.00    +0.108 C 
ATOM      7  C   LIG A   1     -10.125   0.076 122.696  0.00  0.00    +0.056 C 
ATOM      8  C   LIG A   1      -9.154   0.015 124.985  0.00  0.00    +0.052 C 
ATOM      9  C   LIG A   1      -7.927   0.266 125.841  0.00  0.00    +0.043 C 
ATOM     10  C   LIG A   1      -7.196   1.450 125.291  0.00  0.00    -0.004 A 
ATOM     11  C   LIG A   1      -6.391   2.216 126.139  0.00  0.00    +0.022 A 
ENDROOT
BRANCH   1  12
ATOM     12  C   LIG A   1      -4.996   4.228 126.561  0.00  0.00    +0.337 C 
ATOM     13  O   LIG A   1      -3.786   4.344 126.426  0.00  0.00    -0.245 OA
BRANCH  12  14
ATOM     14  O   LIG A   1      -5.699   4.888 127.527  0.00  0.00    -0.477 OA
ATOM     15  H   LIG A   1      -5.877   5.787 127.321  0.00  0.00    +0.295 HD
ENDBRANCH  12  14
ENDBRANCH   1  12
BRANCH   3  16
ATOM     16  C   LIG A   1      -6.873   3.376 121.992  0.00  0.00    +0.039 C 
BRANCH  16  17
ATOM     17  C   LIG A   1      -5.656   4.075 121.365  0.00  0.00    +0.008 C 
BRANCH  17  18
ATOM     18  C   LIG A   1      -5.846   4.369 119.857  0.00  0.00    -0.017 C 
ATOM     19  C   LIG A   1      -7.311   4.256 119.426  0.00  0.00    +0.007 C 
ATOM     20  C   LIG A   1      -5.325   5.762 119.488  0.00  0.00    +0.007 C 
ENDBRANCH  17  18
ENDBRANCH  16  17
ENDBRANCH   3  16
BRANCH   6  21
ATOM     21  C   LIG A   1      -8.046  -1.313 123.155  0.00  0.00    +0.048 C 
BRANCH  21  22
ATOM     22  C   LIG A   1      -6.559  -1.208 122.790  0.00  0.00    +0.004 C 
BRANCH  22  23
ATOM     23  C   LIG A   1      -5.859  -2.567 122.563  0.00  0.00    +0.003 C 
BRANCH  23  24
ATOM     24  C   LIG A   1      -4.871  -3.038 123.663  0.00  0.00    -0.017 C 
ATOM     25  C   LIG A   1      -5.484  -2.873 125.058  0.00  0.00    +0.007 C 
ATOM     26  C   LIG A   1      -4.424  -4.496 123.539  0.00  0.00    +0.007 C 
ENDBRANCH  23  24
ENDBRANCH  22  23
ENDBRANCH  21  22
ENDBRANCH   6  21
TORSDOF 9
ENDMDL
MODEL 3
REMARK VINA RESULT:      -7.0      3.767      5.826
REMARK  Name = NuBBE_153
REMARK  14 active torsions:
REMARK  status: ('A' for Active; 'I' for Inactive)
REMARK    1  A    between atoms: O_1  and  C_2
REMARK    2  A    between atoms: C_2  and  C_3
REMARK    3  A    between atoms: C_5  and  C_6
REMARK    4  A    between atoms: C_6  and  C_7
REMARK    5  A    between atoms: C_7  and  C_8
REMARK    6  A    between atoms: C_8  and  C_9
REMARK    7  A    between atoms: C_8  and  C_10
REMARK    8  A    between atoms: C_13  and  C_14
REMARK    9  A    between atoms: C_13  and  C_20
REMARK   10  A    between atoms: C_14  and  C_15
REMARK   11  A    between atoms: C_15  and  C_16
REMARK   12  A    between atoms: C_16  and  C_17
REMARK   13  A    between atoms: C_17  and  C_18
REMARK   14  A    between atoms: C_17  and  C_19
REMARK                            x       y       z     vdW  Elec       q    Type
REMARK                         _______ _______ _______ _____ _____    ______ ____
ROOT
ATOM      1  C   LIG A   1      -7.869  -2.342 128.017  0.00  0.00    +0.060 A 
ATOM      2  C   LIG A   1      -7.703  -0.972 127.781  0.00  0.00    +0.022 A 
ATOM      3  C   LIG A   1      -7.906  -0.449 126.485  0.00  0.00    -0.005 A 
ATOM      4  C   LIG A   1      -8.273  -1.327 125.460  0.00  0.00    +0.128 A 
ATOM      5  O   LIG A   1      -8.461  -0.746 124.241  0.00  0.00    -0.485 OA
ATOM      6  C   LIG A   1      -8.958  -1.538 123.168  0.00  0.00    +0.108 C 
ATOM      7  C   LIG A   1      -9.952  -0.630 122.432  0.00  0.00    +0.056 C 
ATOM      8  C   LIG A   1      -9.721  -2.808 123.611  0.00  0.00    +0.052 C 
ATOM      9  C   LIG A   1      -8.932  -3.615 124.625  0.00  0.00    +0.043 C 
ATOM     10  C   LIG A   1      -8.462  -2.693 125.706  0.00  0.00    -0.004 A 
ATOM     11  C   LIG A   1      -8.207  -3.205 126.982  0.00  0.00    +0.022 A 
ENDROOT
BRANCH   1  12
ATOM     12  C   LIG A   1      -7.666  -2.856 129.381  0.00  0.00    +0.337 C 
ATOM     13  O   LIG A   1      -8.085  -2.253 130.360  0.00  0.00    -0.245 OA
BRANCH  12  14
ATOM     14  O   LIG A   1      -7.005  -4.047 129.475  0.00  0.00    -0.477 OA
ATOM     15  H   LIG A   1      -7.515  -4.787 129.201  0.00  0.00    +0.295 HD
ENDBRANCH  12  14
ENDBRANCH   1  12
BRANCH   3  16
ATOM     16  C   LIG A   1      -7.782   1.042 126.232  0.00  0.00    +0.039 C 
BRANCH  16  17
ATOM     17  C   LIG A   1      -6.399   1.495 125.733  0.00  0.00    +0.008 C 
BRANCH  17  18
ATOM     18  C   LIG A   1      -5.400   1.752 126.888  0.00  0.00    -0.017 C 
ATOM     19  C   LIG A   1      -4.112   2.421 126.399  0.00  0.00    +0.007 C 
ATOM     20  C   LIG A   1      -6.025   2.618 127.987  0.00  0.00    +0.007 C 
ENDBRANCH  17  18
ENDBRANCH  16  17
ENDBRANCH   3  16
BRANCH   6  21
ATOM     21  C   LIG A   1      -7.783  -1.942 122.257  0.00  0.00    +0.048 C 
BRANCH  21  22
ATOM     22  C   LIG A   1      -6.367  -1.521 122.673  0.00  0.00    +0.004 C 
BRANCH  22  23
ATOM     23  C   LIG A   1      -5.324  -2.661 122.642  0.00  0.00    +0.003 C 
BRANCH  23  24
ATOM     24  C   LIG A   1      -5.242  -3.570 123.897  0.00  0.00    -0.017 C 
ATOM     25  C   LIG A   1      -4.127  -4.612 123.748  0.00  0.00    +0.007 C 
ATOM     26  C   LIG A   1      -4.986  -2.825 125.209  0.00  0.00    +0.007 C 
ENDBRANCH  23  24
ENDBRANCH  22  23
ENDBRANCH  21  22
ENDBRANCH   6  21
TORSDOF 9
ENDMDL
MODEL 4
REMARK VINA RESULT:      -7.0      4.436      7.035
REMARK  Name = NuBBE_153
REMARK  14 active torsions:
REMARK  status: ('A' for Active; 'I' for Inactive)
REMARK    1  A    between atoms: O_1  and  C_2
REMARK    2  A    between atoms: C_2  and  C_3
REMARK    3  A    between atoms: C_5  and  C_6
REMARK    4  A    between atoms: C_6  and  C_7
REMARK    5  A    between atoms: C_7  and  C_8
REMARK    6  A    between atoms: C_8  and  C_9
REMARK    7  A    between atoms: C_8  and  C_10
REMARK    8  A    between atoms: C_13  and  C_14
REMARK    9  A    between atoms: C_13  and  C_20
REMARK   10  A    between atoms: C_14  and  C_15
REMARK   11  A    between atoms: C_15  and  C_16
REMARK   12  A    between atoms: C_16  and  C_17
REMARK   13  A    between atoms: C_17  and  C_18
REMARK   14  A    between atoms: C_17  and  C_19
REMARK                            x       y       z     vdW  Elec       q    Type
REMARK                         _______ _______ _______ _____ _____    ______ ____
ROOT
ATOM      1  C   LIG A   1      -9.193   0.433 125.516  0.00  0.00    +0.060 A 
ATOM      2  C   LIG A   1      -9.210  -0.885 125.046  0.00  0.00    +0.022 A 
ATOM      3  C   LIG A   1      -8.537  -1.899 125.761  0.00  0.00    -0.005 A 
ATOM      4  C   LIG A   1      -7.865  -1.553 126.938  0.00  0.00    +0.128 A 
ATOM      5  O   LIG A   1      -7.250  -2.588 127.578  0.00  0.00    -0.485 OA
ATOM      6  C   LIG A   1      -6.649  -2.355 128.848  0.00  0.00    +0.108 C 
ATOM      7  C   LIG A   1      -6.987  -3.598 129.682  0.00  0.00    +0.056 C 
ATOM      8  C   LIG A   1      -7.201  -1.121 129.600  0.00  0.00    +0.052 C 
ATOM      9  C   LIG A   1      -7.219   0.114 128.719  0.00  0.00    +0.043 C 
ATOM     10  C   LIG A   1      -7.871  -0.237 127.419  0.00  0.00    -0.004 A 
ATOM     11  C   LIG A   1      -8.498   0.766 126.672  0.00  0.00    +0.022 A 
ENDROOT
BRANCH   1  12
ATOM     12  C   LIG A   1      -9.916   1.466 124.756  0.00  0.00    +0.337 C 
ATOM     13  O   LIG A   1     -10.892   1.190 124.073  0.00  0.00    -0.245 OA
BRANCH  12  14
ATOM     14  O   LIG A   1      -9.440   2.739 124.884  0.00  0.00    -0.477 OA
ATOM     15  H   LIG A   1      -9.178   2.962 125.758  0.00  0.00    +0.295 HD
ENDBRANCH  12  14
ENDBRANCH   1  12
BRANCH   3  16
ATOM     16  C   LIG A   1      -8.596  -3.340 125.288  0.00  0.00    +0.039 C 
BRANCH  16  17
ATOM     17  C   LIG A   1      -7.693  -3.657 124.084  0.00  0.00    +0.008 C 
BRANCH  17  18
ATOM     18  C   LIG A   1      -6.394  -2.815 124.072  0.00  0.00    -0.017 C 
ATOM     19  C   LIG A   1      -5.138  -3.689 124.137  0.00  0.00    +0.007 C 
ATOM     20  C   LIG A   1      -6.316  -1.924 122.828  0.00  0.00    +0.007 C 
ENDBRANCH  17  18
ENDBRANCH  16  17
ENDBRANCH   3  16
BRANCH   6  21
ATOM     21  C   LIG A   1      -5.128  -2.198 128.661  0.00  0.00    +0.048 C 
BRANCH  21  22
ATOM     22  C   LIG A   1      -4.201  -2.851 129.695  0.00  0.00    +0.004 C 
BRANCH  22  23
ATOM     23  C   LIG A   1      -3.251  -1.869 130.416  0.00  0.00    +0.003 C 
BRANCH  23  24
ATOM     24  C   LIG A   1      -3.730  -1.306 131.781  0.00  0.00    -0.017 C 
ATOM     25  C   LIG A   1      -4.181   0.153 131.645  0.00  0.00    +0.007 C 
ATOM     26  C   LIG A   1      -4.889  -2.076 132.417  0.00  0.00    +0.007 C 
ENDBRANCH  23  24
ENDBRANCH  22  23
ENDBRANCH  21  22
ENDBRANCH   6  21
TORSDOF 9
ENDMDL
MODEL 5
REMARK VINA RESULT:      -7.0      2.940      5.043
REMARK  Name = NuBBE_153
REMARK  14 active torsions:
REMARK  status: ('A' for Active; 'I' for Inactive)
REMARK    1  A    between atoms: O_1  and  C_2
REMARK    2  A    between atoms: C_2  and  C_3
REMARK    3  A    between atoms: C_5  and  C_6
REMARK    4  A    between atoms: C_6  and  C_7
REMARK    5  A    between atoms: C_7  and  C_8
REMARK    6  A    between atoms: C_8  and  C_9
REMARK    7  A    between atoms: C_8  and  C_10
REMARK    8  A    between atoms: C_13  and  C_14
REMARK    9  A    between atoms: C_13  and  C_20
REMARK   10  A    between atoms: C_14  and  C_15
REMARK   11  A    between atoms: C_15  and  C_16
REMARK   12  A    between atoms: C_16  and  C_17
REMARK   13  A    between atoms: C_17  and  C_18
REMARK   14  A    between atoms: C_17  and  C_19
REMARK                            x       y       z     vdW  Elec       q    Type
REMARK                         _______ _______ _______ _____ _____    ______ ____
ROOT
ATOM      1  C   LIG A   1      -7.714   1.975 124.276  0.00  0.00    +0.060 A 
ATOM      2  C   LIG A   1      -6.760   1.807 125.286  0.00  0.00    +0.022 A 
ATOM      3  C   LIG A   1      -6.109   0.563 125.443  0.00  0.00    -0.005 A 
ATOM      4  C   LIG A   1      -6.439  -0.478 124.569  0.00  0.00    +0.128 A 
ATOM      5  O   LIG A   1      -5.762  -1.643 124.776  0.00  0.00    -0.485 OA
ATOM      6  C   LIG A   1      -5.939  -2.717 123.858  0.00  0.00    +0.108 C 
ATOM      7  C   LIG A   1      -4.539  -3.319 123.676  0.00  0.00    +0.056 C 
ATOM      8  C   LIG A   1      -6.452  -2.289 122.464  0.00  0.00    +0.052 C 
ATOM      9  C   LIG A   1      -7.670  -1.389 122.563  0.00  0.00    +0.043 C 
ATOM     10  C   LIG A   1      -7.377  -0.298 123.543  0.00  0.00    -0.004 A 
ATOM     11  C   LIG A   1      -8.051   0.923 123.434  0.00  0.00    +0.022 A 
ENDROOT
BRANCH   1  12
ATOM     12  C   LIG A   1      -8.365   3.288 124.128  0.00  0.00    +0.337 C 
ATOM     13  O   LIG A   1      -8.813   3.890 125.093  0.00  0.00    -0.245 OA
BRANCH  12  14
ATOM     14  O   LIG A   1      -8.412   3.787 122.859  0.00  0.00    -0.477 OA
ATOM     15  H   LIG A   1      -9.129   4.375 122.707  0.00  0.00    +0.295 HD
ENDBRANCH  12  14
ENDBRANCH   1  12
BRANCH   3  16
ATOM     16  C   LIG A   1      -5.035   0.387 126.500  0.00  0.00    +0.039 C 
BRANCH  16  17
ATOM     17  C   LIG A   1      -5.204   1.280 127.740  0.00  0.00    +0.008 C 
BRANCH  17  18
ATOM     18  C   LIG A   1      -3.986   2.205 127.983  0.00  0.00    -0.017 C 
ATOM     19  C   LIG A   1      -3.422   2.771 126.676  0.00  0.00    +0.007 C 
ATOM     20  C   LIG A   1      -4.343   3.368 128.915  0.00  0.00    +0.007 C 
ENDBRANCH  17  18
ENDBRANCH  16  17
ENDBRANCH   3  16
BRANCH   6  21
ATOM     21  C   LIG A   1      -6.917  -3.740 124.468  0.00  0.00    +0.048 C 
BRANCH  21  22
ATOM     22  C   LIG A   1      -8.422  -3.469 124.337  0.00  0.00    +0.004 C 
BRANCH  22  23
ATOM     23  C   LIG A   1      -9.103  -2.993 125.640  0.00  0.00    +0.003 C 
BRANCH  23  24
ATOM     24  C   LIG A   1      -8.290  -3.152 126.953  0.00  0.00    -0.017 C 
ATOM     25  C   LIG A   1      -7.979  -1.785 127.574  0.00  0.00    +0.007 C 
ATOM     26  C   LIG A   1      -8.979  -3.988 128.033  0.00  0.00    +0.007 C 
ENDBRANCH  23  24
ENDBRANCH  22  23
ENDBRANCH  21  22
ENDBRANCH   6  21
TORSDOF 9
ENDMDL
MODEL 6
REMARK VINA RESULT:      -6.9      3.152      7.733
REMARK  Name = NuBBE_153
REMARK  14 active torsions:
REMARK  status: ('A' for Active; 'I' for Inactive)
REMARK    1  A    between atoms: O_1  and  C_2
REMARK    2  A    between atoms: C_2  and  C_3
REMARK    3  A    between atoms: C_5  and  C_6
REMARK    4  A    between atoms: C_6  and  C_7
REMARK    5  A    between atoms: C_7  and  C_8
REMARK    6  A    between atoms: C_8  and  C_9
REMARK    7  A    between atoms: C_8  and  C_10
REMARK    8  A    between atoms: C_13  and  C_14
REMARK    9  A    between atoms: C_13  and  C_20
REMARK   10  A    between atoms: C_14  and  C_15
REMARK   11  A    between atoms: C_15  and  C_16
REMARK   12  A    between atoms: C_16  and  C_17
REMARK   13  A    between atoms: C_17  and  C_18
REMARK   14  A    between atoms: C_17  and  C_19
REMARK                            x       y       z     vdW  Elec       q    Type
REMARK                         _______ _______ _______ _____ _____    ______ ____
ROOT
ATOM      1  C   LIG A   1      -4.866  -3.566 123.950  0.00  0.00    +0.060 A 
ATOM      2  C   LIG A   1      -4.773  -3.103 125.268  0.00  0.00    +0.022 A 
ATOM      3  C   LIG A   1      -5.611  -2.056 125.710  0.00  0.00    -0.005 A 
ATOM      4  C   LIG A   1      -6.527  -1.507 124.806  0.00  0.00    +0.128 A 
ATOM      5  O   LIG A   1      -7.308  -0.509 125.309  0.00  0.00    -0.485 OA
ATOM      6  C   LIG A   1      -8.353   0.023 124.502  0.00  0.00    +0.108 C 
ATOM      7  C   LIG A   1      -9.531   0.231 125.463  0.00  0.00    +0.056 C 
ATOM      8  C   LIG A   1      -8.830  -0.918 123.371  0.00  0.00    +0.052 C 
ATOM      9  C   LIG A   1      -7.668  -1.453 122.556  0.00  0.00    +0.043 C 
ATOM     10  C   LIG A   1      -6.634  -1.990 123.495  0.00  0.00    -0.004 A 
ATOM     11  C   LIG A   1      -5.761  -2.991 123.057  0.00  0.00    +0.022 A 
ENDROOT
BRANCH   1  12
ATOM     12  C   LIG A   1      -3.988  -4.668 123.523  0.00  0.00    +0.337 C 
ATOM     13  O   LIG A   1      -2.772  -4.545 123.505  0.00  0.00    -0.245 OA
BRANCH  12  14
ATOM     14  O   LIG A   1      -4.619  -5.828 123.174  0.00  0.00    -0.477 OA
ATOM     15  H   LIG A   1      -5.048  -6.258 123.890  0.00  0.00    +0.295 HD
ENDBRANCH  12  14
ENDBRANCH   1  12
BRANCH   3  16
ATOM     16  C   LIG A   1      -5.555  -1.585 127.151  0.00  0.00    +0.039 C 
BRANCH  16  17
ATOM     17  C   LIG A   1      -5.283  -2.696 128.179  0.00  0.00    +0.008 C 
BRANCH  17  18
ATOM     18  C   LIG A   1      -6.437  -2.865 129.197  0.00  0.00    -0.017 C 
ATOM     19  C   LIG A   1      -7.796  -3.022 128.508  0.00  0.00    +0.007 C 
ATOM     20  C   LIG A   1      -6.203  -4.070 130.115  0.00  0.00    +0.007 C 
ENDBRANCH  17  18
ENDBRANCH  16  17
ENDBRANCH   3  16
BRANCH   6  21
ATOM     21  C   LIG A   1      -7.883   1.357 123.890  0.00  0.00    +0.048 C 
BRANCH  21  22
ATOM     22  C   LIG A   1      -8.769   2.015 122.823  0.00  0.00    +0.004 C 
BRANCH  22  23
ATOM     23  C   LIG A   1      -8.219   3.347 122.266  0.00  0.00    +0.003 C 
BRANCH  23  24
ATOM     24  C   LIG A   1      -6.775   3.326 121.699  0.00  0.00    -0.017 C 
ATOM     25  C   LIG A   1      -6.723   3.962 120.305  0.00  0.00    +0.007 C 
ATOM     26  C   LIG A   1      -5.739   4.051 122.560  0.00  0.00    +0.007 C 
ENDBRANCH  23  24
ENDBRANCH  22  23
ENDBRANCH  21  22
ENDBRANCH   6  21
TORSDOF 9
ENDMDL
MODEL 7
REMARK VINA RESULT:      -6.9      2.956      4.858
REMARK  Name = NuBBE_153
REMARK  14 active torsions:
REMARK  status: ('A' for Active; 'I' for Inactive)
REMARK    1  A    between atoms: O_1  and  C_2
REMARK    2  A    between atoms: C_2  and  C_3
REMARK    3  A    between atoms: C_5  and  C_6
REMARK    4  A    between atoms: C_6  and  C_7
REMARK    5  A    between atoms: C_7  and  C_8
REMARK    6  A    between atoms: C_8  and  C_9
REMARK    7  A    between atoms: C_8  and  C_10
REMARK    8  A    between atoms: C_13  and  C_14
REMARK    9  A    between atoms: C_13  and  C_20
REMARK   10  A    between atoms: C_14  and  C_15
REMARK   11  A    between atoms: C_15  and  C_16
REMARK   12  A    between atoms: C_16  and  C_17
REMARK   13  A    between atoms: C_17  and  C_18
REMARK   14  A    between atoms: C_17  and  C_19
REMARK                            x       y       z     vdW  Elec       q    Type
REMARK                         _______ _______ _______ _____ _____    ______ ____
ROOT
ATOM      1  C   LIG A   1      -7.280   3.473 125.458  0.00  0.00    +0.060 A 
ATOM      2  C   LIG A   1      -6.010   3.253 126.004  0.00  0.00    +0.022 A 
ATOM      3  C   LIG A   1      -5.458   1.954 126.009  0.00  0.00    -0.005 A 
ATOM      4  C   LIG A   1      -6.206   0.908 125.458  0.00  0.00    +0.128 A 
ATOM      5  O   LIG A   1      -5.602  -0.314 125.490  0.00  0.00    -0.485 OA
ATOM      6  C   LIG A   1      -6.233  -1.412 124.841  0.00  0.00    +0.108 C 
ATOM      7  C   LIG A   1      -5.091  -2.185 124.167  0.00  0.00    +0.056 C 
ATOM      8  C   LIG A   1      -7.242  -1.011 123.739  0.00  0.00    +0.052 C 
ATOM      9  C   LIG A   1      -8.229   0.030 124.233  0.00  0.00    +0.043 C 
ATOM     10  C   LIG A   1      -7.467   1.136 124.891  0.00  0.00    -0.004 A 
ATOM     11  C   LIG A   1      -8.022   2.419 124.941  0.00  0.00    +0.022 A 
ENDROOT
BRANCH   1  12
ATOM     12  C   LIG A   1      -7.823   4.841 125.454  0.00  0.00    +0.337 C 
ATOM     13  O   LIG A   1      -8.965   5.076 125.823  0.00  0.00    -0.245 OA
BRANCH  12  14
ATOM     14  O   LIG A   1      -6.966   5.818 125.037  0.00  0.00    -0.477 OA
ATOM     15  H   LIG A   1      -6.649   6.369 125.729  0.00  0.00    +0.295 HD
ENDBRANCH  12  14
ENDBRANCH   1  12
BRANCH   3  16
ATOM     16  C   LIG A   1      -4.060   1.716 126.549  0.00  0.00    +0.039 C 
BRANCH  16  17
ATOM     17  C   LIG A   1      -3.716   2.518 127.815  0.00  0.00    +0.008 C 
BRANCH  17  18
ATOM     18  C   LIG A   1      -2.468   3.416 127.635  0.00  0.00    -0.017 C 
ATOM     19  C   LIG A   1      -1.653   3.030 126.397  0.00  0.00    +0.007 C 
ATOM     20  C   LIG A   1      -2.852   4.896 127.535  0.00  0.00    +0.007 C 
ENDBRANCH  17  18
ENDBRANCH  16  17
ENDBRANCH   3  16
BRANCH   6  21
ATOM     21  C   LIG A   1      -6.950  -2.275 125.897  0.00  0.00    +0.048 C 
BRANCH  21  22
ATOM     22  C   LIG A   1      -6.800  -1.884 127.373  0.00  0.00    +0.004 C 
BRANCH  22  23
ATOM     23  C   LIG A   1      -7.990  -1.084 127.949  0.00  0.00    +0.003 C 
BRANCH  23  24
ATOM     24  C   LIG A   1      -7.654   0.026 128.980  0.00  0.00    -0.017 C 
ATOM     25  C   LIG A   1      -6.140   0.137 129.194  0.00  0.00    +0.007 C 
ATOM     26  C   LIG A   1      -8.157   1.421 128.604  0.00  0.00    +0.007 C 
ENDBRANCH  23  24
ENDBRANCH  22  23
ENDBRANCH  21  22
ENDBRANCH   6  21
TORSDOF 9
ENDMDL
MODEL 8
REMARK VINA RESULT:      -6.9      2.051      6.827
REMARK  Name = NuBBE_153
REMARK  14 active torsions:
REMARK  status: ('A' for Active; 'I' for Inactive)
REMARK    1  A    between atoms: O_1  and  C_2
REMARK    2  A    between atoms: C_2  and  C_3
REMARK    3  A    between atoms: C_5  and  C_6
REMARK    4  A    between atoms: C_6  and  C_7
REMARK    5  A    between atoms: C_7  and  C_8
REMARK    6  A    between atoms: C_8  and  C_9
REMARK    7  A    between atoms: C_8  and  C_10
REMARK    8  A    between atoms: C_13  and  C_14
REMARK    9  A    between atoms: C_13  and  C_20
REMARK   10  A    between atoms: C_14  and  C_15
REMARK   11  A    between atoms: C_15  and  C_16
REMARK   12  A    between atoms: C_16  and  C_17
REMARK   13  A    between atoms: C_17  and  C_18
REMARK   14  A    between atoms: C_17  and  C_19
REMARK                            x       y       z     vdW  Elec       q    Type
REMARK                         _______ _______ _______ _____ _____    ______ ____
ROOT
ATOM      1  C   LIG A   1      -9.322   1.138 124.046  0.00  0.00    +0.060 A 
ATOM      2  C   LIG A   1      -8.266   0.222 124.112  0.00  0.00    +0.022 A 
ATOM      3  C   LIG A   1      -7.093   0.546 124.828  0.00  0.00    -0.005 A 
ATOM      4  C   LIG A   1      -7.021   1.791 125.463  0.00  0.00    +0.128 A 
ATOM      5  O   LIG A   1      -5.863   2.027 126.143  0.00  0.00    -0.485 OA
ATOM      6  C   LIG A   1      -5.750   3.212 126.923  0.00  0.00    +0.108 C 
ATOM      7  C   LIG A   1      -5.020   2.778 128.201  0.00  0.00    +0.056 C 
ATOM      8  C   LIG A   1      -7.103   3.833 127.342  0.00  0.00    +0.052 C 
ATOM      9  C   LIG A   1      -8.041   3.991 126.160  0.00  0.00    +0.043 C 
ATOM     10  C   LIG A   1      -8.091   2.695 125.415  0.00  0.00    -0.004 A 
ATOM     11  C   LIG A   1      -9.224   2.380 124.658  0.00  0.00    +0.022 A 
ENDROOT
BRANCH   1  12
ATOM     12  C   LIG A   1     -10.538   0.765 123.304  0.00  0.00    +0.337 C 
ATOM     13  O   LIG A   1     -10.491   0.023 122.333  0.00  0.00    -0.245 OA
BRANCH  12  14
ATOM     14  O   LIG A   1     -11.707   1.280 123.784  0.00  0.00    -0.477 OA
ATOM     15  H   LIG A   1     -11.744   2.219 123.769  0.00  0.00    +0.295 HD
ENDBRANCH  12  14
ENDBRANCH   1  12
BRANCH   3  16
ATOM     16  C   LIG A   1      -5.965  -0.461 124.951  0.00  0.00    +0.039 C 
BRANCH  16  17
ATOM     17  C   LIG A   1      -6.363  -1.793 125.609  0.00  0.00    +0.008 C 
BRANCH  17  18
ATOM     18  C   LIG A   1      -6.255  -2.996 124.641  0.00  0.00    -0.017 C 
ATOM     19  C   LIG A   1      -7.616  -3.642 124.368  0.00  0.00    +0.007 C 
ATOM     20  C   LIG A   1      -5.623  -2.585 123.307  0.00  0.00    +0.007 C 
ENDBRANCH  17  18
ENDBRANCH  16  17
ENDBRANCH   3  16
BRANCH   6  21
ATOM     21  C   LIG A   1      -4.934   4.255 126.135  0.00  0.00    +0.048 C 
BRANCH  21  22
ATOM     22  C   LIG A   1      -4.568   3.937 124.679  0.00  0.00    +0.004 C 
BRANCH  22  23
ATOM     23  C   LIG A   1      -5.551   4.509 123.632  0.00  0.00    +0.003 C 
BRANCH  23  24
ATOM     24  C   LIG A   1      -5.650   3.755 122.280  0.00  0.00    -0.017 C 
ATOM     25  C   LIG A   1      -7.107   3.403 121.953  0.00  0.00    +0.007 C 
ATOM     26  C   LIG A   1      -5.095   4.521 121.078  0.00  0.00    +0.007 C 
ENDBRANCH  23  24
ENDBRANCH  22  23
ENDBRANCH  21  22
ENDBRANCH   6  21
TORSDOF 9
ENDMDL
MODEL 9
REMARK VINA RESULT:      -6.8      3.068      6.553
REMARK  Name = NuBBE_153
REMARK  14 active torsions:
REMARK  status: ('A' for Active; 'I' for Inactive)
REMARK    1  A    between atoms: O_1  and  C_2
REMARK    2  A    between atoms: C_2  and  C_3
REMARK    3  A    between atoms: C_5  and  C_6
REMARK    4  A    between atoms: C_6  and  C_7
REMARK    5  A    between atoms: C_7  and  C_8
REMARK    6  A    between atoms: C_8  and  C_9
REMARK    7  A    between atoms: C_8  and  C_10
REMARK    8  A    between atoms: C_13  and  C_14
REMARK    9  A    between atoms: C_13  and  C_20
REMARK   10  A    between atoms: C_14  and  C_15
REMARK   11  A    between atoms: C_15  and  C_16
REMARK   12  A    between atoms: C_16  and  C_17
REMARK   13  A    between atoms: C_17  and  C_18
REMARK   14  A    between atoms: C_17  and  C_19
REMARK                            x       y       z     vdW  Elec       q    Type
REMARK                         _______ _______ _______ _____ _____    ______ ____
ROOT
ATOM      1  C   LIG A   1      -7.902   1.934 124.655  0.00  0.00    +0.060 A 
ATOM      2  C   LIG A   1      -6.901   0.963 124.536  0.00  0.00    +0.022 A 
ATOM      3  C   LIG A   1      -6.276   0.447 125.692  0.00  0.00    -0.005 A 
ATOM      4  C   LIG A   1      -6.682   0.927 126.942  0.00  0.00    +0.128 A 
ATOM      5  O   LIG A   1      -6.040   0.374 128.010  0.00  0.00    -0.485 OA
ATOM      6  C   LIG A   1      -6.474   0.707 129.324  0.00  0.00    +0.108 C 
ATOM      7  C   LIG A   1      -6.406  -0.610 130.110  0.00  0.00    +0.056 C 
ATOM      8  C   LIG A   1      -7.928   1.227 129.405  0.00  0.00    +0.052 C 
ATOM      9  C   LIG A   1      -8.187   2.333 128.399  0.00  0.00    +0.043 C 
ATOM     10  C   LIG A   1      -7.701   1.882 127.058  0.00  0.00    -0.004 A 
ATOM     11  C   LIG A   1      -8.274   2.420 125.902  0.00  0.00    +0.022 A 
ENDROOT
BRANCH   1  12
ATOM     12  C   LIG A   1      -8.546   2.443 123.433  0.00  0.00    +0.337 C 
ATOM     13  O   LIG A   1      -9.334   1.758 122.795  0.00  0.00    -0.245 OA
BRANCH  12  14
ATOM     14  O   LIG A   1      -8.223   3.721 123.079  0.00  0.00    -0.477 OA
ATOM     15  H   LIG A   1      -8.127   3.847 122.154  0.00  0.00    +0.295 HD
ENDBRANCH  12  14
ENDBRANCH   1  12
BRANCH   3  16
ATOM     16  C   LIG A   1      -5.229  -0.645 125.575  0.00  0.00    +0.039 C 
BRANCH  16  17
ATOM     17  C   LIG A   1      -5.774  -2.011 125.128  0.00  0.00    +0.008 C 
BRANCH  17  18
ATOM     18  C   LIG A   1      -5.154  -2.497 123.796  0.00  0.00    -0.017 C 
ATOM     19  C   LIG A   1      -4.854  -3.999 123.812  0.00  0.00    +0.007 C 
ATOM     20  C   LIG A   1      -6.068  -2.185 122.606  0.00  0.00    +0.007 C 
ENDBRANCH  17  18
ENDBRANCH  16  17
ENDBRANCH   3  16
BRANCH   6  21
ATOM     21  C   LIG A   1      -5.521   1.765 129.913  0.00  0.00    +0.048 C 
BRANCH  21  22
ATOM     22  C   LIG A   1      -4.105   1.866 129.333  0.00  0.00    +0.004 C 
BRANCH  22  23
ATOM     23  C   LIG A   1      -3.869   3.095 128.427  0.00  0.00    +0.003 C 
BRANCH  23  24
ATOM     24  C   LIG A   1      -3.454   2.813 126.958  0.00  0.00    -0.017 C 
ATOM     25  C   LIG A   1      -4.297   3.641 125.981  0.00  0.00    +0.007 C 
ATOM     26  C   LIG A   1      -1.986   3.104 126.641  0.00  0.00    +0.007 C 
ENDBRANCH  23  24
ENDBRANCH  22  23
ENDBRANCH  21  22
ENDBRANCH   6  21
TORSDOF 9
ENDMDL
