MODEL 1
REMARK VINA RESULT:      -6.5      0.000      0.000
REMARK  Name = NuBBE_1897
REMARK  10 active torsions:
REMARK  status: ('A' for Active; 'I' for Inactive)
REMARK    1  A    between atoms: C_1  and  C_2
REMARK    2  A    between atoms: C_2  and  O_3
REMARK    3  A    between atoms: C_2  and  C_4
REMARK    4  A    between atoms: C_2  and  C_23
REMARK    5  A    between atoms: C_6  and  O_22
REMARK    6  A    between atoms: C_11  and  C_12
REMARK    7  A    between atoms: C_12  and  O_13
REMARK    8  A    between atoms: C_16  and  C_17
REMARK    9  A    between atoms: C_17  and  O_18
REMARK   10  A    between atoms: O_18  and  C_19
REMARK                            x       y       z     vdW  Elec       q    Type
REMARK                         _______ _______ _______ _____ _____    ______ ____
ROOT
ATOM      1  C   LIG A   1      -8.695  -0.948 124.975  0.00  0.00    +0.061 C 
ATOM      2  C   LIG A   1      -8.763  -0.690 123.467  0.00  0.00    +0.191 C 
ATOM      3  C   LIG A   1      -8.810   0.808 123.223  0.00  0.00    +0.192 C 
ATOM      4  C   LIG A   1      -7.700   1.608 123.783  0.00  0.00    +0.029 A 
ATOM      5  C   LIG A   1      -7.055   1.105 124.940  0.00  0.00    -0.031 A 
ATOM      6  C   LIG A   1      -5.998   1.854 125.513  0.00  0.00    -0.018 A 
ATOM      7  C   LIG A   1      -5.626   3.071 124.923  0.00  0.00    +0.006 A 
ATOM      8  C   LIG A   1      -6.272   3.550 123.786  0.00  0.00    +0.007 A 
ATOM      9  C   LIG A   1      -7.296   2.817 123.174  0.00  0.00    -0.011 A 
ATOM     10  C   LIG A   1      -7.440  -0.233 125.539  0.00  0.00    +0.045 C 
ATOM     11  O   LIG A   1      -9.734   1.323 122.584  0.00  0.00    -0.289 OA
ENDROOT
BRANCH   1  13
ATOM     12  C   LIG A   1      -8.285  -2.744 126.821  0.00  0.00    +0.041 C 
ATOM     13  C   LIG A   1      -8.702  -2.466 125.369  0.00  0.00    +0.066 C 
ATOM     14  C   LIG A   1      -7.770  -3.294 124.466  0.00  0.00    +0.041 C 
BRANCH  13  15
ATOM     15  O   LIG A   1     -10.023  -2.986 125.167  0.00  0.00    -0.389 OA
ATOM     16  H   LIG A   1     -10.640  -2.233 125.130  0.00  0.00    +0.210 HD
ENDBRANCH  13  15
ENDBRANCH   1  13
BRANCH   2  17
ATOM     17  O   LIG A   1      -9.943  -1.253 122.895  0.00  0.00    -0.384 OA
ATOM     18  H   LIG A   1      -9.824  -1.230 121.920  0.00  0.00    +0.210 HD
ENDBRANCH   2  17
BRANCH   6  19
ATOM     19  C   LIG A   1      -5.210   1.397 126.719  0.00  0.00    +0.191 C 
BRANCH  19  20
ATOM     20  O   LIG A   1      -3.862   1.825 126.618  0.00  0.00    -0.390 OA
ATOM     21  H   LIG A   1      -3.693   2.433 127.356  0.00  0.00    +0.210 HD
ENDBRANCH  19  20
ENDBRANCH   6  19
BRANCH   9  22
ATOM     22  C   LIG A   1      -7.930   3.349 121.903  0.00  0.00    +0.195 C 
BRANCH  22  23
ATOM     23  O   LIG A   1      -6.912   3.813 121.005  0.00  0.00    -0.378 OA
ATOM     24  C   LIG A   1      -7.453   4.187 119.747  0.00  0.00    +0.194 C 
ENDBRANCH  22  23
ENDBRANCH   9  22
TORSDOF 7
ENDMDL
MODEL 2
REMARK VINA RESULT:      -6.4      2.795      5.549
REMARK  Name = NuBBE_1897
REMARK  10 active torsions:
REMARK  status: ('A' for Active; 'I' for Inactive)
REMARK    1  A    between atoms: C_1  and  C_2
REMARK    2  A    between atoms: C_2  and  O_3
REMARK    3  A    between atoms: C_2  and  C_4
REMARK    4  A    between atoms: C_2  and  C_23
REMARK    5  A    between atoms: C_6  and  O_22
REMARK    6  A    between atoms: C_11  and  C_12
REMARK    7  A    between atoms: C_12  and  O_13
REMARK    8  A    between atoms: C_16  and  C_17
REMARK    9  A    between atoms: C_17  and  O_18
REMARK   10  A    between atoms: O_18  and  C_19
REMARK                            x       y       z     vdW  Elec       q    Type
REMARK                         _______ _______ _______ _____ _____    ______ ____
ROOT
ATOM      1  C   LIG A   1      -5.334   4.014 126.080  0.00  0.00    +0.061 C 
ATOM      2  C   LIG A   1      -6.287   2.814 126.082  0.00  0.00    +0.191 C 
ATOM      3  C   LIG A   1      -7.427   3.087 125.116  0.00  0.00    +0.192 C 
ATOM      4  C   LIG A   1      -7.054   3.384 123.716  0.00  0.00    +0.029 A 
ATOM      5  C   LIG A   1      -5.787   3.975 123.491  0.00  0.00    -0.031 A 
ATOM      6  C   LIG A   1      -5.404   4.288 122.164  0.00  0.00    -0.018 A 
ATOM      7  C   LIG A   1      -6.292   4.009 121.114  0.00  0.00    +0.006 A 
ATOM      8  C   LIG A   1      -7.534   3.428 121.355  0.00  0.00    +0.007 A 
ATOM      9  C   LIG A   1      -7.928   3.073 122.651  0.00  0.00    -0.011 A 
ATOM     10  C   LIG A   1      -4.821   4.230 124.633  0.00  0.00    +0.045 C 
ATOM     11  O   LIG A   1      -8.603   3.057 125.490  0.00  0.00    -0.289 OA
ENDROOT
BRANCH   1  13
ATOM     12  C   LIG A   1      -4.002   5.068 128.059  0.00  0.00    +0.041 C 
ATOM     13  C   LIG A   1      -4.138   3.886 127.087  0.00  0.00    +0.066 C 
ATOM     14  C   LIG A   1      -2.790   3.745 126.357  0.00  0.00    +0.041 C 
BRANCH  13  15
ATOM     15  O   LIG A   1      -4.308   2.684 127.851  0.00  0.00    -0.389 OA
ATOM     16  H   LIG A   1      -5.226   2.380 127.733  0.00  0.00    +0.210 HD
ENDBRANCH  13  15
ENDBRANCH   1  13
BRANCH   2  17
ATOM     17  O   LIG A   1      -6.861   2.609 127.373  0.00  0.00    -0.384 OA
ATOM     18  H   LIG A   1      -7.117   3.494 127.712  0.00  0.00    +0.210 HD
ENDBRANCH   2  17
BRANCH   6  19
ATOM     19  C   LIG A   1      -4.062   4.880 121.800  0.00  0.00    +0.191 C 
BRANCH  19  20
ATOM     20  O   LIG A   1      -4.236   6.109 121.113  0.00  0.00    -0.390 OA
ATOM     21  H   LIG A   1      -3.376   6.357 120.737  0.00  0.00    +0.210 HD
ENDBRANCH  19  20
ENDBRANCH   6  19
BRANCH   9  22
ATOM     22  C   LIG A   1      -9.265   2.387 122.856  0.00  0.00    +0.195 C 
BRANCH  22  23
ATOM     23  O   LIG A   1      -9.086   0.965 122.891  0.00  0.00    -0.378 OA
ATOM     24  C   LIG A   1     -10.242   0.279 122.434  0.00  0.00    +0.194 C 
ENDBRANCH  22  23
ENDBRANCH   9  22
TORSDOF 7
ENDMDL
MODEL 3
REMARK VINA RESULT:      -6.3      2.398      6.813
REMARK  Name = NuBBE_1897
REMARK  10 active torsions:
REMARK  status: ('A' for Active; 'I' for Inactive)
REMARK    1  A    between atoms: C_1  and  C_2
REMARK    2  A    between atoms: C_2  and  O_3
REMARK    3  A    between atoms: C_2  and  C_4
REMARK    4  A    between atoms: C_2  and  C_23
REMARK    5  A    between atoms: C_6  and  O_22
REMARK    6  A    between atoms: C_11  and  C_12
REMARK    7  A    between atoms: C_12  and  O_13
REMARK    8  A    between atoms: C_16  and  C_17
REMARK    9  A    between atoms: C_17  and  O_18
REMARK   10  A    between atoms: O_18  and  C_19
REMARK                            x       y       z     vdW  Elec       q    Type
REMARK                         _______ _______ _______ _____ _____    ______ ____
ROOT
ATOM      1  C   LIG A   1      -8.558   1.550 124.961  0.00  0.00    +0.061 C 
ATOM      2  C   LIG A   1      -7.553   1.513 126.118  0.00  0.00    +0.191 C 
ATOM      3  C   LIG A   1      -8.025   0.504 127.150  0.00  0.00    +0.192 C 
ATOM      4  C   LIG A   1      -8.240  -0.880 126.676  0.00  0.00    +0.029 A 
ATOM      5  C   LIG A   1      -8.588  -1.055 125.314  0.00  0.00    -0.031 A 
ATOM      6  C   LIG A   1      -8.818  -2.366 124.830  0.00  0.00    -0.018 A 
ATOM      7  C   LIG A   1      -8.701  -3.450 125.713  0.00  0.00    +0.006 A 
ATOM      8  C   LIG A   1      -8.358  -3.259 127.049  0.00  0.00    +0.007 A 
ATOM      9  C   LIG A   1      -8.088  -1.979 127.550  0.00  0.00    -0.011 A 
ATOM     10  C   LIG A   1      -8.669   0.124 124.363  0.00  0.00    +0.045 C 
ATOM     11  O   LIG A   1      -8.212   0.832 128.325  0.00  0.00    -0.289 OA
ENDROOT
BRANCH   1  13
ATOM     12  C   LIG A   1      -9.065   2.466 122.573  0.00  0.00    +0.041 C 
ATOM     13  C   LIG A   1      -8.219   2.601 123.849  0.00  0.00    +0.066 C 
ATOM     14  C   LIG A   1      -6.742   2.524 123.420  0.00  0.00    +0.041 C 
BRANCH  13  15
ATOM     15  O   LIG A   1      -8.412   3.917 124.386  0.00  0.00    -0.389 OA
ATOM     16  H   LIG A   1      -8.226   4.561 123.680  0.00  0.00    +0.210 HD
ENDBRANCH  13  15
ENDBRANCH   1  13
BRANCH   2  17
ATOM     17  O   LIG A   1      -7.464   2.780 126.768  0.00  0.00    -0.384 OA
ATOM     18  H   LIG A   1      -6.529   2.885 127.054  0.00  0.00    +0.210 HD
ENDBRANCH   2  17
BRANCH   6  19
ATOM     19  C   LIG A   1      -9.153  -2.676 123.389  0.00  0.00    +0.191 C 
BRANCH  19  20
ATOM     20  O   LIG A   1     -10.254  -3.568 123.321  0.00  0.00    -0.390 OA
ATOM     21  H   LIG A   1     -10.882  -3.207 122.674  0.00  0.00    +0.210 HD
ENDBRANCH  19  20
ENDBRANCH   6  19
BRANCH   9  22
ATOM     22  C   LIG A   1      -7.660  -1.826 128.997  0.00  0.00    +0.195 C 
BRANCH  22  23
ATOM     23  O   LIG A   1      -7.906  -3.045 129.712  0.00  0.00    -0.378 OA
ATOM     24  C   LIG A   1      -6.729  -3.532 130.340  0.00  0.00    +0.194 C 
ENDBRANCH  22  23
ENDBRANCH   9  22
TORSDOF 7
ENDMDL
MODEL 4
REMARK VINA RESULT:      -6.1      1.625      4.278
REMARK  Name = NuBBE_1897
REMARK  10 active torsions:
REMARK  status: ('A' for Active; 'I' for Inactive)
REMARK    1  A    between atoms: C_1  and  C_2
REMARK    2  A    between atoms: C_2  and  O_3
REMARK    3  A    between atoms: C_2  and  C_4
REMARK    4  A    between atoms: C_2  and  C_23
REMARK    5  A    between atoms: C_6  and  O_22
REMARK    6  A    between atoms: C_11  and  C_12
REMARK    7  A    between atoms: C_12  and  O_13
REMARK    8  A    between atoms: C_16  and  C_17
REMARK    9  A    between atoms: C_17  and  O_18
REMARK   10  A    between atoms: O_18  and  C_19
REMARK                            x       y       z     vdW  Elec       q    Type
REMARK                         _______ _______ _______ _____ _____    ______ ____
ROOT
ATOM      1  C   LIG A   1      -7.430  -0.533 124.391  0.00  0.00    +0.061 C 
ATOM      2  C   LIG A   1      -7.292  -0.093 125.852  0.00  0.00    +0.191 C 
ATOM      3  C   LIG A   1      -6.064   0.789 125.989  0.00  0.00    +0.192 C 
ATOM      4  C   LIG A   1      -6.012   1.994 125.134  0.00  0.00    +0.029 A 
ATOM      5  C   LIG A   1      -6.708   1.947 123.901  0.00  0.00    -0.031 A 
ATOM      6  C   LIG A   1      -6.667   3.077 123.049  0.00  0.00    -0.018 A 
ATOM      7  C   LIG A   1      -5.934   4.205 123.447  0.00  0.00    +0.006 A 
ATOM      8  C   LIG A   1      -5.256   4.233 124.662  0.00  0.00    +0.007 A 
ATOM      9  C   LIG A   1      -5.307   3.147 125.544  0.00  0.00    -0.011 A 
ATOM     10  C   LIG A   1      -7.531   0.735 123.505  0.00  0.00    +0.045 C 
ATOM     11  O   LIG A   1      -5.160   0.508 126.782  0.00  0.00    -0.289 OA
ENDROOT
BRANCH   1  13
ATOM     12  C   LIG A   1      -8.230  -2.980 123.972  0.00  0.00    +0.041 C 
ATOM     13  C   LIG A   1      -8.632  -1.504 124.122  0.00  0.00    +0.066 C 
ATOM     14  C   LIG A   1      -9.406  -1.116 122.850  0.00  0.00    +0.041 C 
BRANCH  13  15
ATOM     15  O   LIG A   1      -9.562  -1.393 125.208  0.00  0.00    -0.389 OA
ATOM     16  H   LIG A   1     -10.404  -1.057 124.849  0.00  0.00    +0.210 HD
ENDBRANCH  13  15
ENDBRANCH   1  13
BRANCH   2  17
ATOM     17  O   LIG A   1      -7.112  -1.214 126.718  0.00  0.00    -0.384 OA
ATOM     18  H   LIG A   1      -6.511  -1.836 126.253  0.00  0.00    +0.210 HD
ENDBRANCH   2  17
BRANCH   6  19
ATOM     19  C   LIG A   1      -7.404   3.156 121.731  0.00  0.00    +0.191 C 
BRANCH  19  20
ATOM     20  O   LIG A   1      -8.638   3.836 121.897  0.00  0.00    -0.390 OA
ATOM     21  H   LIG A   1      -8.497   4.762 121.641  0.00  0.00    +0.210 HD
ENDBRANCH  19  20
ENDBRANCH   6  19
BRANCH   9  22
ATOM     22  C   LIG A   1      -4.603   3.247 126.883  0.00  0.00    +0.195 C 
BRANCH  22  23
ATOM     23  O   LIG A   1      -3.376   3.974 126.738  0.00  0.00    -0.378 OA
ATOM     24  C   LIG A   1      -2.262   3.104 126.599  0.00  0.00    +0.194 C 
ENDBRANCH  22  23
ENDBRANCH   9  22
TORSDOF 7
ENDMDL
MODEL 5
REMARK VINA RESULT:      -5.9      3.376      5.186
REMARK  Name = NuBBE_1897
REMARK  10 active torsions:
REMARK  status: ('A' for Active; 'I' for Inactive)
REMARK    1  A    between atoms: C_1  and  C_2
REMARK    2  A    between atoms: C_2  and  O_3
REMARK    3  A    between atoms: C_2  and  C_4
REMARK    4  A    between atoms: C_2  and  C_23
REMARK    5  A    between atoms: C_6  and  O_22
REMARK    6  A    between atoms: C_11  and  C_12
REMARK    7  A    between atoms: C_12  and  O_13
REMARK    8  A    between atoms: C_16  and  C_17
REMARK    9  A    between atoms: C_17  and  O_18
REMARK   10  A    between atoms: O_18  and  C_19
REMARK                            x       y       z     vdW  Elec       q    Type
REMARK                         _______ _______ _______ _____ _____    ______ ____
ROOT
ATOM      1  C   LIG A   1      -8.695  -1.766 125.246  0.00  0.00    +0.061 C 
ATOM      2  C   LIG A   1      -8.155  -0.342 125.077  0.00  0.00    +0.191 C 
ATOM      3  C   LIG A   1      -8.589   0.495 126.267  0.00  0.00    +0.192 C 
ATOM      4  C   LIG A   1      -8.197   0.003 127.605  0.00  0.00    +0.029 A 
ATOM      5  C   LIG A   1      -8.019  -1.394 127.758  0.00  0.00    -0.031 A 
ATOM      6  C   LIG A   1      -7.658  -1.902 129.030  0.00  0.00    -0.018 A 
ATOM      7  C   LIG A   1      -7.496  -1.009 130.100  0.00  0.00    +0.006 A 
ATOM      8  C   LIG A   1      -7.676   0.361 129.931  0.00  0.00    +0.007 A 
ATOM      9  C   LIG A   1      -7.996   0.899 128.678  0.00  0.00    -0.011 A 
ATOM     10  C   LIG A   1      -8.155  -2.340 126.581  0.00  0.00    +0.045 C 
ATOM     11  O   LIG A   1      -9.236   1.536 126.114  0.00  0.00    -0.289 OA
ENDROOT
BRANCH   1  13
ATOM     12  C   LIG A   1      -9.601  -3.234 123.289  0.00  0.00    +0.041 C 
ATOM     13  C   LIG A   1      -8.366  -2.724 124.048  0.00  0.00    +0.066 C 
ATOM     14  C   LIG A   1      -7.577  -3.964 124.508  0.00  0.00    +0.041 C 
BRANCH  13  15
ATOM     15  O   LIG A   1      -7.518  -2.029 123.124  0.00  0.00    -0.389 OA
ATOM     16  H   LIG A   1      -7.991  -1.232 122.823  0.00  0.00    +0.210 HD
ENDBRANCH  13  15
ENDBRANCH   1  13
BRANCH   2  17
ATOM     17  O   LIG A   1      -8.679   0.277 123.904  0.00  0.00    -0.384 OA
ATOM     18  H   LIG A   1      -9.633   0.441 124.073  0.00  0.00    +0.210 HD
ENDBRANCH   2  17
BRANCH   6  19
ATOM     19  C   LIG A   1      -7.400  -3.366 129.301  0.00  0.00    +0.191 C 
BRANCH  19  20
ATOM     20  O   LIG A   1      -6.152  -3.534 129.953  0.00  0.00    -0.390 OA
ATOM     21  H   LIG A   1      -6.203  -3.072 130.806  0.00  0.00    +0.210 HD
ENDBRANCH  19  20
ENDBRANCH   6  19
BRANCH   9  22
ATOM     22  C   LIG A   1      -8.123   2.403 128.529  0.00  0.00    +0.195 C 
BRANCH  22  23
ATOM     23  O   LIG A   1      -9.339   2.855 129.142  0.00  0.00    -0.378 OA
ATOM     24  C   LIG A   1      -9.100   3.901 130.071  0.00  0.00    +0.194 C 
ENDBRANCH  22  23
ENDBRANCH   9  22
TORSDOF 7
ENDMDL
MODEL 6
REMARK VINA RESULT:      -5.7      2.404      6.468
REMARK  Name = NuBBE_1897
REMARK  10 active torsions:
REMARK  status: ('A' for Active; 'I' for Inactive)
REMARK    1  A    between atoms: C_1  and  C_2
REMARK    2  A    between atoms: C_2  and  O_3
REMARK    3  A    between atoms: C_2  and  C_4
REMARK    4  A    between atoms: C_2  and  C_23
REMARK    5  A    between atoms: C_6  and  O_22
REMARK    6  A    between atoms: C_11  and  C_12
REMARK    7  A    between atoms: C_12  and  O_13
REMARK    8  A    between atoms: C_16  and  C_17
REMARK    9  A    between atoms: C_17  and  O_18
REMARK   10  A    between atoms: O_18  and  C_19
REMARK                            x       y       z     vdW  Elec       q    Type
REMARK                         _______ _______ _______ _____ _____    ______ ____
ROOT
ATOM      1  C   LIG A   1      -6.923   3.783 122.511  0.00  0.00    +0.061 C 
ATOM      2  C   LIG A   1      -5.980   3.543 123.694  0.00  0.00    +0.191 C 
ATOM      3  C   LIG A   1      -6.796   3.485 124.973  0.00  0.00    +0.192 C 
ATOM      4  C   LIG A   1      -7.877   2.479 125.028  0.00  0.00    +0.029 A 
ATOM      5  C   LIG A   1      -8.469   2.093 123.800  0.00  0.00    -0.031 A 
ATOM      6  C   LIG A   1      -9.519   1.143 123.816  0.00  0.00    -0.018 A 
ATOM      7  C   LIG A   1      -9.945   0.617 125.045  0.00  0.00    +0.006 A 
ATOM      8  C   LIG A   1      -9.351   1.008 126.242  0.00  0.00    +0.007 A 
ATOM      9  C   LIG A   1      -8.287   1.918 126.257  0.00  0.00    -0.011 A 
ATOM     10  C   LIG A   1      -7.968   2.638 122.476  0.00  0.00    +0.045 C 
ATOM     11  O   LIG A   1      -6.557   4.244 125.918  0.00  0.00    -0.289 OA
ENDROOT
BRANCH   1  13
ATOM     12  C   LIG A   1      -7.146   4.100 119.932  0.00  0.00    +0.041 C 
ATOM     13  C   LIG A   1      -6.197   3.924 121.128  0.00  0.00    +0.066 C 
ATOM     14  C   LIG A   1      -5.309   2.704 120.822  0.00  0.00    +0.041 C 
BRANCH  13  15
ATOM     15  O   LIG A   1      -5.319   5.056 121.184  0.00  0.00    -0.389 OA
ATOM     16  H   LIG A   1      -5.278   5.359 122.109  0.00  0.00    +0.210 HD
ENDBRANCH  13  15
ENDBRANCH   1  13
BRANCH   2  17
ATOM     17  O   LIG A   1      -5.039   4.607 123.834  0.00  0.00    -0.384 OA
ATOM     18  H   LIG A   1      -5.207   5.019 124.710  0.00  0.00    +0.210 HD
ENDBRANCH   2  17
BRANCH   6  19
ATOM     19  C   LIG A   1     -10.196   0.626 122.567  0.00  0.00    +0.191 C 
BRANCH  19  20
ATOM     20  O   LIG A   1     -10.206  -0.793 122.563  0.00  0.00    -0.390 OA
ATOM     21  H   LIG A   1     -11.130  -1.079 122.650  0.00  0.00    +0.210 HD
ENDBRANCH  19  20
ENDBRANCH   6  19
BRANCH   9  22
ATOM     22  C   LIG A   1      -7.631   2.268 127.580  0.00  0.00    +0.195 C 
BRANCH  22  23
ATOM     23  O   LIG A   1      -8.537   3.030 128.388  0.00  0.00    -0.378 OA
ATOM     24  C   LIG A   1      -8.597   2.536 129.718  0.00  0.00    +0.194 C 
ENDBRANCH  22  23
ENDBRANCH   9  22
TORSDOF 7
ENDMDL
MODEL 7
REMARK VINA RESULT:      -5.6      9.422     11.208
REMARK  Name = NuBBE_1897
REMARK  10 active torsions:
REMARK  status: ('A' for Active; 'I' for Inactive)
REMARK    1  A    between atoms: C_1  and  C_2
REMARK    2  A    between atoms: C_2  and  O_3
REMARK    3  A    between atoms: C_2  and  C_4
REMARK    4  A    between atoms: C_2  and  C_23
REMARK    5  A    between atoms: C_6  and  O_22
REMARK    6  A    between atoms: C_11  and  C_12
REMARK    7  A    between atoms: C_12  and  O_13
REMARK    8  A    between atoms: C_16  and  C_17
REMARK    9  A    between atoms: C_17  and  O_18
REMARK   10  A    between atoms: O_18  and  C_19
REMARK                            x       y       z     vdW  Elec       q    Type
REMARK                         _______ _______ _______ _____ _____    ______ ____
ROOT
ATOM      1  C   LIG A   1      -4.030   6.150 131.682  0.00  0.00    +0.061 C 
ATOM      2  C   LIG A   1      -5.105   7.059 131.077  0.00  0.00    +0.191 C 
ATOM      3  C   LIG A   1      -6.450   6.359 131.164  0.00  0.00    +0.192 C 
ATOM      4  C   LIG A   1      -6.896   5.941 132.510  0.00  0.00    +0.029 A 
ATOM      5  C   LIG A   1      -5.893   5.654 133.468  0.00  0.00    -0.031 A 
ATOM      6  C   LIG A   1      -6.284   5.235 134.763  0.00  0.00    -0.018 A 
ATOM      7  C   LIG A   1      -7.651   5.111 135.056  0.00  0.00    +0.006 A 
ATOM      8  C   LIG A   1      -8.623   5.397 134.101  0.00  0.00    +0.007 A 
ATOM      9  C   LIG A   1      -8.270   5.848 132.823  0.00  0.00    -0.011 A 
ATOM     10  C   LIG A   1      -4.422   5.836 133.149  0.00  0.00    +0.045 C 
ATOM     11  O   LIG A   1      -7.131   6.157 130.154  0.00  0.00    -0.289 OA
ENDROOT
BRANCH   1  13
ATOM     12  C   LIG A   1      -1.509   5.866 132.289  0.00  0.00    +0.041 C 
ATOM     13  C   LIG A   1      -2.576   6.732 131.601  0.00  0.00    +0.066 C 
ATOM     14  C   LIG A   1      -2.487   8.137 132.226  0.00  0.00    +0.041 C 
BRANCH  13  15
ATOM     15  O   LIG A   1      -2.219   6.884 130.220  0.00  0.00    -0.389 OA
ATOM     16  H   LIG A   1      -2.783   7.581 129.839  0.00  0.00    +0.210 HD
ENDBRANCH  13  15
ENDBRANCH   1  13
BRANCH   2  17
ATOM     17  O   LIG A   1      -4.848   7.323 129.699  0.00  0.00    -0.384 OA
ATOM     18  H   LIG A   1      -5.373   8.118 129.460  0.00  0.00    +0.210 HD
ENDBRANCH   2  17
BRANCH   6  19
ATOM     19  C   LIG A   1      -5.306   4.943 135.877  0.00  0.00    +0.191 C 
BRANCH  19  20
ATOM     20  O   LIG A   1      -5.355   3.570 136.229  0.00  0.00    -0.390 OA
ATOM     21  H   LIG A   1      -5.266   3.055 135.410  0.00  0.00    +0.210 HD
ENDBRANCH  19  20
ENDBRANCH   6  19
BRANCH   9  22
ATOM     22  C   LIG A   1      -9.365   6.205 131.836  0.00  0.00    +0.195 C 
BRANCH  22  23
ATOM     23  O   LIG A   1     -10.576   6.514 132.538  0.00  0.00    -0.378 OA
ATOM     24  C   LIG A   1     -11.695   6.549 131.665  0.00  0.00    +0.194 C 
ENDBRANCH  22  23
ENDBRANCH   9  22
TORSDOF 7
ENDMDL
MODEL 8
REMARK VINA RESULT:      -5.6      6.099      8.616
REMARK  Name = NuBBE_1897
REMARK  10 active torsions:
REMARK  status: ('A' for Active; 'I' for Inactive)
REMARK    1  A    between atoms: C_1  and  C_2
REMARK    2  A    between atoms: C_2  and  O_3
REMARK    3  A    between atoms: C_2  and  C_4
REMARK    4  A    between atoms: C_2  and  C_23
REMARK    5  A    between atoms: C_6  and  O_22
REMARK    6  A    between atoms: C_11  and  C_12
REMARK    7  A    between atoms: C_12  and  O_13
REMARK    8  A    between atoms: C_16  and  C_17
REMARK    9  A    between atoms: C_17  and  O_18
REMARK   10  A    between atoms: O_18  and  C_19
REMARK                            x       y       z     vdW  Elec       q    Type
REMARK                         _______ _______ _______ _____ _____    ______ ____
ROOT
ATOM      1  C   LIG A   1      -9.791   4.188 131.168  0.00  0.00    +0.061 C 
ATOM      2  C   LIG A   1      -9.201   3.157 132.135  0.00  0.00    +0.191 C 
ATOM      3  C   LIG A   1      -9.260   1.783 131.490  0.00  0.00    +0.192 C 
ATOM      4  C   LIG A   1      -8.587   1.634 130.181  0.00  0.00    +0.029 A 
ATOM      5  C   LIG A   1      -8.486   2.788 129.367  0.00  0.00    -0.031 A 
ATOM      6  C   LIG A   1      -7.862   2.678 128.100  0.00  0.00    -0.018 A 
ATOM      7  C   LIG A   1      -7.370   1.431 127.688  0.00  0.00    +0.006 A 
ATOM      8  C   LIG A   1      -7.479   0.307 128.502  0.00  0.00    +0.007 A 
ATOM      9  C   LIG A   1      -8.057   0.390 129.775  0.00  0.00    -0.011 A 
ATOM     10  C   LIG A   1      -8.984   4.138 129.845  0.00  0.00    +0.045 C 
ATOM     11  O   LIG A   1      -9.841   0.843 132.040  0.00  0.00    -0.289 OA
ENDROOT
BRANCH   1  13
ATOM     12  C   LIG A   1     -10.281   6.710 130.718  0.00  0.00    +0.041 C 
ATOM     13  C   LIG A   1      -9.845   5.647 131.739  0.00  0.00    +0.066 C 
ATOM     14  C   LIG A   1      -8.482   6.093 132.299  0.00  0.00    +0.041 C 
BRANCH  13  15
ATOM     15  O   LIG A   1     -10.760   5.675 132.843  0.00  0.00    -0.389 OA
ATOM     16  H   LIG A   1     -10.560   6.463 133.380  0.00  0.00    +0.210 HD
ENDBRANCH  13  15
ENDBRANCH   1  13
BRANCH   2  17
ATOM     17  O   LIG A   1      -9.950   3.092 133.348  0.00  0.00    -0.384 OA
ATOM     18  H   LIG A   1     -10.888   2.952 133.093  0.00  0.00    +0.210 HD
ENDBRANCH   2  17
BRANCH   6  19
ATOM     19  C   LIG A   1      -7.659   3.848 127.165  0.00  0.00    +0.191 C 
BRANCH  19  20
ATOM     20  O   LIG A   1      -6.464   4.539 127.492  0.00  0.00    -0.390 OA
ATOM     21  H   LIG A   1      -6.237   5.103 126.734  0.00  0.00    +0.210 HD
ENDBRANCH  19  20
ENDBRANCH   6  19
BRANCH   9  22
ATOM     22  C   LIG A   1      -8.100  -0.848 130.651  0.00  0.00    +0.195 C 
BRANCH  22  23
ATOM     23  O   LIG A   1      -8.166  -2.024 129.833  0.00  0.00    -0.378 OA
ATOM     24  C   LIG A   1      -7.362  -3.072 130.356  0.00  0.00    +0.194 C 
ENDBRANCH  22  23
ENDBRANCH   9  22
TORSDOF 7
ENDMDL
MODEL 9
REMARK VINA RESULT:      -5.6      8.935     10.998
REMARK  Name = NuBBE_1897
REMARK  10 active torsions:
REMARK  status: ('A' for Active; 'I' for Inactive)
REMARK    1  A    between atoms: C_1  and  C_2
REMARK    2  A    between atoms: C_2  and  O_3
REMARK    3  A    between atoms: C_2  and  C_4
REMARK    4  A    between atoms: C_2  and  C_23
REMARK    5  A    between atoms: C_6  and  O_22
REMARK    6  A    between atoms: C_11  and  C_12
REMARK    7  A    between atoms: C_12  and  O_13
REMARK    8  A    between atoms: C_16  and  C_17
REMARK    9  A    between atoms: C_17  and  O_18
REMARK   10  A    between atoms: O_18  and  C_19
REMARK                            x       y       z     vdW  Elec       q    Type
REMARK                         _______ _______ _______ _____ _____    ______ ____
ROOT
ATOM      1  C   LIG A   1      -8.696   5.564 131.744  0.00  0.00    +0.061 C 
ATOM      2  C   LIG A   1      -8.695   5.543 133.276  0.00  0.00    +0.191 C 
ATOM      3  C   LIG A   1      -7.389   4.939 133.761  0.00  0.00    +0.192 C 
ATOM      4  C   LIG A   1      -6.144   5.592 133.303  0.00  0.00    +0.029 A 
ATOM      5  C   LIG A   1      -6.184   6.271 132.060  0.00  0.00    -0.031 A 
ATOM      6  C   LIG A   1      -5.006   6.895 131.583  0.00  0.00    -0.018 A 
ATOM      7  C   LIG A   1      -3.834   6.816 132.350  0.00  0.00    +0.006 A 
ATOM      8  C   LIG A   1      -3.813   6.145 133.570  0.00  0.00    +0.007 A 
ATOM      9  C   LIG A   1      -4.970   5.549 134.087  0.00  0.00    -0.011 A 
ATOM     10  C   LIG A   1      -7.470   6.383 131.264  0.00  0.00    +0.045 C 
ATOM     11  O   LIG A   1      -7.378   3.953 134.504  0.00  0.00    -0.289 OA
ENDROOT
BRANCH   1  13
ATOM     12  C   LIG A   1     -10.872   5.045 130.403  0.00  0.00    +0.041 C 
ATOM     13  C   LIG A   1     -10.021   6.112 131.110  0.00  0.00    +0.066 C 
ATOM     14  C   LIG A   1      -9.746   7.223 130.080  0.00  0.00    +0.041 C 
BRANCH  13  15
ATOM     15  O   LIG A   1     -10.812   6.712 132.145  0.00  0.00    -0.389 OA
ATOM     16  H   LIG A   1     -11.607   6.164 132.271  0.00  0.00    +0.210 HD
ENDBRANCH  13  15
ENDBRANCH   1  13
BRANCH   2  17
ATOM     17  O   LIG A   1      -9.755   4.735 133.785  0.00  0.00    -0.384 OA
ATOM     18  H   LIG A   1      -9.981   4.089 133.081  0.00  0.00    +0.210 HD
ENDBRANCH   2  17
BRANCH   6  19
ATOM     19  C   LIG A   1      -4.941   7.681 130.294  0.00  0.00    +0.191 C 
BRANCH  19  20
ATOM     20  O   LIG A   1      -4.560   6.837 129.220  0.00  0.00    -0.390 OA
ATOM     21  H   LIG A   1      -5.177   6.999 128.488  0.00  0.00    +0.210 HD
ENDBRANCH  19  20
ENDBRANCH   6  19
BRANCH   9  22
ATOM     22  C   LIG A   1      -4.913   4.881 135.447  0.00  0.00    +0.195 C 
BRANCH  22  23
ATOM     23  O   LIG A   1      -3.737   4.066 135.544  0.00  0.00    -0.378 OA
ATOM     24  C   LIG A   1      -4.040   2.687 135.397  0.00  0.00    +0.194 C 
ENDBRANCH  22  23
ENDBRANCH   9  22
TORSDOF 7
ENDMDL
