MODEL 1
REMARK VINA RESULT:      -7.2      0.000      0.000
REMARK  Name = NuBBE_1220
REMARK  10 active torsions:
REMARK  status: ('A' for Active; 'I' for Inactive)
REMARK    1  A    between atoms: C_4  and  C_17
REMARK    2  A    between atoms: C_8  and  O_9
REMARK    3  A    between atoms: C_10  and  O_11
REMARK    4  A    between atoms: O_11  and  C_12
REMARK    5  A    between atoms: C_13  and  O_14
REMARK    6  A    between atoms: O_14  and  C_15
REMARK    7  A    between atoms: C_20  and  O_25
REMARK    8  A    between atoms: C_21  and  O_22
REMARK    9  A    between atoms: O_22  and  C_23
REMARK   10  A    between atoms: O_25  and  C_26
REMARK                            x       y       z     vdW  Elec       q    Type
REMARK                         _______ _______ _______ _____ _____    ______ ____
ROOT
ATOM      1  O   LIG A   1      -8.911   3.985 134.246  0.00  0.00    -0.287 OA
ATOM      2  C   LIG A   1      -8.663   4.800 133.353  0.00  0.00    +0.197 A 
ATOM      3  C   LIG A   1      -9.741   5.429 132.592  0.00  0.00    +0.098 A 
ATOM      4  C   LIG A   1      -9.400   6.310 131.646  0.00  0.00    +0.139 A 
ATOM      5  O   LIG A   1      -8.112   6.710 131.339  0.00  0.00    -0.454 OA
ATOM      6  C   LIG A   1      -7.079   6.130 132.034  0.00  0.00    +0.146 A 
ATOM      7  C   LIG A   1      -7.271   5.169 133.014  0.00  0.00    +0.109 A 
ATOM      8  C   LIG A   1      -6.187   4.561 133.655  0.00  0.00    +0.177 A 
ATOM      9  C   LIG A   1      -4.870   4.943 133.311  0.00  0.00    +0.204 A 
ATOM     10  C   LIG A   1      -4.686   5.975 132.354  0.00  0.00    +0.169 A 
ATOM     11  C   LIG A   1      -5.789   6.545 131.706  0.00  0.00    +0.096 A 
ENDROOT
BRANCH   4  12
ATOM     12  C   LIG A   1     -10.432   6.948 130.831  0.00  0.00    +0.021 A 
ATOM     13  C   LIG A   1     -11.746   7.020 131.287  0.00  0.00    +0.015 A 
ATOM     14  C   LIG A   1     -12.728   7.628 130.503  0.00  0.00    +0.050 A 
ATOM     15  C   LIG A   1     -12.407   8.171 129.252  0.00  0.00    +0.162 A 
ATOM     16  C   LIG A   1     -11.079   8.085 128.781  0.00  0.00    +0.162 A 
ATOM     17  C   LIG A   1     -10.100   7.488 129.585  0.00  0.00    +0.061 A 
BRANCH  16  18
ATOM     18  O   LIG A   1     -10.823   8.598 127.532  0.00  0.00    -0.491 OA
ATOM     19  C   LIG A   1     -10.881   7.689 126.436  0.00  0.00    +0.277 C 
ENDBRANCH  16  18
BRANCH  15  20
ATOM     20  O   LIG A   1     -13.315   8.799 128.435  0.00  0.00    -0.491 OA
ATOM     21  C   LIG A   1     -13.684  10.131 128.775  0.00  0.00    +0.277 C 
ENDBRANCH  15  20
ENDBRANCH   4  12
BRANCH   8  22
ATOM     22  O   LIG A   1      -6.403   3.604 134.611  0.00  0.00    -0.503 OA
ATOM     23  H   LIG A   1      -6.312   4.007 135.506  0.00  0.00    +0.292 HD
ENDBRANCH   8  22
BRANCH   9  24
ATOM     24  O   LIG A   1      -3.711   4.417 133.831  0.00  0.00    -0.488 OA
ATOM     25  C   LIG A   1      -3.242   3.174 133.319  0.00  0.00    +0.277 C 
ENDBRANCH   9  24
BRANCH  10  26
ATOM     26  O   LIG A   1      -3.391   6.349 132.074  0.00  0.00    -0.491 OA
ATOM     27  C   LIG A   1      -3.021   7.676 132.442  0.00  0.00    +0.277 C 
ENDBRANCH  10  26
TORSDOF 6
ENDMDL
MODEL 2
REMARK VINA RESULT:      -7.2      3.292      3.996
REMARK  Name = NuBBE_1220
REMARK  10 active torsions:
REMARK  status: ('A' for Active; 'I' for Inactive)
REMARK    1  A    between atoms: C_4  and  C_17
REMARK    2  A    between atoms: C_8  and  O_9
REMARK    3  A    between atoms: C_10  and  O_11
REMARK    4  A    between atoms: O_11  and  C_12
REMARK    5  A    between atoms: C_13  and  O_14
REMARK    6  A    between atoms: O_14  and  C_15
REMARK    7  A    between atoms: C_20  and  O_25
REMARK    8  A    between atoms: C_21  and  O_22
REMARK    9  A    between atoms: O_22  and  C_23
REMARK   10  A    between atoms: O_25  and  C_26
REMARK                            x       y       z     vdW  Elec       q    Type
REMARK                         _______ _______ _______ _____ _____    ______ ____
ROOT
ATOM      1  O   LIG A   1      -8.943   3.761 133.829  0.00  0.00    -0.287 OA
ATOM      2  C   LIG A   1      -9.233   3.927 132.641  0.00  0.00    +0.197 A 
ATOM      3  C   LIG A   1      -9.964   5.115 132.205  0.00  0.00    +0.098 A 
ATOM      4  C   LIG A   1     -10.235   5.234 130.902  0.00  0.00    +0.139 A 
ATOM      5  O   LIG A   1      -9.857   4.344 129.913  0.00  0.00    -0.454 OA
ATOM      6  C   LIG A   1      -9.175   3.215 130.294  0.00  0.00    +0.146 A 
ATOM      7  C   LIG A   1      -8.859   2.930 131.613  0.00  0.00    +0.109 A 
ATOM      8  C   LIG A   1      -8.215   1.740 131.964  0.00  0.00    +0.177 A 
ATOM      9  C   LIG A   1      -7.866   0.813 130.954  0.00  0.00    +0.204 A 
ATOM     10  C   LIG A   1      -8.135   1.144 129.600  0.00  0.00    +0.169 A 
ATOM     11  C   LIG A   1      -8.807   2.330 129.282  0.00  0.00    +0.096 A 
ENDROOT
BRANCH   4  12
ATOM     12  C   LIG A   1     -10.990   6.385 130.411  0.00  0.00    +0.021 A 
ATOM     13  C   LIG A   1     -12.050   6.901 131.154  0.00  0.00    +0.015 A 
ATOM     14  C   LIG A   1     -12.770   7.999 130.680  0.00  0.00    +0.050 A 
ATOM     15  C   LIG A   1     -12.438   8.593 129.455  0.00  0.00    +0.162 A 
ATOM     16  C   LIG A   1     -11.375   8.062 128.694  0.00  0.00    +0.162 A 
ATOM     17  C   LIG A   1     -10.650   6.972 129.190  0.00  0.00    +0.061 A 
BRANCH  16  18
ATOM     18  O   LIG A   1     -11.114   8.658 127.482  0.00  0.00    -0.491 OA
ATOM     19  C   LIG A   1     -10.961   7.795 126.359  0.00  0.00    +0.277 C 
ENDBRANCH  16  18
BRANCH  15  20
ATOM     20  O   LIG A   1     -13.089   9.686 128.935  0.00  0.00    -0.491 OA
ATOM     21  C   LIG A   1     -13.426  10.734 129.836  0.00  0.00    +0.277 C 
ENDBRANCH  15  20
ENDBRANCH   4  12
BRANCH   8  22
ATOM     22  O   LIG A   1      -7.925   1.475 133.276  0.00  0.00    -0.503 OA
ATOM     23  H   LIG A   1      -7.247   0.762 133.325  0.00  0.00    +0.292 HD
ENDBRANCH   8  22
BRANCH   9  24
ATOM     24  O   LIG A   1      -7.260  -0.407 131.146  0.00  0.00    -0.488 OA
ATOM     25  C   LIG A   1      -5.854  -0.438 131.365  0.00  0.00    +0.277 C 
ENDBRANCH   9  24
BRANCH  10  26
ATOM     26  O   LIG A   1      -7.744   0.236 128.641  0.00  0.00    -0.491 OA
ATOM     27  C   LIG A   1      -8.150   0.515 127.303  0.00  0.00    +0.277 C 
ENDBRANCH  10  26
TORSDOF 6
ENDMDL
MODEL 3
REMARK VINA RESULT:      -7.2      2.077      2.231
REMARK  Name = NuBBE_1220
REMARK  10 active torsions:
REMARK  status: ('A' for Active; 'I' for Inactive)
REMARK    1  A    between atoms: C_4  and  C_17
REMARK    2  A    between atoms: C_8  and  O_9
REMARK    3  A    between atoms: C_10  and  O_11
REMARK    4  A    between atoms: O_11  and  C_12
REMARK    5  A    between atoms: C_13  and  O_14
REMARK    6  A    between atoms: O_14  and  C_15
REMARK    7  A    between atoms: C_20  and  O_25
REMARK    8  A    between atoms: C_21  and  O_22
REMARK    9  A    between atoms: O_22  and  C_23
REMARK   10  A    between atoms: O_25  and  C_26
REMARK                            x       y       z     vdW  Elec       q    Type
REMARK                         _______ _______ _______ _____ _____    ______ ____
ROOT
ATOM      1  O   LIG A   1      -9.369   2.154 131.821  0.00  0.00    -0.287 OA
ATOM      2  C   LIG A   1      -9.334   3.359 132.089  0.00  0.00    +0.197 A 
ATOM      3  C   LIG A   1     -10.188   4.310 131.382  0.00  0.00    +0.098 A 
ATOM      4  C   LIG A   1     -10.105   5.598 131.732  0.00  0.00    +0.139 A 
ATOM      5  O   LIG A   1      -9.303   6.114 132.733  0.00  0.00    -0.454 OA
ATOM      6  C   LIG A   1      -8.485   5.244 133.410  0.00  0.00    +0.146 A 
ATOM      7  C   LIG A   1      -8.426   3.887 133.132  0.00  0.00    +0.109 A 
ATOM      8  C   LIG A   1      -7.536   3.046 133.806  0.00  0.00    +0.177 A 
ATOM      9  C   LIG A   1      -6.688   3.584 134.802  0.00  0.00    +0.204 A 
ATOM     10  C   LIG A   1      -6.802   4.961 135.125  0.00  0.00    +0.169 A 
ATOM     11  C   LIG A   1      -7.682   5.785 134.413  0.00  0.00    +0.096 A 
ENDROOT
BRANCH   4  12
ATOM     12  C   LIG A   1     -10.911   6.601 131.038  0.00  0.00    +0.021 A 
ATOM     13  C   LIG A   1     -12.152   6.981 131.544  0.00  0.00    +0.015 A 
ATOM     14  C   LIG A   1     -12.918   7.938 130.876  0.00  0.00    +0.050 A 
ATOM     15  C   LIG A   1     -12.452   8.525 129.692  0.00  0.00    +0.162 A 
ATOM     16  C   LIG A   1     -11.202   8.129 129.169  0.00  0.00    +0.162 A 
ATOM     17  C   LIG A   1     -10.435   7.181 129.859  0.00  0.00    +0.061 A 
BRANCH  16  18
ATOM     18  O   LIG A   1     -10.807   8.706 127.986  0.00  0.00    -0.491 OA
ATOM     19  C   LIG A   1     -10.875   7.894 126.817  0.00  0.00    +0.277 C 
ENDBRANCH  16  18
BRANCH  15  20
ATOM     20  O   LIG A   1     -13.142   9.484 128.991  0.00  0.00    -0.491 OA
ATOM     21  C   LIG A   1     -13.465  10.687 129.679  0.00  0.00    +0.277 C 
ENDBRANCH  15  20
ENDBRANCH   4  12
BRANCH   8  22
ATOM     22  O   LIG A   1      -7.488   1.710 133.504  0.00  0.00    -0.503 OA
ATOM     23  H   LIG A   1      -7.636   1.183 134.323  0.00  0.00    +0.292 HD
ENDBRANCH   8  22
BRANCH   9  24
ATOM     24  O   LIG A   1      -5.745   2.892 135.525  0.00  0.00    -0.488 OA
ATOM     25  C   LIG A   1      -4.489   2.618 134.913  0.00  0.00    +0.277 C 
ENDBRANCH   9  24
BRANCH  10  26
ATOM     26  O   LIG A   1      -5.989   5.441 136.128  0.00  0.00    -0.491 OA
ATOM     27  C   LIG A   1      -5.044   6.441 135.753  0.00  0.00    +0.277 C 
ENDBRANCH  10  26
TORSDOF 6
ENDMDL
MODEL 4
REMARK VINA RESULT:      -6.8      8.784     12.327
REMARK  Name = NuBBE_1220
REMARK  10 active torsions:
REMARK  status: ('A' for Active; 'I' for Inactive)
REMARK    1  A    between atoms: C_4  and  C_17
REMARK    2  A    between atoms: C_8  and  O_9
REMARK    3  A    between atoms: C_10  and  O_11
REMARK    4  A    between atoms: O_11  and  C_12
REMARK    5  A    between atoms: C_13  and  O_14
REMARK    6  A    between atoms: O_14  and  C_15
REMARK    7  A    between atoms: C_20  and  O_25
REMARK    8  A    between atoms: C_21  and  O_22
REMARK    9  A    between atoms: O_22  and  C_23
REMARK   10  A    between atoms: O_25  and  C_26
REMARK                            x       y       z     vdW  Elec       q    Type
REMARK                         _______ _______ _______ _____ _____    ______ ____
ROOT
ATOM      1  O   LIG A   1      -9.706  -4.294 127.940  0.00  0.00    -0.287 OA
ATOM      2  C   LIG A   1      -8.622  -3.708 128.027  0.00  0.00    +0.197 A 
ATOM      3  C   LIG A   1      -7.707  -3.985 129.132  0.00  0.00    +0.098 A 
ATOM      4  C   LIG A   1      -6.547  -3.321 129.157  0.00  0.00    +0.139 A 
ATOM      5  O   LIG A   1      -6.114  -2.412 128.209  0.00  0.00    -0.454 OA
ATOM      6  C   LIG A   1      -6.957  -2.127 127.164  0.00  0.00    +0.146 A 
ATOM      7  C   LIG A   1      -8.211  -2.702 127.023  0.00  0.00    +0.109 A 
ATOM      8  C   LIG A   1      -9.062  -2.340 125.975  0.00  0.00    +0.177 A 
ATOM      9  C   LIG A   1      -8.632  -1.380 125.029  0.00  0.00    +0.204 A 
ATOM     10  C   LIG A   1      -7.322  -0.846 125.144  0.00  0.00    +0.169 A 
ATOM     11  C   LIG A   1      -6.503  -1.206 126.222  0.00  0.00    +0.096 A 
ENDROOT
BRANCH   4  12
ATOM     12  C   LIG A   1      -5.604  -3.532 130.254  0.00  0.00    +0.021 A 
ATOM     13  C   LIG A   1      -5.649  -4.705 131.006  0.00  0.00    +0.015 A 
ATOM     14  C   LIG A   1      -4.747  -4.900 132.054  0.00  0.00    +0.050 A 
ATOM     15  C   LIG A   1      -3.791  -3.923 132.363  0.00  0.00    +0.162 A 
ATOM     16  C   LIG A   1      -3.755  -2.728 131.613  0.00  0.00    +0.162 A 
ATOM     17  C   LIG A   1      -4.653  -2.553 130.553  0.00  0.00    +0.061 A 
BRANCH  16  18
ATOM     18  O   LIG A   1      -2.824  -1.786 131.980  0.00  0.00    -0.491 OA
ATOM     19  C   LIG A   1      -3.309  -0.623 132.644  0.00  0.00    +0.277 C 
ENDBRANCH  16  18
BRANCH  15  20
ATOM     20  O   LIG A   1      -2.862  -4.054 133.367  0.00  0.00    -0.491 OA
ATOM     21  C   LIG A   1      -2.638  -5.362 133.881  0.00  0.00    +0.277 C 
ENDBRANCH  15  20
ENDBRANCH   4  12
BRANCH   8  22
ATOM     22  O   LIG A   1     -10.302  -2.912 125.865  0.00  0.00    -0.503 OA
ATOM     23  H   LIG A   1     -10.523  -3.036 124.913  0.00  0.00    +0.292 HD
ENDBRANCH   8  22
BRANCH   9  24
ATOM     24  O   LIG A   1      -9.365  -0.903 123.967  0.00  0.00    -0.488 OA
ATOM     25  C   LIG A   1      -9.387  -1.663 122.764  0.00  0.00    +0.277 C 
ENDBRANCH   9  24
BRANCH  10  26
ATOM     26  O   LIG A   1      -6.924   0.055 124.182  0.00  0.00    -0.491 OA
ATOM     27  C   LIG A   1      -6.760   1.406 124.609  0.00  0.00    +0.277 C 
ENDBRANCH  10  26
TORSDOF 6
ENDMDL
MODEL 5
REMARK VINA RESULT:      -6.7      2.050      3.349
REMARK  Name = NuBBE_1220
REMARK  10 active torsions:
REMARK  status: ('A' for Active; 'I' for Inactive)
REMARK    1  A    between atoms: C_4  and  C_17
REMARK    2  A    between atoms: C_8  and  O_9
REMARK    3  A    between atoms: C_10  and  O_11
REMARK    4  A    between atoms: O_11  and  C_12
REMARK    5  A    between atoms: C_13  and  O_14
REMARK    6  A    between atoms: O_14  and  C_15
REMARK    7  A    between atoms: C_20  and  O_25
REMARK    8  A    between atoms: C_21  and  O_22
REMARK    9  A    between atoms: O_22  and  C_23
REMARK   10  A    between atoms: O_25  and  C_26
REMARK                            x       y       z     vdW  Elec       q    Type
REMARK                         _______ _______ _______ _____ _____    ______ ____
ROOT
ATOM      1  O   LIG A   1      -5.716   6.304 132.468  0.00  0.00    -0.287 OA
ATOM      2  C   LIG A   1      -6.798   5.793 132.161  0.00  0.00    +0.197 A 
ATOM      3  C   LIG A   1      -7.857   6.592 131.548  0.00  0.00    +0.098 A 
ATOM      4  C   LIG A   1      -8.998   5.971 131.233  0.00  0.00    +0.139 A 
ATOM      5  O   LIG A   1      -9.260   4.624 131.405  0.00  0.00    -0.454 OA
ATOM      6  C   LIG A   1      -8.285   3.851 131.985  0.00  0.00    +0.146 A 
ATOM      7  C   LIG A   1      -7.066   4.358 132.406  0.00  0.00    +0.109 A 
ATOM      8  C   LIG A   1      -6.124   3.547 133.046  0.00  0.00    +0.177 A 
ATOM      9  C   LIG A   1      -6.412   2.179 133.256  0.00  0.00    +0.204 A 
ATOM     10  C   LIG A   1      -7.635   1.654 132.764  0.00  0.00    +0.169 A 
ATOM     11  C   LIG A   1      -8.572   2.497 132.152  0.00  0.00    +0.096 A 
ENDROOT
BRANCH   4  12
ATOM     12  C   LIG A   1     -10.105   6.724 130.647  0.00  0.00    +0.021 A 
ATOM     13  C   LIG A   1     -11.324   6.820 131.315  0.00  0.00    +0.015 A 
ATOM     14  C   LIG A   1     -12.378   7.539 130.750  0.00  0.00    +0.050 A 
ATOM     15  C   LIG A   1     -12.227   8.169 129.508  0.00  0.00    +0.162 A 
ATOM     16  C   LIG A   1     -10.998   8.059 128.821  0.00  0.00    +0.162 A 
ATOM     17  C   LIG A   1      -9.942   7.350 129.408  0.00  0.00    +0.061 A 
BRANCH  16  18
ATOM     18  O   LIG A   1     -10.913   8.663 127.590  0.00  0.00    -0.491 OA
ATOM     19  C   LIG A   1     -10.863   7.806 126.453  0.00  0.00    +0.277 C 
ENDBRANCH  16  18
BRANCH  15  20
ATOM     20  O   LIG A   1     -13.213   8.907 128.899  0.00  0.00    -0.491 OA
ATOM     21  C   LIG A   1     -13.423  10.232 129.375  0.00  0.00    +0.277 C 
ENDBRANCH  15  20
ENDBRANCH   4  12
BRANCH   8  22
ATOM     22  O   LIG A   1      -4.932   4.076 133.464  0.00  0.00    -0.503 OA
ATOM     23  H   LIG A   1      -4.611   4.729 132.800  0.00  0.00    +0.292 HD
ENDBRANCH   8  22
BRANCH   9  24
ATOM     24  O   LIG A   1      -5.603   1.268 133.894  0.00  0.00    -0.488 OA
ATOM     25  C   LIG A   1      -5.495   1.333 135.312  0.00  0.00    +0.277 C 
ENDBRANCH   9  24
BRANCH  10  26
ATOM     26  O   LIG A   1      -7.863   0.309 132.950  0.00  0.00    -0.491 OA
ATOM     27  C   LIG A   1      -8.525  -0.374 131.888  0.00  0.00    +0.277 C 
ENDBRANCH  10  26
TORSDOF 6
ENDMDL
MODEL 6
REMARK VINA RESULT:      -6.7      8.319     11.529
REMARK  Name = NuBBE_1220
REMARK  10 active torsions:
REMARK  status: ('A' for Active; 'I' for Inactive)
REMARK    1  A    between atoms: C_4  and  C_17
REMARK    2  A    between atoms: C_8  and  O_9
REMARK    3  A    between atoms: C_10  and  O_11
REMARK    4  A    between atoms: O_11  and  C_12
REMARK    5  A    between atoms: C_13  and  O_14
REMARK    6  A    between atoms: O_14  and  C_15
REMARK    7  A    between atoms: C_20  and  O_25
REMARK    8  A    between atoms: C_21  and  O_22
REMARK    9  A    between atoms: O_22  and  C_23
REMARK   10  A    between atoms: O_25  and  C_26
REMARK                            x       y       z     vdW  Elec       q    Type
REMARK                         _______ _______ _______ _____ _____    ______ ____
ROOT
ATOM      1  O   LIG A   1      -9.685  -1.819 123.735  0.00  0.00    -0.287 OA
ATOM      2  C   LIG A   1      -8.929  -1.330 124.580  0.00  0.00    +0.197 A 
ATOM      3  C   LIG A   1      -8.431  -2.132 125.695  0.00  0.00    +0.098 A 
ATOM      4  C   LIG A   1      -7.608  -1.541 126.567  0.00  0.00    +0.139 A 
ATOM      5  O   LIG A   1      -7.155  -0.237 126.493  0.00  0.00    -0.454 OA
ATOM      6  C   LIG A   1      -7.612   0.543 125.460  0.00  0.00    +0.146 A 
ATOM      7  C   LIG A   1      -8.502   0.085 124.502  0.00  0.00    +0.109 A 
ATOM      8  C   LIG A   1      -8.988   0.930 123.500  0.00  0.00    +0.177 A 
ATOM      9  C   LIG A   1      -8.553   2.275 123.451  0.00  0.00    +0.204 A 
ATOM     10  C   LIG A   1      -7.591   2.717 124.397  0.00  0.00    +0.169 A 
ATOM     11  C   LIG A   1      -7.145   1.855 125.407  0.00  0.00    +0.096 A 
ENDROOT
BRANCH   4  12
ATOM     12  C   LIG A   1      -7.104  -2.283 127.720  0.00  0.00    +0.021 A 
ATOM     13  C   LIG A   1      -7.986  -2.939 128.577  0.00  0.00    +0.015 A 
ATOM     14  C   LIG A   1      -7.498  -3.645 129.678  0.00  0.00    +0.050 A 
ATOM     15  C   LIG A   1      -6.122  -3.703 129.935  0.00  0.00    +0.162 A 
ATOM     16  C   LIG A   1      -5.228  -3.027 129.077  0.00  0.00    +0.162 A 
ATOM     17  C   LIG A   1      -5.729  -2.337 127.966  0.00  0.00    +0.061 A 
BRANCH  16  18
ATOM     18  O   LIG A   1      -3.892  -3.083 129.395  0.00  0.00    -0.491 OA
ATOM     19  C   LIG A   1      -3.353  -1.978 130.114  0.00  0.00    +0.277 C 
ENDBRANCH  16  18
BRANCH  15  20
ATOM     20  O   LIG A   1      -5.569  -4.393 130.987  0.00  0.00    -0.491 OA
ATOM     21  C   LIG A   1      -5.926  -3.974 132.300  0.00  0.00    +0.277 C 
ENDBRANCH  15  20
ENDBRANCH   4  12
BRANCH   8  22
ATOM     22  O   LIG A   1      -9.878   0.457 122.571  0.00  0.00    -0.503 OA
ATOM     23  H   LIG A   1      -9.781   0.967 121.734  0.00  0.00    +0.292 HD
ENDBRANCH   8  22
BRANCH   9  24
ATOM     24  O   LIG A   1      -8.962   3.228 122.549  0.00  0.00    -0.488 OA
ATOM     25  C   LIG A   1      -8.246   3.355 121.325  0.00  0.00    +0.277 C 
ENDBRANCH   9  24
BRANCH  10  26
ATOM     26  O   LIG A   1      -7.160   4.020 124.294  0.00  0.00    -0.491 OA
ATOM     27  C   LIG A   1      -5.765   4.210 124.069  0.00  0.00    +0.277 C 
ENDBRANCH  10  26
TORSDOF 6
ENDMDL
MODEL 7
REMARK VINA RESULT:      -6.7      8.011     10.301
REMARK  Name = NuBBE_1220
REMARK  10 active torsions:
REMARK  status: ('A' for Active; 'I' for Inactive)
REMARK    1  A    between atoms: C_4  and  C_17
REMARK    2  A    between atoms: C_8  and  O_9
REMARK    3  A    between atoms: C_10  and  O_11
REMARK    4  A    between atoms: O_11  and  C_12
REMARK    5  A    between atoms: C_13  and  O_14
REMARK    6  A    between atoms: O_14  and  C_15
REMARK    7  A    between atoms: C_20  and  O_25
REMARK    8  A    between atoms: C_21  and  O_22
REMARK    9  A    between atoms: O_22  and  C_23
REMARK   10  A    between atoms: O_25  and  C_26
REMARK                            x       y       z     vdW  Elec       q    Type
REMARK                         _______ _______ _______ _____ _____    ______ ____
ROOT
ATOM      1  O   LIG A   1      -9.372   2.272 124.816  0.00  0.00    -0.287 OA
ATOM      2  C   LIG A   1      -8.222   1.912 125.088  0.00  0.00    +0.197 A 
ATOM      3  C   LIG A   1      -7.306   2.801 125.798  0.00  0.00    +0.098 A 
ATOM      4  C   LIG A   1      -6.080   2.342 126.067  0.00  0.00    +0.139 A 
ATOM      5  O   LIG A   1      -5.604   1.079 125.763  0.00  0.00    -0.454 OA
ATOM      6  C   LIG A   1      -6.441   0.225 125.089  0.00  0.00    +0.146 A 
ATOM      7  C   LIG A   1      -7.726   0.572 124.702  0.00  0.00    +0.109 A 
ATOM      8  C   LIG A   1      -8.525  -0.308 123.966  0.00  0.00    +0.177 A 
ATOM      9  C   LIG A   1      -8.021  -1.584 123.622  0.00  0.00    +0.204 A 
ATOM     10  C   LIG A   1      -6.730  -1.954 124.079  0.00  0.00    +0.169 A 
ATOM     11  C   LIG A   1      -5.941  -1.041 124.789  0.00  0.00    +0.096 A 
ENDROOT
BRANCH   4  12
ATOM     12  C   LIG A   1      -5.108   3.197 126.746  0.00  0.00    +0.021 A 
ATOM     13  C   LIG A   1      -3.745   3.053 126.495  0.00  0.00    +0.015 A 
ATOM     14  C   LIG A   1      -2.822   3.872 127.148  0.00  0.00    +0.050 A 
ATOM     15  C   LIG A   1      -3.251   4.843 128.061  0.00  0.00    +0.162 A 
ATOM     16  C   LIG A   1      -4.631   4.979 128.330  0.00  0.00    +0.162 A 
ATOM     17  C   LIG A   1      -5.547   4.164 127.654  0.00  0.00    +0.061 A 
BRANCH  16  18
ATOM     18  O   LIG A   1      -4.997   5.920 129.262  0.00  0.00    -0.491 OA
ATOM     19  C   LIG A   1      -5.739   5.460 130.387  0.00  0.00    +0.277 C 
ENDBRANCH  16  18
BRANCH  15  20
ATOM     20  O   LIG A   1      -2.403   5.695 128.727  0.00  0.00    -0.491 OA
ATOM     21  C   LIG A   1      -2.185   6.978 128.152  0.00  0.00    +0.277 C 
ENDBRANCH  15  20
ENDBRANCH   4  12
BRANCH   8  22
ATOM     22  O   LIG A   1      -9.787   0.064 123.584  0.00  0.00    -0.503 OA
ATOM     23  H   LIG A   1     -10.416  -0.672 123.768  0.00  0.00    +0.292 HD
ENDBRANCH   8  22
BRANCH   9  24
ATOM     24  O   LIG A   1      -8.673  -2.541 122.880  0.00  0.00    -0.488 OA
ATOM     25  C   LIG A   1      -9.612  -3.385 123.538  0.00  0.00    +0.277 C 
ENDBRANCH   9  24
BRANCH  10  26
ATOM     26  O   LIG A   1      -6.288  -3.219 123.759  0.00  0.00    -0.491 OA
ATOM     27  C   LIG A   1      -4.876  -3.419 123.774  0.00  0.00    +0.277 C 
ENDBRANCH  10  26
TORSDOF 6
ENDMDL
MODEL 8
REMARK VINA RESULT:      -6.5      8.499     11.722
REMARK  Name = NuBBE_1220
REMARK  10 active torsions:
REMARK  status: ('A' for Active; 'I' for Inactive)
REMARK    1  A    between atoms: C_4  and  C_17
REMARK    2  A    between atoms: C_8  and  O_9
REMARK    3  A    between atoms: C_10  and  O_11
REMARK    4  A    between atoms: O_11  and  C_12
REMARK    5  A    between atoms: C_13  and  O_14
REMARK    6  A    between atoms: O_14  and  C_15
REMARK    7  A    between atoms: C_20  and  O_25
REMARK    8  A    between atoms: C_21  and  O_22
REMARK    9  A    between atoms: O_22  and  C_23
REMARK   10  A    between atoms: O_25  and  C_26
REMARK                            x       y       z     vdW  Elec       q    Type
REMARK                         _______ _______ _______ _____ _____    ______ ____
ROOT
ATOM      1  O   LIG A   1      -9.543  -3.435 126.597  0.00  0.00    -0.287 OA
ATOM      2  C   LIG A   1      -8.616  -2.940 127.244  0.00  0.00    +0.197 A 
ATOM      3  C   LIG A   1      -8.155  -3.556 128.487  0.00  0.00    +0.098 A 
ATOM      4  C   LIG A   1      -7.140  -2.971 129.130  0.00  0.00    +0.139 A 
ATOM      5  O   LIG A   1      -6.457  -1.845 128.709  0.00  0.00    -0.454 OA
ATOM      6  C   LIG A   1      -6.873  -1.240 127.549  0.00  0.00    +0.146 A 
ATOM      7  C   LIG A   1      -7.939  -1.704 126.793  0.00  0.00    +0.109 A 
ATOM      8  C   LIG A   1      -8.366  -1.024 125.649  0.00  0.00    +0.177 A 
ATOM      9  C   LIG A   1      -7.691   0.151 125.243  0.00  0.00    +0.204 A 
ATOM     10  C   LIG A   1      -6.561   0.580 125.986  0.00  0.00    +0.169 A 
ATOM     11  C   LIG A   1      -6.174  -0.105 127.145  0.00  0.00    +0.096 A 
ENDROOT
BRANCH   4  12
ATOM     12  C   LIG A   1      -6.657  -3.523 130.394  0.00  0.00    +0.021 A 
ATOM     13  C   LIG A   1      -5.793  -4.616 130.402  0.00  0.00    +0.015 A 
ATOM     14  C   LIG A   1      -5.336  -5.140 131.613  0.00  0.00    +0.050 A 
ATOM     15  C   LIG A   1      -5.740  -4.578 132.830  0.00  0.00    +0.162 A 
ATOM     16  C   LIG A   1      -6.628  -3.481 132.825  0.00  0.00    +0.162 A 
ATOM     17  C   LIG A   1      -7.064  -2.953 131.604  0.00  0.00    +0.061 A 
BRANCH  16  18
ATOM     18  O   LIG A   1      -7.024  -2.991 134.047  0.00  0.00    -0.491 OA
ATOM     19  C   LIG A   1      -8.346  -3.307 134.472  0.00  0.00    +0.277 C 
ENDBRANCH  16  18
BRANCH  15  20
ATOM     20  O   LIG A   1      -5.318  -5.029 134.058  0.00  0.00    -0.491 OA
ATOM     21  C   LIG A   1      -4.225  -5.941 134.077  0.00  0.00    +0.277 C 
ENDBRANCH  15  20
ENDBRANCH   4  12
BRANCH   8  22
ATOM     22  O   LIG A   1      -9.431  -1.495 124.926  0.00  0.00    -0.503 OA
ATOM     23  H   LIG A   1      -9.641  -2.413 125.212  0.00  0.00    +0.292 HD
ENDBRANCH   8  22
BRANCH   9  24
ATOM     24  O   LIG A   1      -8.012   0.939 124.163  0.00  0.00    -0.488 OA
ATOM     25  C   LIG A   1      -9.088   1.862 124.295  0.00  0.00    +0.277 C 
ENDBRANCH   9  24
BRANCH  10  26
ATOM     26  O   LIG A   1      -5.904   1.704 125.538  0.00  0.00    -0.491 OA
ATOM     27  C   LIG A   1      -4.741   2.090 126.268  0.00  0.00    +0.277 C 
ENDBRANCH  10  26
TORSDOF 6
ENDMDL
MODEL 9
REMARK VINA RESULT:      -6.4      8.588      9.882
REMARK  Name = NuBBE_1220
REMARK  10 active torsions:
REMARK  status: ('A' for Active; 'I' for Inactive)
REMARK    1  A    between atoms: C_4  and  C_17
REMARK    2  A    between atoms: C_8  and  O_9
REMARK    3  A    between atoms: C_10  and  O_11
REMARK    4  A    between atoms: O_11  and  C_12
REMARK    5  A    between atoms: C_13  and  O_14
REMARK    6  A    between atoms: O_14  and  C_15
REMARK    7  A    between atoms: C_20  and  O_25
REMARK    8  A    between atoms: C_21  and  O_22
REMARK    9  A    between atoms: O_22  and  C_23
REMARK   10  A    between atoms: O_25  and  C_26
REMARK                            x       y       z     vdW  Elec       q    Type
REMARK                         _______ _______ _______ _____ _____    ______ ____
ROOT
ATOM      1  O   LIG A   1      -3.373  -3.269 129.155  0.00  0.00    -0.287 OA
ATOM      2  C   LIG A   1      -4.559  -2.988 129.352  0.00  0.00    +0.197 A 
ATOM      3  C   LIG A   1      -5.384  -2.422 128.288  0.00  0.00    +0.098 A 
ATOM      4  C   LIG A   1      -6.662  -2.152 128.570  0.00  0.00    +0.139 A 
ATOM      5  O   LIG A   1      -7.291  -2.391 129.778  0.00  0.00    -0.454 OA
ATOM      6  C   LIG A   1      -6.539  -2.916 130.799  0.00  0.00    +0.146 A 
ATOM      7  C   LIG A   1      -5.190  -3.208 130.673  0.00  0.00    +0.109 A 
ATOM      8  C   LIG A   1      -4.447  -3.687 131.756  0.00  0.00    +0.177 A 
ATOM      9  C   LIG A   1      -5.084  -3.893 133.002  0.00  0.00    +0.204 A 
ATOM     10  C   LIG A   1      -6.479  -3.653 133.103  0.00  0.00    +0.169 A 
ATOM     11  C   LIG A   1      -7.192  -3.145 132.009  0.00  0.00    +0.096 A 
ENDROOT
BRANCH   4  12
ATOM     12  C   LIG A   1      -7.528  -1.555 127.555  0.00  0.00    +0.021 A 
ATOM     13  C   LIG A   1      -7.680  -0.171 127.484  0.00  0.00    +0.015 A 
ATOM     14  C   LIG A   1      -8.510   0.393 126.513  0.00  0.00    +0.050 A 
ATOM     15  C   LIG A   1      -9.198  -0.420 125.603  0.00  0.00    +0.162 A 
ATOM     16  C   LIG A   1      -9.057  -1.822 125.684  0.00  0.00    +0.162 A 
ATOM     17  C   LIG A   1      -8.207  -2.374 126.650  0.00  0.00    +0.061 A 
BRANCH  16  18
ATOM     18  O   LIG A   1      -9.782  -2.576 124.792  0.00  0.00    -0.491 OA
ATOM     19  C   LIG A   1      -9.059  -3.192 123.730  0.00  0.00    +0.277 C 
ENDBRANCH  16  18
BRANCH  15  20
ATOM     20  O   LIG A   1     -10.016   0.066 124.611  0.00  0.00    -0.491 OA
ATOM     21  C   LIG A   1      -9.397   0.783 123.550  0.00  0.00    +0.277 C 
ENDBRANCH  15  20
ENDBRANCH   4  12
BRANCH   8  22
ATOM     22  O   LIG A   1      -3.111  -3.956 131.610  0.00  0.00    -0.503 OA
ATOM     23  H   LIG A   1      -2.979  -4.551 130.836  0.00  0.00    +0.292 HD
ENDBRANCH   8  22
BRANCH   9  24
ATOM     24  O   LIG A   1      -4.482  -4.328 134.159  0.00  0.00    -0.488 OA
ATOM     25  C   LIG A   1      -3.744  -3.389 134.933  0.00  0.00    +0.277 C 
ENDBRANCH   9  24
BRANCH  10  26
ATOM     26  O   LIG A   1      -7.074  -3.902 134.319  0.00  0.00    -0.491 OA
ATOM     27  C   LIG A   1      -8.353  -3.310 134.532  0.00  0.00    +0.277 C 
ENDBRANCH  10  26
TORSDOF 6
ENDMDL
