MODEL 1
REMARK VINA RESULT:      -9.3      0.000      0.000
REMARK  Name = NuBBE_1349
REMARK  11 active torsions:
REMARK  status: ('A' for Active; 'I' for Inactive)
REMARK    1  A    between atoms: C_1  and  C_2
REMARK    2  A    between atoms: C_2  and  C_3
REMARK    3  A    between atoms: C_4  and  O_5
REMARK    4  A    between atoms: C_9  and  C_10
REMARK    5  A    between atoms: C_14  and  C_15
REMARK    6  A    between atoms: C_17  and  O_19
REMARK    7  A    between atoms: C_22  and  C_23
REMARK    8  A    between atoms: C_25  and  O_27
REMARK    9  A    between atoms: C_28  and  C_29
REMARK   10  A    between atoms: C_31  and  C_33
REMARK   11  A    between atoms: C_34  and  C_36
REMARK                            x       y       z     vdW  Elec       q    Type
REMARK                         _______ _______ _______ _____ _____    ______ ____
ROOT
ATOM      1  C   LIG A   1      -6.625   2.971 132.851  0.00  0.00    +0.014 C 
ATOM      2  C   LIG A   1      -6.229   3.425 131.411  0.00  0.00    -0.006 C 
ATOM      3  C   LIG A   1      -7.211   4.582 131.098  0.00  0.00    +0.014 C 
ATOM      4  C   LIG A   1      -4.750   3.913 131.465  0.00  0.00    +0.120 C 
ATOM      5  C   LIG A   1      -4.070   4.073 130.106  0.00  0.00    +0.032 C 
ATOM      6  C   LIG A   1      -4.258   2.873 129.148  0.00  0.00    +0.010 C 
ATOM      7  C   LIG A   1      -5.762   2.505 128.899  0.00  0.00    -0.023 C 
ATOM      8  C   LIG A   1      -6.300   3.716 128.088  0.00  0.00    +0.012 C 
ATOM      9  C   LIG A   1      -6.324   2.231 130.381  0.00  0.00    +0.003 C 
ATOM     10  C   LIG A   1      -7.638   1.454 130.491  0.00  0.00    +0.005 C 
ATOM     11  C   LIG A   1      -7.694   0.248 129.549  0.00  0.00    +0.008 C 
ATOM     12  C   LIG A   1      -7.452   0.599 128.044  0.00  0.00    -0.017 C 
ATOM     13  C   LIG A   1      -8.557   1.642 127.741  0.00  0.00    +0.012 C 
ATOM     14  C   LIG A   1      -5.959   1.146 128.029  0.00  0.00    +0.035 C 
ATOM     15  C   LIG A   1      -5.410   1.081 126.585  0.00  0.00    +0.142 C 
ATOM     16  C   LIG A   1      -5.428  -0.319 125.974  0.00  0.00    +0.004 C 
ATOM     17  C   LIG A   1      -6.503  -1.164 126.119  0.00  0.00    -0.061 C 
ATOM     18  C   LIG A   1      -7.670  -0.681 127.000  0.00  0.00    -0.003 C 
ATOM     19  C   LIG A   1      -7.964  -1.939 127.877  0.00  0.00    +0.016 C 
ATOM     20  C   LIG A   1      -8.746  -0.358 125.819  0.00  0.00    +0.043 C 
ATOM     21  C   LIG A   1      -8.086  -0.124 124.386  0.00  0.00    +0.122 C 
ATOM     22  C   LIG A   1      -7.555  -1.493 123.815  0.00  0.00    +0.001 C 
ATOM     23  C   LIG A   1      -8.766  -2.207 123.144  0.00  0.00    +0.014 C 
ATOM     24  C   LIG A   1      -7.039  -2.254 125.067  0.00  0.00    +0.027 C 
ATOM     25  C   LIG A   1      -6.438  -3.658 124.806  0.00  0.00    -0.003 C 
ATOM     26  C   LIG A   1      -7.559  -4.748 124.759  0.00  0.00    +0.008 C 
ATOM     27  C   LIG A   1      -5.668  -3.751 123.476  0.00  0.00    -0.011 C 
ATOM     28  C   LIG A   1      -4.522  -4.761 123.625  0.00  0.00    +0.008 C 
ATOM     29  C   LIG A   1      -5.218  -2.373 122.995  0.00  0.00    +0.004 C 
ATOM     30  C   LIG A   1      -6.404  -1.390 122.769  0.00  0.00    +0.010 C 
ENDROOT
BRANCH   4  31
ATOM     31  O   LIG A   1      -3.943   3.014 132.238  0.00  0.00    -0.391 OA
ATOM     32  H   LIG A   1      -3.072   3.420 132.380  0.00  0.00    +0.210 HD
ENDBRANCH   4  31
BRANCH  15  33
ATOM     33  O   LIG A   1      -4.069   1.535 126.495  0.00  0.00    -0.387 OA
ATOM     34  H   LIG A   1      -4.081   2.334 125.939  0.00  0.00    +0.210 HD
ENDBRANCH  15  33
BRANCH  21  35
ATOM     35  O   LIG A   1      -9.008   0.524 123.516  0.00  0.00    -0.391 OA
ATOM     36  H   LIG A   1      -8.493   0.849 122.756  0.00  0.00    +0.210 HD
ENDBRANCH  21  35
TORSDOF 3
ENDMDL
MODEL 2
REMARK VINA RESULT:      -9.3      1.737      8.326
REMARK  Name = NuBBE_1349
REMARK  11 active torsions:
REMARK  status: ('A' for Active; 'I' for Inactive)
REMARK    1  A    between atoms: C_1  and  C_2
REMARK    2  A    between atoms: C_2  and  C_3
REMARK    3  A    between atoms: C_4  and  O_5
REMARK    4  A    between atoms: C_9  and  C_10
REMARK    5  A    between atoms: C_14  and  C_15
REMARK    6  A    between atoms: C_17  and  O_19
REMARK    7  A    between atoms: C_22  and  C_23
REMARK    8  A    between atoms: C_25  and  O_27
REMARK    9  A    between atoms: C_28  and  C_29
REMARK   10  A    between atoms: C_31  and  C_33
REMARK   11  A    between atoms: C_34  and  C_36
REMARK                            x       y       z     vdW  Elec       q    Type
REMARK                         _______ _______ _______ _____ _____    ______ ____
ROOT
ATOM      1  C   LIG A   1      -8.231  -3.545 125.410  0.00  0.00    +0.014 C 
ATOM      2  C   LIG A   1      -7.600  -2.138 125.170  0.00  0.00    -0.006 C 
ATOM      3  C   LIG A   1      -6.095  -2.434 124.947  0.00  0.00    +0.014 C 
ATOM      4  C   LIG A   1      -8.271  -1.534 123.899  0.00  0.00    +0.120 C 
ATOM      5  C   LIG A   1      -8.045  -0.037 123.695  0.00  0.00    +0.032 C 
ATOM      6  C   LIG A   1      -8.288   0.827 124.955  0.00  0.00    +0.010 C 
ATOM      7  C   LIG A   1      -7.443   0.372 126.196  0.00  0.00    -0.023 C 
ATOM      8  C   LIG A   1      -5.985   0.717 125.784  0.00  0.00    +0.012 C 
ATOM      9  C   LIG A   1      -7.870  -1.167 126.386  0.00  0.00    +0.003 C 
ATOM     10  C   LIG A   1      -7.558  -1.810 127.741  0.00  0.00    +0.005 C 
ATOM     11  C   LIG A   1      -7.897  -0.896 128.922  0.00  0.00    +0.008 C 
ATOM     12  C   LIG A   1      -7.204   0.505 128.869  0.00  0.00    -0.017 C 
ATOM     13  C   LIG A   1      -5.698   0.153 128.803  0.00  0.00    +0.012 C 
ATOM     14  C   LIG A   1      -7.819   1.170 127.561  0.00  0.00    +0.035 C 
ATOM     15  C   LIG A   1      -7.615   2.701 127.628  0.00  0.00    +0.142 C 
ATOM     16  C   LIG A   1      -8.241   3.360 128.856  0.00  0.00    +0.004 C 
ATOM     17  C   LIG A   1      -8.143   2.806 130.111  0.00  0.00    -0.061 C 
ATOM     18  C   LIG A   1      -7.444   1.439 130.228  0.00  0.00    -0.003 C 
ATOM     19  C   LIG A   1      -8.420   0.648 131.157  0.00  0.00    +0.016 C 
ATOM     20  C   LIG A   1      -6.049   1.938 130.906  0.00  0.00    +0.043 C 
ATOM     21  C   LIG A   1      -5.731   3.483 130.675  0.00  0.00    +0.122 C 
ATOM     22  C   LIG A   1      -6.710   4.362 131.542  0.00  0.00    +0.001 C 
ATOM     23  C   LIG A   1      -6.100   4.448 132.972  0.00  0.00    +0.014 C 
ATOM     24  C   LIG A   1      -8.052   3.578 131.516  0.00  0.00    +0.027 C 
ATOM     25  C   LIG A   1      -9.227   4.222 132.294  0.00  0.00    -0.003 C 
ATOM     26  C   LIG A   1      -9.174   3.837 133.809  0.00  0.00    +0.008 C 
ATOM     27  C   LIG A   1      -9.232   5.760 132.223  0.00  0.00    -0.011 C 
ATOM     28  C   LIG A   1     -10.681   6.263 132.275  0.00  0.00    +0.008 C 
ATOM     29  C   LIG A   1      -8.447   6.264 131.015  0.00  0.00    +0.004 C 
ATOM     30  C   LIG A   1      -6.957   5.813 131.026  0.00  0.00    +0.010 C 
ENDROOT
BRANCH   4  31
ATOM     31  O   LIG A   1      -9.689  -1.749 123.920  0.00  0.00    -0.391 OA
ATOM     32  H   LIG A   1      -9.872  -2.657 123.628  0.00  0.00    +0.210 HD
ENDBRANCH   4  31
BRANCH  15  33
ATOM     33  O   LIG A   1      -8.159   3.368 126.501  0.00  0.00    -0.387 OA
ATOM     34  H   LIG A   1      -9.124   3.390 126.627  0.00  0.00    +0.210 HD
ENDBRANCH  15  33
BRANCH  21  35
ATOM     35  O   LIG A   1      -4.358   3.752 130.938  0.00  0.00    -0.391 OA
ATOM     36  H   LIG A   1      -4.178   3.422 131.837  0.00  0.00    +0.210 HD
ENDBRANCH  21  35
TORSDOF 3
ENDMDL
MODEL 3
REMARK VINA RESULT:      -9.0      2.734      5.020
REMARK  Name = NuBBE_1349
REMARK  11 active torsions:
REMARK  status: ('A' for Active; 'I' for Inactive)
REMARK    1  A    between atoms: C_1  and  C_2
REMARK    2  A    between atoms: C_2  and  C_3
REMARK    3  A    between atoms: C_4  and  O_5
REMARK    4  A    between atoms: C_9  and  C_10
REMARK    5  A    between atoms: C_14  and  C_15
REMARK    6  A    between atoms: C_17  and  O_19
REMARK    7  A    between atoms: C_22  and  C_23
REMARK    8  A    between atoms: C_25  and  O_27
REMARK    9  A    between atoms: C_28  and  C_29
REMARK   10  A    between atoms: C_31  and  C_33
REMARK   11  A    between atoms: C_34  and  C_36
REMARK                            x       y       z     vdW  Elec       q    Type
REMARK                         _______ _______ _______ _____ _____    ______ ____
ROOT
ATOM      1  C   LIG A   1      -9.505   7.297 130.350  0.00  0.00    +0.014 C 
ATOM      2  C   LIG A   1      -8.829   6.243 131.282  0.00  0.00    -0.006 C 
ATOM      3  C   LIG A   1      -7.439   6.854 131.594  0.00  0.00    +0.014 C 
ATOM      4  C   LIG A   1      -9.711   6.114 132.559  0.00  0.00    +0.120 C 
ATOM      5  C   LIG A   1      -9.413   4.896 133.433  0.00  0.00    +0.032 C 
ATOM      6  C   LIG A   1      -9.301   3.561 132.658  0.00  0.00    +0.010 C 
ATOM      7  C   LIG A   1      -8.245   3.599 131.500  0.00  0.00    -0.023 C 
ATOM      8  C   LIG A   1      -6.890   3.707 132.252  0.00  0.00    +0.012 C 
ATOM      9  C   LIG A   1      -8.744   4.827 130.587  0.00  0.00    +0.003 C 
ATOM     10  C   LIG A   1      -8.196   4.896 129.159  0.00  0.00    +0.005 C 
ATOM     11  C   LIG A   1      -8.191   3.533 128.461  0.00  0.00    +0.008 C 
ATOM     12  C   LIG A   1      -7.414   2.418 129.234  0.00  0.00    -0.017 C 
ATOM     13  C   LIG A   1      -5.993   3.015 129.383  0.00  0.00    +0.012 C 
ATOM     14  C   LIG A   1      -8.245   2.258 130.581  0.00  0.00    +0.035 C 
ATOM     15  C   LIG A   1      -7.906   0.895 131.226  0.00  0.00    +0.142 C 
ATOM     16  C   LIG A   1      -8.190  -0.307 130.327  0.00  0.00    +0.004 C 
ATOM     17  C   LIG A   1      -7.864  -0.312 128.991  0.00  0.00    -0.061 C 
ATOM     18  C   LIG A   1      -7.272   0.981 128.402  0.00  0.00    -0.003 C 
ATOM     19  C   LIG A   1      -8.081   1.141 127.076  0.00  0.00    +0.016 C 
ATOM     20  C   LIG A   1      -5.725   0.491 128.249  0.00  0.00    +0.043 C 
ATOM     21  C   LIG A   1      -5.340  -0.744 129.182  0.00  0.00    +0.122 C 
ATOM     22  C   LIG A   1      -6.029  -2.054 128.641  0.00  0.00    +0.001 C 
ATOM     23  C   LIG A   1      -5.115  -2.618 127.514  0.00  0.00    +0.014 C 
ATOM     24  C   LIG A   1      -7.403  -1.568 128.102  0.00  0.00    +0.027 C 
ATOM     25  C   LIG A   1      -8.322  -2.664 127.506  0.00  0.00    -0.003 C 
ATOM     26  C   LIG A   1      -7.968  -2.936 126.006  0.00  0.00    +0.008 C 
ATOM     27  C   LIG A   1      -8.216  -4.012 128.241  0.00  0.00    -0.011 C 
ATOM     28  C   LIG A   1      -9.572  -4.729 128.180  0.00  0.00    +0.008 C 
ATOM     29  C   LIG A   1      -7.677  -3.832 129.658  0.00  0.00    +0.004 C 
ATOM     30  C   LIG A   1      -6.263  -3.181 129.693  0.00  0.00    +0.010 C 
ENDROOT
BRANCH   4  31
ATOM     31  O   LIG A   1     -11.103   6.057 132.216  0.00  0.00    -0.391 OA
ATOM     32  H   LIG A   1     -11.319   6.825 131.662  0.00  0.00    +0.210 HD
ENDBRANCH   4  31
BRANCH  15  33
ATOM     33  O   LIG A   1      -8.628   0.671 132.426  0.00  0.00    -0.387 OA
ATOM     34  H   LIG A   1      -7.983   0.722 133.154  0.00  0.00    +0.210 HD
ENDBRANCH  15  33
BRANCH  21  35
ATOM     35  O   LIG A   1      -3.925  -0.861 129.291  0.00  0.00    -0.391 OA
ATOM     36  H   LIG A   1      -3.726  -0.947 130.240  0.00  0.00    +0.210 HD
ENDBRANCH  21  35
TORSDOF 3
ENDMDL
MODEL 4
REMARK VINA RESULT:      -8.9      2.271      8.394
REMARK  Name = NuBBE_1349
REMARK  11 active torsions:
REMARK  status: ('A' for Active; 'I' for Inactive)
REMARK    1  A    between atoms: C_1  and  C_2
REMARK    2  A    between atoms: C_2  and  C_3
REMARK    3  A    between atoms: C_4  and  O_5
REMARK    4  A    between atoms: C_9  and  C_10
REMARK    5  A    between atoms: C_14  and  C_15
REMARK    6  A    between atoms: C_17  and  O_19
REMARK    7  A    between atoms: C_22  and  C_23
REMARK    8  A    between atoms: C_25  and  O_27
REMARK    9  A    between atoms: C_28  and  C_29
REMARK   10  A    between atoms: C_31  and  C_33
REMARK   11  A    between atoms: C_34  and  C_36
REMARK                            x       y       z     vdW  Elec       q    Type
REMARK                         _______ _______ _______ _____ _____    ______ ____
ROOT
ATOM      1  C   LIG A   1      -7.301  -2.340 124.841  0.00  0.00    +0.014 C 
ATOM      2  C   LIG A   1      -7.510  -0.802 124.674  0.00  0.00    -0.006 C 
ATOM      3  C   LIG A   1      -6.746  -0.458 123.371  0.00  0.00    +0.014 C 
ATOM      4  C   LIG A   1      -9.042  -0.550 124.537  0.00  0.00    +0.120 C 
ATOM      5  C   LIG A   1      -9.478   0.904 124.710  0.00  0.00    +0.032 C 
ATOM      6  C   LIG A   1      -8.873   1.615 125.944  0.00  0.00    +0.010 C 
ATOM      7  C   LIG A   1      -7.307   1.568 125.984  0.00  0.00    -0.023 C 
ATOM      8  C   LIG A   1      -6.889   2.474 124.793  0.00  0.00    +0.012 C 
ATOM      9  C   LIG A   1      -6.983  -0.007 125.933  0.00  0.00    +0.003 C 
ATOM     10  C   LIG A   1      -5.581  -0.441 126.367  0.00  0.00    +0.005 C 
ATOM     11  C   LIG A   1      -5.106   0.274 127.635  0.00  0.00    +0.008 C 
ATOM     12  C   LIG A   1      -5.133   1.835 127.540  0.00  0.00    -0.017 C 
ATOM     13  C   LIG A   1      -4.230   2.131 126.318  0.00  0.00    +0.012 C 
ATOM     14  C   LIG A   1      -6.678   2.166 127.359  0.00  0.00    +0.035 C 
ATOM     15  C   LIG A   1      -6.925   3.646 127.728  0.00  0.00    +0.142 C 
ATOM     16  C   LIG A   1      -6.508   4.012 129.151  0.00  0.00    +0.004 C 
ATOM     17  C   LIG A   1      -5.328   3.569 129.702  0.00  0.00    -0.061 C 
ATOM     18  C   LIG A   1      -4.468   2.612 128.857  0.00  0.00    -0.003 C 
ATOM     19  C   LIG A   1      -4.088   1.507 129.893  0.00  0.00    +0.016 C 
ATOM     20  C   LIG A   1      -3.283   3.651 128.444  0.00  0.00    +0.043 C 
ATOM     21  C   LIG A   1      -3.700   5.187 128.549  0.00  0.00    +0.122 C 
ATOM     22  C   LIG A   1      -3.824   5.601 130.065  0.00  0.00    +0.001 C 
ATOM     23  C   LIG A   1      -2.390   5.956 130.558  0.00  0.00    +0.014 C 
ATOM     24  C   LIG A   1      -4.395   4.336 130.762  0.00  0.00    +0.027 C 
ATOM     25  C   LIG A   1      -4.636   4.453 132.287  0.00  0.00    -0.003 C 
ATOM     26  C   LIG A   1      -3.325   4.152 133.086  0.00  0.00    +0.008 C 
ATOM     27  C   LIG A   1      -5.111   5.852 132.721  0.00  0.00    -0.011 C 
ATOM     28  C   LIG A   1      -6.033   5.718 133.941  0.00  0.00    +0.008 C 
ATOM     29  C   LIG A   1      -5.738   6.613 131.555  0.00  0.00    +0.004 C 
ATOM     30  C   LIG A   1      -4.759   6.813 130.362  0.00  0.00    +0.010 C 
ENDROOT
BRANCH   4  31
ATOM     31  O   LIG A   1      -9.775  -1.328 125.494  0.00  0.00    -0.391 OA
ATOM     32  H   LIG A   1      -9.145  -1.814 126.050  0.00  0.00    +0.210 HD
ENDBRANCH   4  31
BRANCH  15  33
ATOM     33  O   LIG A   1      -8.291   4.012 127.610  0.00  0.00    -0.387 OA
ATOM     34  H   LIG A   1      -8.409   4.368 126.712  0.00  0.00    +0.210 HD
ENDBRANCH  15  33
BRANCH  21  35
ATOM     35  O   LIG A   1      -2.787   6.000 127.820  0.00  0.00    -0.391 OA
ATOM     36  H   LIG A   1      -3.230   6.856 127.678  0.00  0.00    +0.210 HD
ENDBRANCH  21  35
TORSDOF 3
ENDMDL
MODEL 5
REMARK VINA RESULT:      -8.7      1.264      1.539
REMARK  Name = NuBBE_1349
REMARK  11 active torsions:
REMARK  status: ('A' for Active; 'I' for Inactive)
REMARK    1  A    between atoms: C_1  and  C_2
REMARK    2  A    between atoms: C_2  and  C_3
REMARK    3  A    between atoms: C_4  and  O_5
REMARK    4  A    between atoms: C_9  and  C_10
REMARK    5  A    between atoms: C_14  and  C_15
REMARK    6  A    between atoms: C_17  and  O_19
REMARK    7  A    between atoms: C_22  and  C_23
REMARK    8  A    between atoms: C_25  and  O_27
REMARK    9  A    between atoms: C_28  and  C_29
REMARK   10  A    between atoms: C_31  and  C_33
REMARK   11  A    between atoms: C_34  and  C_36
REMARK                            x       y       z     vdW  Elec       q    Type
REMARK                         _______ _______ _______ _____ _____    ______ ____
ROOT
ATOM      1  C   LIG A   1      -5.172   4.765 132.508  0.00  0.00    +0.014 C 
ATOM      2  C   LIG A   1      -4.833   4.959 130.997  0.00  0.00    -0.006 C 
ATOM      3  C   LIG A   1      -5.609   6.239 130.599  0.00  0.00    +0.014 C 
ATOM      4  C   LIG A   1      -3.290   5.151 130.885  0.00  0.00    +0.120 C 
ATOM      5  C   LIG A   1      -2.720   5.013 129.474  0.00  0.00    +0.032 C 
ATOM      6  C   LIG A   1      -3.215   3.768 128.700  0.00  0.00    +0.010 C 
ATOM      7  C   LIG A   1      -4.777   3.673 128.606  0.00  0.00    -0.023 C 
ATOM      8  C   LIG A   1      -5.154   4.860 127.677  0.00  0.00    +0.012 C 
ATOM      9  C   LIG A   1      -5.241   3.692 130.146  0.00  0.00    +0.003 C 
ATOM     10  C   LIG A   1      -6.661   3.205 130.448  0.00  0.00    +0.005 C 
ATOM     11  C   LIG A   1      -7.025   1.930 129.681  0.00  0.00    +0.008 C 
ATOM     12  C   LIG A   1      -6.862   2.046 128.130  0.00  0.00    -0.017 C 
ATOM     13  C   LIG A   1      -7.778   3.240 127.766  0.00  0.00    +0.012 C 
ATOM     14  C   LIG A   1      -5.301   2.284 127.941  0.00  0.00    +0.035 C 
ATOM     15  C   LIG A   1      -4.909   1.943 126.485  0.00  0.00    +0.142 C 
ATOM     16  C   LIG A   1      -5.242   0.511 126.070  0.00  0.00    +0.004 C 
ATOM     17  C   LIG A   1      -6.436  -0.085 126.400  0.00  0.00    -0.061 C 
ATOM     18  C   LIG A   1      -7.408   0.717 127.285  0.00  0.00    -0.003 C 
ATOM     19  C   LIG A   1      -7.848  -0.346 128.341  0.00  0.00    +0.016 C 
ATOM     20  C   LIG A   1      -8.509   1.102 126.147  0.00  0.00    +0.043 C 
ATOM     21  C   LIG A   1      -7.953   1.031 124.654  0.00  0.00    +0.122 C 
ATOM     22  C   LIG A   1      -7.739  -0.474 124.238  0.00  0.00    +0.001 C 
ATOM     23  C   LIG A   1      -9.117  -1.012 123.752  0.00  0.00    +0.014 C 
ATOM     24  C   LIG A   1      -7.259  -1.167 125.543  0.00  0.00    +0.027 C 
ATOM     25  C   LIG A   1      -6.954  -2.682 125.432  0.00  0.00    -0.003 C 
ATOM     26  C   LIG A   1      -8.257  -3.529 125.608  0.00  0.00    +0.008 C 
ATOM     27  C   LIG A   1      -6.341  -3.081 124.078  0.00  0.00    -0.011 C 
ATOM     28  C   LIG A   1      -5.392  -4.270 124.283  0.00  0.00    +0.008 C 
ATOM     29  C   LIG A   1      -5.690  -1.884 123.387  0.00  0.00    +0.004 C 
ATOM     30  C   LIG A   1      -6.690  -0.723 123.111  0.00  0.00    +0.010 C 
ENDROOT
BRANCH   4  31
ATOM     31  O   LIG A   1      -2.596   4.210 131.716  0.00  0.00    -0.391 OA
ATOM     32  H   LIG A   1      -1.876   3.811 131.201  0.00  0.00    +0.210 HD
ENDBRANCH   4  31
BRANCH  15  33
ATOM     33  O   LIG A   1      -3.522   2.112 126.245  0.00  0.00    -0.387 OA
ATOM     34  H   LIG A   1      -3.169   2.629 126.991  0.00  0.00    +0.210 HD
ENDBRANCH  15  33
BRANCH  21  35
ATOM     35  O   LIG A   1      -8.815   1.738 123.769  0.00  0.00    -0.391 OA
ATOM     36  H   LIG A   1      -9.705   1.707 124.164  0.00  0.00    +0.210 HD
ENDBRANCH  21  35
TORSDOF 3
ENDMDL
MODEL 6
REMARK VINA RESULT:      -8.5      3.447      7.100
REMARK  Name = NuBBE_1349
REMARK  11 active torsions:
REMARK  status: ('A' for Active; 'I' for Inactive)
REMARK    1  A    between atoms: C_1  and  C_2
REMARK    2  A    between atoms: C_2  and  C_3
REMARK    3  A    between atoms: C_4  and  O_5
REMARK    4  A    between atoms: C_9  and  C_10
REMARK    5  A    between atoms: C_14  and  C_15
REMARK    6  A    between atoms: C_17  and  O_19
REMARK    7  A    between atoms: C_22  and  C_23
REMARK    8  A    between atoms: C_25  and  O_27
REMARK    9  A    between atoms: C_28  and  C_29
REMARK   10  A    between atoms: C_31  and  C_33
REMARK   11  A    between atoms: C_34  and  C_36
REMARK                            x       y       z     vdW  Elec       q    Type
REMARK                         _______ _______ _______ _____ _____    ______ ____
ROOT
ATOM      1  C   LIG A   1      -9.537   0.575 123.723  0.00  0.00    +0.014 C 
ATOM      2  C   LIG A   1      -8.148   0.991 124.300  0.00  0.00    -0.006 C 
ATOM      3  C   LIG A   1      -7.137   0.517 123.225  0.00  0.00    +0.014 C 
ATOM      4  C   LIG A   1      -8.151   2.541 124.457  0.00  0.00    +0.120 C 
ATOM      5  C   LIG A   1      -7.024   3.108 125.320  0.00  0.00    +0.032 C 
ATOM      6  C   LIG A   1      -6.821   2.380 126.670  0.00  0.00    +0.010 C 
ATOM      7  C   LIG A   1      -6.588   0.837 126.518  0.00  0.00    -0.023 C 
ATOM      8  C   LIG A   1      -5.195   0.749 125.836  0.00  0.00    +0.012 C 
ATOM      9  C   LIG A   1      -7.895   0.345 125.719  0.00  0.00    +0.003 C 
ATOM     10  C   LIG A   1      -8.205  -1.154 125.755  0.00  0.00    +0.005 C 
ATOM     11  C   LIG A   1      -8.037  -1.760 127.151  0.00  0.00    +0.008 C 
ATOM     12  C   LIG A   1      -6.624  -1.533 127.783  0.00  0.00    -0.017 C 
ATOM     13  C   LIG A   1      -5.665  -2.162 126.743  0.00  0.00    +0.012 C 
ATOM     14  C   LIG A   1      -6.541   0.047 127.939  0.00  0.00    +0.035 C 
ATOM     15  C   LIG A   1      -5.442   0.398 128.967  0.00  0.00    +0.142 C 
ATOM     16  C   LIG A   1      -5.659  -0.221 130.347  0.00  0.00    +0.004 C 
ATOM     17  C   LIG A   1      -6.069  -1.524 130.505  0.00  0.00    -0.061 C 
ATOM     18  C   LIG A   1      -6.387  -2.326 129.230  0.00  0.00    -0.003 C 
ATOM     19  C   LIG A   1      -7.740  -3.013 129.600  0.00  0.00    +0.016 C 
ATOM     20  C   LIG A   1      -5.071  -3.287 129.214  0.00  0.00    +0.043 C 
ATOM     21  C   LIG A   1      -3.840  -2.717 130.053  0.00  0.00    +0.122 C 
ATOM     22  C   LIG A   1      -4.155  -2.818 131.594  0.00  0.00    +0.001 C 
ATOM     23  C   LIG A   1      -3.791  -4.266 132.039  0.00  0.00    +0.014 C 
ATOM     24  C   LIG A   1      -5.679  -2.534 131.692  0.00  0.00    +0.027 C 
ATOM     25  C   LIG A   1      -6.282  -2.558 133.119  0.00  0.00    -0.003 C 
ATOM     26  C   LIG A   1      -6.651  -4.016 133.547  0.00  0.00    +0.008 C 
ATOM     27  C   LIG A   1      -5.325  -2.006 134.191  0.00  0.00    -0.011 C 
ATOM     28  C   LIG A   1      -6.144  -1.340 135.305  0.00  0.00    +0.008 C 
ATOM     29  C   LIG A   1      -4.265  -1.096 133.576  0.00  0.00    +0.004 C 
ATOM     30  C   LIG A   1      -3.389  -1.815 132.509  0.00  0.00    +0.010 C 
ENDROOT
BRANCH   4  31
ATOM     31  O   LIG A   1      -9.387   2.994 125.025  0.00  0.00    -0.391 OA
ATOM     32  H   LIG A   1     -10.122   2.628 124.507  0.00  0.00    +0.210 HD
ENDBRANCH   4  31
BRANCH  15  33
ATOM     33  O   LIG A   1      -5.322   1.796 129.175  0.00  0.00    -0.387 OA
ATOM     34  H   LIG A   1      -5.632   1.971 130.082  0.00  0.00    +0.210 HD
ENDBRANCH  15  33
BRANCH  21  35
ATOM     35  O   LIG A   1      -2.637  -3.383 129.683  0.00  0.00    -0.391 OA
ATOM     36  H   LIG A   1      -1.923  -2.724 129.749  0.00  0.00    +0.210 HD
ENDBRANCH  21  35
TORSDOF 3
ENDMDL
MODEL 7
REMARK VINA RESULT:      -8.3      2.243      4.143
REMARK  Name = NuBBE_1349
REMARK  11 active torsions:
REMARK  status: ('A' for Active; 'I' for Inactive)
REMARK    1  A    between atoms: C_1  and  C_2
REMARK    2  A    between atoms: C_2  and  C_3
REMARK    3  A    between atoms: C_4  and  O_5
REMARK    4  A    between atoms: C_9  and  C_10
REMARK    5  A    between atoms: C_14  and  C_15
REMARK    6  A    between atoms: C_17  and  O_19
REMARK    7  A    between atoms: C_22  and  C_23
REMARK    8  A    between atoms: C_25  and  O_27
REMARK    9  A    between atoms: C_28  and  C_29
REMARK   10  A    between atoms: C_31  and  C_33
REMARK   11  A    between atoms: C_34  and  C_36
REMARK                            x       y       z     vdW  Elec       q    Type
REMARK                         _______ _______ _______ _____ _____    ______ ____
ROOT
ATOM      1  C   LIG A   1      -4.877   7.321 130.560  0.00  0.00    +0.014 C 
ATOM      2  C   LIG A   1      -5.817   6.154 130.994  0.00  0.00    -0.006 C 
ATOM      3  C   LIG A   1      -5.115   5.549 132.237  0.00  0.00    +0.014 C 
ATOM      4  C   LIG A   1      -7.201   6.774 131.349  0.00  0.00    +0.120 C 
ATOM      5  C   LIG A   1      -8.350   5.774 131.464  0.00  0.00    +0.032 C 
ATOM      6  C   LIG A   1      -8.441   4.762 130.297  0.00  0.00    +0.010 C 
ATOM      7  C   LIG A   1      -7.115   3.956 130.066  0.00  0.00    -0.023 C 
ATOM      8  C   LIG A   1      -7.016   3.058 131.329  0.00  0.00    +0.012 C 
ATOM      9  C   LIG A   1      -6.021   5.110 129.826  0.00  0.00    +0.003 C 
ATOM     10  C   LIG A   1      -4.705   4.690 129.166  0.00  0.00    +0.005 C 
ATOM     11  C   LIG A   1      -4.912   3.742 127.982  0.00  0.00    +0.008 C 
ATOM     12  C   LIG A   1      -5.725   2.452 128.328  0.00  0.00    -0.017 C 
ATOM     13  C   LIG A   1      -4.898   1.807 129.467  0.00  0.00    +0.012 C 
ATOM     14  C   LIG A   1      -7.153   3.016 128.740  0.00  0.00    +0.035 C 
ATOM     15  C   LIG A   1      -8.195   1.878 128.645  0.00  0.00    +0.142 C 
ATOM     16  C   LIG A   1      -8.298   1.243 127.259  0.00  0.00    +0.004 C 
ATOM     17  C   LIG A   1      -7.185   0.941 126.510  0.00  0.00    -0.061 C 
ATOM     18  C   LIG A   1      -5.815   1.346 127.084  0.00  0.00    -0.003 C 
ATOM     19  C   LIG A   1      -5.117   1.995 125.847  0.00  0.00    +0.016 C 
ATOM     20  C   LIG A   1      -5.287  -0.134 127.515  0.00  0.00    +0.043 C 
ATOM     21  C   LIG A   1      -6.450  -1.208 127.707  0.00  0.00    +0.122 C 
ATOM     22  C   LIG A   1      -7.047  -1.601 126.303  0.00  0.00    +0.001 C 
ATOM     23  C   LIG A   1      -6.124  -2.704 125.707  0.00  0.00    +0.014 C 
ATOM     24  C   LIG A   1      -6.998  -0.281 125.484  0.00  0.00    +0.027 C 
ATOM     25  C   LIG A   1      -7.542  -0.362 124.037  0.00  0.00    -0.003 C 
ATOM     26  C   LIG A   1      -6.439  -0.870 123.051  0.00  0.00    +0.008 C 
ATOM     27  C   LIG A   1      -8.743  -1.314 123.891  0.00  0.00    -0.011 C 
ATOM     28  C   LIG A   1      -9.669  -0.795 122.782  0.00  0.00    +0.008 C 
ATOM     29  C   LIG A   1      -9.446  -1.532 125.229  0.00  0.00    +0.004 C 
ATOM     30  C   LIG A   1      -8.511  -2.139 126.316  0.00  0.00    +0.010 C 
ENDROOT
BRANCH   4  31
ATOM     31  O   LIG A   1      -7.588   7.751 130.373  0.00  0.00    -0.391 OA
ATOM     32  H   LIG A   1      -6.896   8.431 130.320  0.00  0.00    +0.210 HD
ENDBRANCH   4  31
BRANCH  15  33
ATOM     33  O   LIG A   1      -9.503   2.313 128.979  0.00  0.00    -0.387 OA
ATOM     34  H   LIG A   1      -9.515   2.447 129.943  0.00  0.00    +0.210 HD
ENDBRANCH  15  33
BRANCH  21  35
ATOM     35  O   LIG A   1      -5.973  -2.329 128.445  0.00  0.00    -0.391 OA
ATOM     36  H   LIG A   1      -5.557  -1.974 129.251  0.00  0.00    +0.210 HD
ENDBRANCH  21  35
TORSDOF 3
ENDMDL
MODEL 8
REMARK VINA RESULT:      -8.2      2.759      4.994
REMARK  Name = NuBBE_1349
REMARK  11 active torsions:
REMARK  status: ('A' for Active; 'I' for Inactive)
REMARK    1  A    between atoms: C_1  and  C_2
REMARK    2  A    between atoms: C_2  and  C_3
REMARK    3  A    between atoms: C_4  and  O_5
REMARK    4  A    between atoms: C_9  and  C_10
REMARK    5  A    between atoms: C_14  and  C_15
REMARK    6  A    between atoms: C_17  and  O_19
REMARK    7  A    between atoms: C_22  and  C_23
REMARK    8  A    between atoms: C_25  and  O_27
REMARK    9  A    between atoms: C_28  and  C_29
REMARK   10  A    between atoms: C_31  and  C_33
REMARK   11  A    between atoms: C_34  and  C_36
REMARK                            x       y       z     vdW  Elec       q    Type
REMARK                         _______ _______ _______ _____ _____    ______ ____
ROOT
ATOM      1  C   LIG A   1      -5.260   7.521 130.348  0.00  0.00    +0.014 C 
ATOM      2  C   LIG A   1      -5.958   6.441 131.232  0.00  0.00    -0.006 C 
ATOM      3  C   LIG A   1      -5.087   6.383 132.512  0.00  0.00    +0.014 C 
ATOM      4  C   LIG A   1      -7.403   6.943 131.530  0.00  0.00    +0.120 C 
ATOM      5  C   LIG A   1      -8.355   5.885 132.085  0.00  0.00    +0.032 C 
ATOM      6  C   LIG A   1      -8.346   4.543 131.314  0.00  0.00    +0.010 C 
ATOM      7  C   LIG A   1      -6.920   3.902 131.196  0.00  0.00    -0.023 C 
ATOM      8  C   LIG A   1      -6.589   3.491 132.658  0.00  0.00    +0.012 C 
ATOM      9  C   LIG A   1      -6.055   5.054 130.482  0.00  0.00    +0.003 C 
ATOM     10  C   LIG A   1      -4.731   4.630 129.840  0.00  0.00    +0.005 C 
ATOM     11  C   LIG A   1      -4.849   3.326 129.046  0.00  0.00    +0.008 C 
ATOM     12  C   LIG A   1      -5.406   2.121 129.871  0.00  0.00    -0.017 C 
ATOM     13  C   LIG A   1      -4.412   2.009 131.053  0.00  0.00    +0.012 C 
ATOM     14  C   LIG A   1      -6.881   2.582 130.246  0.00  0.00    +0.035 C 
ATOM     15  C   LIG A   1      -7.718   1.342 130.634  0.00  0.00    +0.142 C 
ATOM     16  C   LIG A   1      -7.799   0.279 129.540  0.00  0.00    +0.004 C 
ATOM     17  C   LIG A   1      -6.700  -0.092 128.800  0.00  0.00    -0.061 C 
ATOM     18  C   LIG A   1      -5.386   0.666 129.056  0.00  0.00    -0.003 C 
ATOM     19  C   LIG A   1      -4.888   0.964 127.606  0.00  0.00    +0.016 C 
ATOM     20  C   LIG A   1      -4.587  -0.500 129.867  0.00  0.00    +0.043 C 
ATOM     21  C   LIG A   1      -5.536  -1.603 130.519  0.00  0.00    +0.122 C 
ATOM     22  C   LIG A   1      -6.146  -2.515 129.388  0.00  0.00    +0.001 C 
ATOM     23  C   LIG A   1      -5.088  -3.612 129.067  0.00  0.00    +0.014 C 
ATOM     24  C   LIG A   1      -6.374  -1.545 128.196  0.00  0.00    +0.027 C 
ATOM     25  C   LIG A   1      -6.986  -2.172 126.920  0.00  0.00    -0.003 C 
ATOM     26  C   LIG A   1      -5.877  -2.816 126.024  0.00  0.00    +0.008 C 
ATOM     27  C   LIG A   1      -8.015  -3.278 127.220  0.00  0.00    -0.011 C 
ATOM     28  C   LIG A   1      -9.084  -3.288 126.119  0.00  0.00    +0.008 C 
ATOM     29  C   LIG A   1      -8.584  -3.141 128.630  0.00  0.00    +0.004 C 
ATOM     30  C   LIG A   1      -7.492  -3.219 129.738  0.00  0.00    +0.010 C 
ENDROOT
BRANCH   4  31
ATOM     31  O   LIG A   1      -8.011   7.480 130.347  0.00  0.00    -0.391 OA
ATOM     32  H   LIG A   1      -8.976   7.467 130.459  0.00  0.00    +0.210 HD
ENDBRANCH   4  31
BRANCH  15  33
ATOM     33  O   LIG A   1      -9.057   1.674 130.963  0.00  0.00    -0.387 OA
ATOM     34  H   LIG A   1      -9.018   2.466 131.529  0.00  0.00    +0.210 HD
ENDBRANCH  15  33
BRANCH  21  35
ATOM     35  O   LIG A   1      -4.830  -2.341 131.512  0.00  0.00    -0.391 OA
ATOM     36  H   LIG A   1      -5.401  -3.089 131.761  0.00  0.00    +0.210 HD
ENDBRANCH  21  35
TORSDOF 3
ENDMDL
MODEL 9
REMARK VINA RESULT:      -8.2      3.855      5.748
REMARK  Name = NuBBE_1349
REMARK  11 active torsions:
REMARK  status: ('A' for Active; 'I' for Inactive)
REMARK    1  A    between atoms: C_1  and  C_2
REMARK    2  A    between atoms: C_2  and  C_3
REMARK    3  A    between atoms: C_4  and  O_5
REMARK    4  A    between atoms: C_9  and  C_10
REMARK    5  A    between atoms: C_14  and  C_15
REMARK    6  A    between atoms: C_17  and  O_19
REMARK    7  A    between atoms: C_22  and  C_23
REMARK    8  A    between atoms: C_25  and  O_27
REMARK    9  A    between atoms: C_28  and  C_29
REMARK   10  A    between atoms: C_31  and  C_33
REMARK   11  A    between atoms: C_34  and  C_36
REMARK                            x       y       z     vdW  Elec       q    Type
REMARK                         _______ _______ _______ _____ _____    ______ ____
ROOT
ATOM      1  C   LIG A   1      -1.604   6.567 134.304  0.00  0.00    +0.014 C 
ATOM      2  C   LIG A   1      -2.526   6.358 133.061  0.00  0.00    -0.006 C 
ATOM      3  C   LIG A   1      -3.832   7.103 133.433  0.00  0.00    +0.014 C 
ATOM      4  C   LIG A   1      -1.812   7.005 131.836  0.00  0.00    +0.120 C 
ATOM      5  C   LIG A   1      -2.380   6.612 130.473  0.00  0.00    +0.032 C 
ATOM      6  C   LIG A   1      -2.609   5.093 130.286  0.00  0.00    +0.010 C 
ATOM      7  C   LIG A   1      -3.520   4.459 131.394  0.00  0.00    -0.023 C 
ATOM      8  C   LIG A   1      -4.915   5.082 131.113  0.00  0.00    +0.012 C 
ATOM      9  C   LIG A   1      -2.749   4.824 132.757  0.00  0.00    +0.003 C 
ATOM     10  C   LIG A   1      -3.126   4.019 134.004  0.00  0.00    +0.005 C 
ATOM     11  C   LIG A   1      -3.262   2.520 133.722  0.00  0.00    +0.008 C 
ATOM     12  C   LIG A   1      -4.275   2.171 132.583  0.00  0.00    -0.017 C 
ATOM     13  C   LIG A   1      -5.598   2.804 133.078  0.00  0.00    +0.012 C 
ATOM     14  C   LIG A   1      -3.625   2.839 131.294  0.00  0.00    +0.035 C 
ATOM     15  C   LIG A   1      -4.230   2.193 130.028  0.00  0.00    +0.142 C 
ATOM     16  C   LIG A   1      -4.037   0.680 129.948  0.00  0.00    +0.004 C 
ATOM     17  C   LIG A   1      -4.217  -0.138 131.038  0.00  0.00    -0.061 C 
ATOM     18  C   LIG A   1      -4.543   0.538 132.383  0.00  0.00    -0.003 C 
ATOM     19  C   LIG A   1      -3.584  -0.205 133.367  0.00  0.00    +0.016 C 
ATOM     20  C   LIG A   1      -6.121   0.141 132.477  0.00  0.00    +0.043 C 
ATOM     21  C   LIG A   1      -6.783  -0.224 131.073  0.00  0.00    +0.122 C 
ATOM     22  C   LIG A   1      -6.246  -1.620 130.578  0.00  0.00    +0.001 C 
ATOM     23  C   LIG A   1      -7.111  -2.713 131.272  0.00  0.00    +0.014 C 
ATOM     24  C   LIG A   1      -4.765  -1.648 131.049  0.00  0.00    +0.027 C 
ATOM     25  C   LIG A   1      -3.964  -2.923 130.687  0.00  0.00    -0.003 C 
ATOM     26  C   LIG A   1      -4.194  -4.049 131.749  0.00  0.00    +0.008 C 
ATOM     27  C   LIG A   1      -4.348  -3.514 129.319  0.00  0.00    -0.011 C 
ATOM     28  C   LIG A   1      -3.117  -4.184 128.693  0.00  0.00    +0.008 C 
ATOM     29  C   LIG A   1      -5.001  -2.464 128.423  0.00  0.00    +0.004 C 
ATOM     30  C   LIG A   1      -6.296  -1.858 129.038  0.00  0.00    +0.010 C 
ENDROOT
BRANCH   4  31
ATOM     31  O   LIG A   1      -0.417   6.674 131.824  0.00  0.00    -0.391 OA
ATOM     32  H   LIG A   1      -0.259   6.011 131.132  0.00  0.00    +0.210 HD
ENDBRANCH   4  31
BRANCH  15  33
ATOM     33  O   LIG A   1      -3.681   2.726 128.834  0.00  0.00    -0.387 OA
ATOM     34  H   LIG A   1      -4.318   2.533 128.122  0.00  0.00    +0.210 HD
ENDBRANCH  15  33
BRANCH  21  35
ATOM     35  O   LIG A   1      -8.203  -0.173 131.166  0.00  0.00    -0.391 OA
ATOM     36  H   LIG A   1      -8.550  -0.523 130.326  0.00  0.00    +0.210 HD
ENDBRANCH  21  35
TORSDOF 3
ENDMDL
