MODEL 1
REMARK VINA RESULT:      -7.1      0.000      0.000
REMARK  Name = NuBBE_1024
REMARK  8 active torsions:
REMARK  status: ('A' for Active; 'I' for Inactive)
REMARK    1  A    between atoms: C_1  and  C_2
REMARK    2  A    between atoms: C_2  and  C_3
REMARK    3  A    between atoms: C_7  and  O_8
REMARK    4  A    between atoms: O_8  and  C_9
REMARK    5  A    between atoms: C_10  and  C_11
REMARK    6  A    between atoms: C_11  and  C_12
REMARK    7  A    between atoms: C_12  and  C_13
REMARK    8  A    between atoms: C_13  and  O_14
REMARK                            x       y       z     vdW  Elec       q    Type
REMARK                         _______ _______ _______ _____ _____    ______ ____
ROOT
ATOM      1  C   LIG A   1     -13.408   9.581 128.501  0.00  0.00    +0.060 C 
ATOM      2  C   LIG A   1     -12.680   8.233 128.605  0.00  0.00    +0.123 C 
ATOM      3  C   LIG A   1     -13.442   7.169 127.806  0.00  0.00    +0.060 C 
ATOM      4  O   LIG A   1     -12.720   7.869 129.998  0.00  0.00    -0.481 OA
ATOM      5  C   LIG A   1     -11.618   7.258 130.544  0.00  0.00    +0.132 A 
ATOM      6  C   LIG A   1     -10.344   7.236 129.947  0.00  0.00    +0.058 A 
ATOM      7  C   LIG A   1      -9.298   6.528 130.595  0.00  0.00    +0.134 A 
ATOM      8  C   LIG A   1      -9.540   5.901 131.847  0.00  0.00    -0.004 A 
ATOM      9  C   LIG A   1     -10.805   6.013 132.445  0.00  0.00    +0.011 A 
ATOM     10  C   LIG A   1     -11.837   6.680 131.793  0.00  0.00    +0.047 A 
ATOM     11  C   LIG A   1     -10.200   8.021 128.722  0.00  0.00    +0.015 C 
ATOM     12  C   LIG A   1     -11.290   8.428 128.067  0.00  0.00    +0.020 C 
ENDROOT
BRANCH   7  13
ATOM     13  O   LIG A   1      -7.991   6.446 130.172  0.00  0.00    -0.494 OA
ATOM     14  C   LIG A   1      -7.017   7.258 130.819  0.00  0.00    +0.277 C 
ENDBRANCH   7  13
BRANCH   8  15
ATOM     15  C   LIG A   1      -8.494   5.054 132.554  0.00  0.00    +0.050 C 
BRANCH  15  16
ATOM     16  C   LIG A   1      -9.052   4.121 133.631  0.00  0.00    +0.125 C 
BRANCH  16  17
ATOM     17  C   LIG A   1      -9.093   2.701 133.128  0.00  0.00    +0.305 C 
ATOM     18  O   LIG A   1      -8.185   1.878 133.265  0.00  0.00    -0.251 OA
BRANCH  17  19
ATOM     19  O   LIG A   1     -10.218   2.401 132.439  0.00  0.00    -0.481 OA
ATOM     20  H   LIG A   1     -10.732   3.180 132.147  0.00  0.00    +0.295 HD
ENDBRANCH  17  19
ENDBRANCH  16  17
ENDBRANCH  15  16
ENDBRANCH   8  15
TORSDOF 5
ENDMDL
MODEL 2
REMARK VINA RESULT:      -6.5      1.474      1.604
REMARK  Name = NuBBE_1024
REMARK  8 active torsions:
REMARK  status: ('A' for Active; 'I' for Inactive)
REMARK    1  A    between atoms: C_1  and  C_2
REMARK    2  A    between atoms: C_2  and  C_3
REMARK    3  A    between atoms: C_7  and  O_8
REMARK    4  A    between atoms: O_8  and  C_9
REMARK    5  A    between atoms: C_10  and  C_11
REMARK    6  A    between atoms: C_11  and  C_12
REMARK    7  A    between atoms: C_12  and  C_13
REMARK    8  A    between atoms: C_13  and  O_14
REMARK                            x       y       z     vdW  Elec       q    Type
REMARK                         _______ _______ _______ _____ _____    ______ ____
ROOT
ATOM      1  C   LIG A   1     -13.405   9.727 128.584  0.00  0.00    +0.060 C 
ATOM      2  C   LIG A   1     -12.862   8.293 128.658  0.00  0.00    +0.123 C 
ATOM      3  C   LIG A   1     -13.887   7.319 128.068  0.00  0.00    +0.060 C 
ATOM      4  O   LIG A   1     -12.715   8.000 130.062  0.00  0.00    -0.481 OA
ATOM      5  C   LIG A   1     -11.631   7.259 130.462  0.00  0.00    +0.132 A 
ATOM      6  C   LIG A   1     -10.492   7.024 129.669  0.00  0.00    +0.058 A 
ATOM      7  C   LIG A   1      -9.459   6.200 130.186  0.00  0.00    +0.134 A 
ATOM      8  C   LIG A   1      -9.568   5.669 131.500  0.00  0.00    -0.004 A 
ATOM      9  C   LIG A   1     -10.686   5.992 132.286  0.00  0.00    +0.011 A 
ATOM     10  C   LIG A   1     -11.712   6.774 131.766  0.00  0.00    +0.047 A 
ATOM     11  C   LIG A   1     -10.451   7.726 128.387  0.00  0.00    +0.015 C 
ATOM     12  C   LIG A   1     -11.570   8.259 127.891  0.00  0.00    +0.020 C 
ENDROOT
BRANCH   7  13
ATOM     13  O   LIG A   1      -8.266   5.908 129.564  0.00  0.00    -0.494 OA
ATOM     14  C   LIG A   1      -8.218   4.795 128.679  0.00  0.00    +0.277 C 
ENDBRANCH   7  13
BRANCH   8  15
ATOM     15  C   LIG A   1      -8.544   4.710 132.084  0.00  0.00    +0.050 C 
BRANCH  15  16
ATOM     16  C   LIG A   1      -7.585   5.342 133.096  0.00  0.00    +0.125 C 
BRANCH  16  17
ATOM     17  C   LIG A   1      -7.625   4.590 134.400  0.00  0.00    +0.305 C 
ATOM     18  O   LIG A   1      -6.733   3.845 134.813  0.00  0.00    -0.251 OA
BRANCH  17  19
ATOM     19  O   LIG A   1      -8.779   4.753 135.086  0.00  0.00    -0.481 OA
ATOM     20  H   LIG A   1      -9.222   5.611 134.933  0.00  0.00    +0.295 HD
ENDBRANCH  17  19
ENDBRANCH  16  17
ENDBRANCH  15  16
ENDBRANCH   8  15
TORSDOF 5
ENDMDL
MODEL 3
REMARK VINA RESULT:      -6.3      8.999     11.452
REMARK  Name = NuBBE_1024
REMARK  8 active torsions:
REMARK  status: ('A' for Active; 'I' for Inactive)
REMARK    1  A    between atoms: C_1  and  C_2
REMARK    2  A    between atoms: C_2  and  C_3
REMARK    3  A    between atoms: C_7  and  O_8
REMARK    4  A    between atoms: O_8  and  C_9
REMARK    5  A    between atoms: C_10  and  C_11
REMARK    6  A    between atoms: C_11  and  C_12
REMARK    7  A    between atoms: C_12  and  C_13
REMARK    8  A    between atoms: C_13  and  O_14
REMARK                            x       y       z     vdW  Elec       q    Type
REMARK                         _______ _______ _______ _____ _____    ______ ____
ROOT
ATOM      1  C   LIG A   1      -6.686  -3.638 130.327  0.00  0.00    +0.060 C 
ATOM      2  C   LIG A   1      -7.052  -2.590 129.266  0.00  0.00    +0.123 C 
ATOM      3  C   LIG A   1      -7.648  -1.351 129.945  0.00  0.00    +0.060 C 
ATOM      4  O   LIG A   1      -8.074  -3.196 128.450  0.00  0.00    -0.481 OA
ATOM      5  C   LIG A   1      -8.057  -2.952 127.099  0.00  0.00    +0.132 A 
ATOM      6  C   LIG A   1      -6.956  -2.421 126.400  0.00  0.00    +0.058 A 
ATOM      7  C   LIG A   1      -7.086  -2.174 125.009  0.00  0.00    +0.134 A 
ATOM      8  C   LIG A   1      -8.295  -2.509 124.341  0.00  0.00    -0.004 A 
ATOM      9  C   LIG A   1      -9.340  -3.109 125.061  0.00  0.00    +0.011 A 
ATOM     10  C   LIG A   1      -9.223  -3.321 126.430  0.00  0.00    +0.047 A 
ATOM     11  C   LIG A   1      -5.734  -2.235 127.182  0.00  0.00    +0.015 C 
ATOM     12  C   LIG A   1      -5.795  -2.251 128.515  0.00  0.00    +0.020 C 
ENDROOT
BRANCH   7  13
ATOM     13  O   LIG A   1      -6.098  -1.703 124.174  0.00  0.00    -0.494 OA
ATOM     14  C   LIG A   1      -5.160  -2.633 123.642  0.00  0.00    +0.277 C 
ENDBRANCH   7  13
BRANCH   8  15
ATOM     15  C   LIG A   1      -8.534  -2.193 122.874  0.00  0.00    +0.050 C 
BRANCH  15  16
ATOM     16  C   LIG A   1      -9.524  -1.053 122.622  0.00  0.00    +0.125 C 
BRANCH  16  17
ATOM     17  C   LIG A   1      -9.215   0.120 123.515  0.00  0.00    +0.305 C 
ATOM     18  O   LIG A   1      -9.976   0.572 124.374  0.00  0.00    -0.251 OA
BRANCH  17  19
ATOM     19  O   LIG A   1      -8.020   0.699 123.258  0.00  0.00    -0.481 OA
ATOM     20  H   LIG A   1      -7.998   1.231 122.438  0.00  0.00    +0.295 HD
ENDBRANCH  17  19
ENDBRANCH  16  17
ENDBRANCH  15  16
ENDBRANCH   8  15
TORSDOF 5
ENDMDL
MODEL 4
REMARK VINA RESULT:      -6.3      7.607      9.654
REMARK  Name = NuBBE_1024
REMARK  8 active torsions:
REMARK  status: ('A' for Active; 'I' for Inactive)
REMARK    1  A    between atoms: C_1  and  C_2
REMARK    2  A    between atoms: C_2  and  C_3
REMARK    3  A    between atoms: C_7  and  O_8
REMARK    4  A    between atoms: O_8  and  C_9
REMARK    5  A    between atoms: C_10  and  C_11
REMARK    6  A    between atoms: C_11  and  C_12
REMARK    7  A    between atoms: C_12  and  C_13
REMARK    8  A    between atoms: C_13  and  O_14
REMARK                            x       y       z     vdW  Elec       q    Type
REMARK                         _______ _______ _______ _____ _____    ______ ____
ROOT
ATOM      1  C   LIG A   1      -2.700   4.860 128.035  0.00  0.00    +0.060 C 
ATOM      2  C   LIG A   1      -3.049   3.679 127.117  0.00  0.00    +0.123 C 
ATOM      3  C   LIG A   1      -1.766   3.079 126.533  0.00  0.00    +0.060 C 
ATOM      4  O   LIG A   1      -3.822   4.236 126.036  0.00  0.00    -0.481 OA
ATOM      5  C   LIG A   1      -4.875   3.505 125.544  0.00  0.00    +0.132 A 
ATOM      6  C   LIG A   1      -5.456   2.405 126.203  0.00  0.00    +0.058 A 
ATOM      7  C   LIG A   1      -6.512   1.706 125.563  0.00  0.00    +0.134 A 
ATOM      8  C   LIG A   1      -6.993   2.151 124.302  0.00  0.00    -0.004 A 
ATOM      9  C   LIG A   1      -6.436   3.299 123.715  0.00  0.00    +0.011 A 
ATOM     10  C   LIG A   1      -5.381   3.965 124.329  0.00  0.00    +0.047 A 
ATOM     11  C   LIG A   1      -4.950   2.126 127.547  0.00  0.00    +0.015 C 
ATOM     12  C   LIG A   1      -3.797   2.671 127.943  0.00  0.00    +0.020 C 
ENDROOT
BRANCH   7  13
ATOM     13  O   LIG A   1      -7.215   0.645 126.086  0.00  0.00    -0.494 OA
ATOM     14  C   LIG A   1      -8.278   0.917 126.993  0.00  0.00    +0.277 C 
ENDBRANCH   7  13
BRANCH   8  15
ATOM     15  C   LIG A   1      -8.059   1.401 123.520  0.00  0.00    +0.050 C 
BRANCH  15  16
ATOM     16  C   LIG A   1      -9.424   2.091 123.482  0.00  0.00    +0.125 C 
BRANCH  16  17
ATOM     17  C   LIG A   1     -10.514   1.088 123.207  0.00  0.00    +0.305 C 
ATOM     18  O   LIG A   1     -10.451   0.192 122.361  0.00  0.00    -0.251 OA
BRANCH  17  19
ATOM     19  O   LIG A   1     -11.631   1.284 123.944  0.00  0.00    -0.481 OA
ATOM     20  H   LIG A   1     -11.477   1.737 124.797  0.00  0.00    +0.295 HD
ENDBRANCH  17  19
ENDBRANCH  16  17
ENDBRANCH  15  16
ENDBRANCH   8  15
TORSDOF 5
ENDMDL
MODEL 5
REMARK VINA RESULT:      -6.3      9.808     11.706
REMARK  Name = NuBBE_1024
REMARK  8 active torsions:
REMARK  status: ('A' for Active; 'I' for Inactive)
REMARK    1  A    between atoms: C_1  and  C_2
REMARK    2  A    between atoms: C_2  and  C_3
REMARK    3  A    between atoms: C_7  and  O_8
REMARK    4  A    between atoms: O_8  and  C_9
REMARK    5  A    between atoms: C_10  and  C_11
REMARK    6  A    between atoms: C_11  and  C_12
REMARK    7  A    between atoms: C_12  and  C_13
REMARK    8  A    between atoms: C_13  and  O_14
REMARK                            x       y       z     vdW  Elec       q    Type
REMARK                         _______ _______ _______ _____ _____    ______ ____
ROOT
ATOM      1  C   LIG A   1      -3.812  -4.233 132.251  0.00  0.00    +0.060 C 
ATOM      2  C   LIG A   1      -4.444  -3.084 131.453  0.00  0.00    +0.123 C 
ATOM      3  C   LIG A   1      -4.461  -1.809 132.304  0.00  0.00    +0.060 C 
ATOM      4  O   LIG A   1      -5.806  -3.480 131.204  0.00  0.00    -0.481 OA
ATOM      5  C   LIG A   1      -6.363  -3.166 129.988  0.00  0.00    +0.132 A 
ATOM      6  C   LIG A   1      -5.628  -2.770 128.855  0.00  0.00    +0.058 A 
ATOM      7  C   LIG A   1      -6.332  -2.429 127.670  0.00  0.00    +0.134 A 
ATOM      8  C   LIG A   1      -7.748  -2.538 127.633  0.00  0.00    -0.004 A 
ATOM      9  C   LIG A   1      -8.436  -3.012 128.761  0.00  0.00    +0.011 A 
ATOM     10  C   LIG A   1      -7.748  -3.316 129.931  0.00  0.00    +0.047 A 
ATOM     11  C   LIG A   1      -4.173  -2.815 128.991  0.00  0.00    +0.015 C 
ATOM     12  C   LIG A   1      -3.626  -2.897 130.206  0.00  0.00    +0.020 C 
ENDROOT
BRANCH   7  13
ATOM     13  O   LIG A   1      -5.767  -2.066 126.469  0.00  0.00    -0.494 OA
ATOM     14  C   LIG A   1      -5.412  -0.702 126.271  0.00  0.00    +0.277 C 
ENDBRANCH   7  13
BRANCH   8  15
ATOM     15  C   LIG A   1      -8.570  -2.107 126.430  0.00  0.00    +0.050 C 
BRANCH  15  16
ATOM     16  C   LIG A   1      -9.372  -3.232 125.771  0.00  0.00    +0.125 C 
BRANCH  16  17
ATOM     17  C   LIG A   1      -8.989  -3.372 124.320  0.00  0.00    +0.305 C 
ATOM     18  O   LIG A   1      -7.832  -3.379 123.894  0.00  0.00    -0.251 OA
BRANCH  17  19
ATOM     19  O   LIG A   1     -10.048  -3.436 123.482  0.00  0.00    -0.481 OA
ATOM     20  H   LIG A   1     -10.897  -3.648 123.920  0.00  0.00    +0.295 HD
ENDBRANCH  17  19
ENDBRANCH  16  17
ENDBRANCH  15  16
ENDBRANCH   8  15
TORSDOF 5
ENDMDL
MODEL 6
REMARK VINA RESULT:      -6.2      1.525      1.691
REMARK  Name = NuBBE_1024
REMARK  8 active torsions:
REMARK  status: ('A' for Active; 'I' for Inactive)
REMARK    1  A    between atoms: C_1  and  C_2
REMARK    2  A    between atoms: C_2  and  C_3
REMARK    3  A    between atoms: C_7  and  O_8
REMARK    4  A    between atoms: O_8  and  C_9
REMARK    5  A    between atoms: C_10  and  C_11
REMARK    6  A    between atoms: C_11  and  C_12
REMARK    7  A    between atoms: C_12  and  C_13
REMARK    8  A    between atoms: C_13  and  O_14
REMARK                            x       y       z     vdW  Elec       q    Type
REMARK                         _______ _______ _______ _____ _____    ______ ____
ROOT
ATOM      1  C   LIG A   1     -13.331   8.888 128.469  0.00  0.00    +0.060 C 
ATOM      2  C   LIG A   1     -12.283   7.820 128.127  0.00  0.00    +0.123 C 
ATOM      3  C   LIG A   1     -12.524   7.290 126.709  0.00  0.00    +0.060 C 
ATOM      4  O   LIG A   1     -12.501   6.741 129.057  0.00  0.00    -0.481 OA
ATOM      5  C   LIG A   1     -11.406   6.082 129.558  0.00  0.00    +0.132 A 
ATOM      6  C   LIG A   1     -10.085   6.564 129.485  0.00  0.00    +0.058 A 
ATOM      7  C   LIG A   1      -9.036   5.760 130.003  0.00  0.00    +0.134 A 
ATOM      8  C   LIG A   1      -9.337   4.517 130.622  0.00  0.00    -0.004 A 
ATOM      9  C   LIG A   1     -10.675   4.111 130.743  0.00  0.00    +0.011 A 
ATOM     10  C   LIG A   1     -11.699   4.884 130.208  0.00  0.00    +0.047 A 
ATOM     11  C   LIG A   1      -9.926   7.908 128.932  0.00  0.00    +0.015 C 
ATOM     12  C   LIG A   1     -10.929   8.463 128.247  0.00  0.00    +0.020 C 
ENDROOT
BRANCH   7  13
ATOM     13  O   LIG A   1      -7.703   6.100 130.051  0.00  0.00    -0.494 OA
ATOM     14  C   LIG A   1      -7.262   6.966 131.091  0.00  0.00    +0.277 C 
ENDBRANCH   7  13
BRANCH   8  15
ATOM     15  C   LIG A   1      -8.259   3.568 131.119  0.00  0.00    +0.050 C 
BRANCH  15  16
ATOM     16  C   LIG A   1      -8.546   2.087 130.857  0.00  0.00    +0.125 C 
BRANCH  16  17
ATOM     17  C   LIG A   1      -8.774   1.358 132.155  0.00  0.00    +0.305 C 
ATOM     18  O   LIG A   1      -9.322   0.257 132.260  0.00  0.00    -0.251 OA
BRANCH  17  19
ATOM     19  O   LIG A   1      -8.370   2.049 133.245  0.00  0.00    -0.481 OA
ATOM     20  H   LIG A   1      -7.667   1.610 133.764  0.00  0.00    +0.295 HD
ENDBRANCH  17  19
ENDBRANCH  16  17
ENDBRANCH  15  16
ENDBRANCH   8  15
TORSDOF 5
ENDMDL
MODEL 7
REMARK VINA RESULT:      -6.2      7.941     10.715
REMARK  Name = NuBBE_1024
REMARK  8 active torsions:
REMARK  status: ('A' for Active; 'I' for Inactive)
REMARK    1  A    between atoms: C_1  and  C_2
REMARK    2  A    between atoms: C_2  and  C_3
REMARK    3  A    between atoms: C_7  and  O_8
REMARK    4  A    between atoms: O_8  and  C_9
REMARK    5  A    between atoms: C_10  and  C_11
REMARK    6  A    between atoms: C_11  and  C_12
REMARK    7  A    between atoms: C_12  and  C_13
REMARK    8  A    between atoms: C_13  and  O_14
REMARK                            x       y       z     vdW  Elec       q    Type
REMARK                         _______ _______ _______ _____ _____    ______ ____
ROOT
ATOM      1  C   LIG A   1      -7.496  -2.803 131.149  0.00  0.00    +0.060 C 
ATOM      2  C   LIG A   1      -7.047  -2.759 129.681  0.00  0.00    +0.123 C 
ATOM      3  C   LIG A   1      -5.618  -3.300 129.559  0.00  0.00    +0.060 C 
ATOM      4  O   LIG A   1      -7.036  -1.365 129.315  0.00  0.00    -0.481 OA
ATOM      5  C   LIG A   1      -7.450  -1.021 128.052  0.00  0.00    +0.132 A 
ATOM      6  C   LIG A   1      -8.175  -1.869 127.194  0.00  0.00    +0.058 A 
ATOM      7  C   LIG A   1      -8.503  -1.406 125.893  0.00  0.00    +0.134 A 
ATOM      8  C   LIG A   1      -8.141  -0.089 125.499  0.00  0.00    -0.004 A 
ATOM      9  C   LIG A   1      -7.487   0.751 126.414  0.00  0.00    +0.011 A 
ATOM     10  C   LIG A   1      -7.139   0.285 127.677  0.00  0.00    +0.047 A 
ATOM     11  C   LIG A   1      -8.590  -3.150 127.764  0.00  0.00    +0.015 C 
ATOM     12  C   LIG A   1      -8.016  -3.589 128.887  0.00  0.00    +0.020 C 
ENDROOT
BRANCH   7  13
ATOM     13  O   LIG A   1      -9.242  -2.087 124.953  0.00  0.00    -0.494 OA
ATOM     14  C   LIG A   1      -8.605  -3.121 124.210  0.00  0.00    +0.277 C 
ENDBRANCH   7  13
BRANCH   8  15
ATOM     15  C   LIG A   1      -8.382   0.441 124.096  0.00  0.00    +0.050 C 
BRANCH  15  16
ATOM     16  C   LIG A   1      -9.446   1.538 124.004  0.00  0.00    +0.125 C 
BRANCH  16  17
ATOM     17  C   LIG A   1     -10.710   0.996 123.389  0.00  0.00    +0.305 C 
ATOM     18  O   LIG A   1     -10.757   0.287 122.382  0.00  0.00    -0.251 OA
BRANCH  17  19
ATOM     19  O   LIG A   1     -11.837   1.405 124.016  0.00  0.00    -0.481 OA
ATOM     20  H   LIG A   1     -11.793   1.366 124.992  0.00  0.00    +0.295 HD
ENDBRANCH  17  19
ENDBRANCH  16  17
ENDBRANCH  15  16
ENDBRANCH   8  15
TORSDOF 5
ENDMDL
MODEL 8
REMARK VINA RESULT:      -6.2      8.105      9.796
REMARK  Name = NuBBE_1024
REMARK  8 active torsions:
REMARK  status: ('A' for Active; 'I' for Inactive)
REMARK    1  A    between atoms: C_1  and  C_2
REMARK    2  A    between atoms: C_2  and  C_3
REMARK    3  A    between atoms: C_7  and  O_8
REMARK    4  A    between atoms: O_8  and  C_9
REMARK    5  A    between atoms: C_10  and  C_11
REMARK    6  A    between atoms: C_11  and  C_12
REMARK    7  A    between atoms: C_12  and  C_13
REMARK    8  A    between atoms: C_13  and  O_14
REMARK                            x       y       z     vdW  Elec       q    Type
REMARK                         _______ _______ _______ _____ _____    ______ ____
ROOT
ATOM      1  C   LIG A   1      -9.390  -0.876 122.851  0.00  0.00    +0.060 C 
ATOM      2  C   LIG A   1      -8.307  -1.366 123.823  0.00  0.00    +0.123 C 
ATOM      3  C   LIG A   1      -7.171  -2.035 123.041  0.00  0.00    +0.060 C 
ATOM      4  O   LIG A   1      -8.940  -2.366 124.646  0.00  0.00    -0.481 OA
ATOM      5  C   LIG A   1      -8.606  -2.421 125.977  0.00  0.00    +0.132 A 
ATOM      6  C   LIG A   1      -7.939  -1.394 126.672  0.00  0.00    +0.058 A 
ATOM      7  C   LIG A   1      -7.612  -1.597 128.038  0.00  0.00    +0.134 A 
ATOM      8  C   LIG A   1      -8.002  -2.799 128.688  0.00  0.00    -0.004 A 
ATOM      9  C   LIG A   1      -8.734  -3.764 127.978  0.00  0.00    +0.011 A 
ATOM     10  C   LIG A   1      -9.026  -3.578 126.631  0.00  0.00    +0.047 A 
ATOM     11  C   LIG A   1      -7.704  -0.163 125.920  0.00  0.00    +0.015 C 
ATOM     12  C   LIG A   1      -7.814  -0.171 124.589  0.00  0.00    +0.020 C 
ENDROOT
BRANCH   7  13
ATOM     13  O   LIG A   1      -7.005  -0.684 128.870  0.00  0.00    -0.494 OA
ATOM     14  C   LIG A   1      -7.800   0.355 129.431  0.00  0.00    +0.277 C 
ENDBRANCH   7  13
BRANCH   8  15
ATOM     15  C   LIG A   1      -7.609  -3.120 130.121  0.00  0.00    +0.050 C 
BRANCH  15  16
ATOM     16  C   LIG A   1      -6.400  -4.049 130.257  0.00  0.00    +0.125 C 
BRANCH  16  17
ATOM     17  C   LIG A   1      -5.158  -3.254 130.567  0.00  0.00    +0.305 C 
ATOM     18  O   LIG A   1      -4.007  -3.694 130.513  0.00  0.00    -0.251 OA
BRANCH  17  19
ATOM     19  O   LIG A   1      -5.410  -1.991 130.979  0.00  0.00    -0.481 OA
ATOM     20  H   LIG A   1      -5.201  -1.823 131.920  0.00  0.00    +0.295 HD
ENDBRANCH  17  19
ENDBRANCH  16  17
ENDBRANCH  15  16
ENDBRANCH   8  15
TORSDOF 5
ENDMDL
MODEL 9
REMARK VINA RESULT:      -6.1      2.302      2.493
REMARK  Name = NuBBE_1024
REMARK  8 active torsions:
REMARK  status: ('A' for Active; 'I' for Inactive)
REMARK    1  A    between atoms: C_1  and  C_2
REMARK    2  A    between atoms: C_2  and  C_3
REMARK    3  A    between atoms: C_7  and  O_8
REMARK    4  A    between atoms: O_8  and  C_9
REMARK    5  A    between atoms: C_10  and  C_11
REMARK    6  A    between atoms: C_11  and  C_12
REMARK    7  A    between atoms: C_12  and  C_13
REMARK    8  A    between atoms: C_13  and  O_14
REMARK                            x       y       z     vdW  Elec       q    Type
REMARK                         _______ _______ _______ _____ _____    ______ ____
ROOT
ATOM      1  C   LIG A   1     -13.281   8.972 128.726  0.00  0.00    +0.060 C 
ATOM      2  C   LIG A   1     -12.261   7.905 128.303  0.00  0.00    +0.123 C 
ATOM      3  C   LIG A   1     -12.549   7.454 126.867  0.00  0.00    +0.060 C 
ATOM      4  O   LIG A   1     -12.477   6.783 129.182  0.00  0.00    -0.481 OA
ATOM      5  C   LIG A   1     -11.382   6.080 129.619  0.00  0.00    +0.132 A 
ATOM      6  C   LIG A   1     -10.055   6.541 129.537  0.00  0.00    +0.058 A 
ATOM      7  C   LIG A   1      -9.009   5.693 129.985  0.00  0.00    +0.134 A 
ATOM      8  C   LIG A   1      -9.318   4.425 130.548  0.00  0.00    -0.004 A 
ATOM      9  C   LIG A   1     -10.660   4.037 130.682  0.00  0.00    +0.011 A 
ATOM     10  C   LIG A   1     -11.682   4.855 130.214  0.00  0.00    +0.047 A 
ATOM     11  C   LIG A   1      -9.884   7.909 129.050  0.00  0.00    +0.015 C 
ATOM     12  C   LIG A   1     -10.893   8.516 128.420  0.00  0.00    +0.020 C 
ENDROOT
BRANCH   7  13
ATOM     13  O   LIG A   1      -7.669   6.007 130.016  0.00  0.00    -0.494 OA
ATOM     14  C   LIG A   1      -7.185   6.807 131.089  0.00  0.00    +0.277 C 
ENDBRANCH   7  13
BRANCH   8  15
ATOM     15  C   LIG A   1      -8.246   3.432 130.966  0.00  0.00    +0.050 C 
BRANCH  15  16
ATOM     16  C   LIG A   1      -8.272   2.107 130.200  0.00  0.00    +0.125 C 
BRANCH  16  17
ATOM     17  C   LIG A   1      -7.987   2.338 128.739  0.00  0.00    +0.305 C 
ATOM     18  O   LIG A   1      -6.954   2.844 128.293  0.00  0.00    -0.251 OA
BRANCH  17  19
ATOM     19  O   LIG A   1      -9.007   1.988 127.924  0.00  0.00    -0.481 OA
ATOM     20  H   LIG A   1      -9.838   2.480 128.082  0.00  0.00    +0.295 HD
ENDBRANCH  17  19
ENDBRANCH  16  17
ENDBRANCH  15  16
ENDBRANCH   8  15
TORSDOF 5
ENDMDL
