MODEL 1
REMARK VINA RESULT:      -7.2      0.000      0.000
REMARK  Name = NuBBE_28
REMARK  5 active torsions:
REMARK  status: ('A' for Active; 'I' for Inactive)
REMARK    1  A    between atoms: C_2  and  C_9
REMARK    2  A    between atoms: C_9  and  C_10
REMARK    3  A    between atoms: C_10  and  C_11
REMARK    4  A    between atoms: C_11  and  C_12
REMARK    5  A    between atoms: C_12  and  C_13
REMARK                            x       y       z     vdW  Elec       q    Type
REMARK                         _______ _______ _______ _____ _____    ______ ____
ROOT
ATOM      1  C   LIG A   1      -9.114   2.370 124.602  0.00  0.00    +0.005 C 
ENDROOT
BRANCH   1   2
ATOM      2  C   LIG A   1      -9.663   1.030 125.110  0.00  0.00    +0.010 C 
BRANCH   2   3
ATOM      3  C   LIG A   1      -9.086  -0.120 124.283  0.00  0.00    +0.096 C 
BRANCH   3   5
ATOM      4  O   LIG A   1      -8.569  -1.372 126.275  0.00  0.00    -0.276 OA
ATOM      5  C   LIG A   1      -8.311  -1.150 125.097  0.00  0.00    +0.216 C 
ATOM      6  N   LIG A   1      -7.317  -1.848 124.388  0.00  0.00    -0.301 N 
ATOM      7  C   LIG A   1      -6.552  -2.837 125.150  0.00  0.00    +0.107 C 
ATOM      8  C   LIG A   1      -5.796  -3.819 124.259  0.00  0.00    +0.019 C 
ATOM      9  C   LIG A   1      -4.933  -3.075 123.249  0.00  0.00    +0.003 C 
ATOM     10  C   LIG A   1      -5.816  -2.175 122.399  0.00  0.00    +0.019 C 
ATOM     11  C   LIG A   1      -6.633  -1.215 123.256  0.00  0.00    +0.107 C 
ENDBRANCH   3   5
ENDBRANCH   2   3
ENDBRANCH   1   2
BRANCH   1  12
ATOM     12  C   LIG A   1      -7.727   2.219 123.977  0.00  0.00    +0.035 C 
BRANCH  12  13
ATOM     13  C   LIG A   1      -7.642   2.892 122.626  0.00  0.00    -0.044 A 
ATOM     14  C   LIG A   1      -6.407   3.358 122.145  0.00  0.00    +0.053 A 
ATOM     15  C   LIG A   1      -6.381   3.977 120.912  0.00  0.00    +0.167 A 
ATOM     16  O   LIG A   1      -5.277   4.487 120.302  0.00  0.00    -0.453 OA
ATOM     17  C   LIG A   1      -5.860   5.034 119.100  0.00  0.00    +0.466 C 
ATOM     18  O   LIG A   1      -7.275   4.777 118.980  0.00  0.00    -0.453 OA
ATOM     19  C   LIG A   1      -7.518   4.142 120.158  0.00  0.00    +0.166 A 
ATOM     20  C   LIG A   1      -8.747   3.699 120.596  0.00  0.00    +0.050 A 
ATOM     21  C   LIG A   1      -8.806   3.073 121.845  0.00  0.00    +0.007 A 
ENDBRANCH  12  13
ENDBRANCH   1  12
TORSDOF 5
ENDMDL
MODEL 2
REMARK VINA RESULT:      -7.1      3.825      7.695
REMARK  Name = NuBBE_28
REMARK  5 active torsions:
REMARK  status: ('A' for Active; 'I' for Inactive)
REMARK    1  A    between atoms: C_2  and  C_9
REMARK    2  A    between atoms: C_9  and  C_10
REMARK    3  A    between atoms: C_10  and  C_11
REMARK    4  A    between atoms: C_11  and  C_12
REMARK    5  A    between atoms: C_12  and  C_13
REMARK                            x       y       z     vdW  Elec       q    Type
REMARK                         _______ _______ _______ _____ _____    ______ ____
ROOT
ATOM      1  C   LIG A   1      -8.569  -3.425 124.670  0.00  0.00    +0.005 C 
ENDROOT
BRANCH   1   2
ATOM      2  C   LIG A   1      -9.463  -3.132 123.458  0.00  0.00    +0.010 C 
BRANCH   2   3
ATOM      3  C   LIG A   1      -8.848  -2.019 122.609  0.00  0.00    +0.096 C 
BRANCH   3   5
ATOM      4  O   LIG A   1     -10.476  -0.253 122.414  0.00  0.00    -0.276 OA
ATOM      5  C   LIG A   1      -9.412  -0.630 122.893  0.00  0.00    +0.216 C 
ATOM      6  N   LIG A   1      -8.646   0.160 123.769  0.00  0.00    -0.301 N 
ATOM      7  C   LIG A   1      -9.162   1.501 124.049  0.00  0.00    +0.107 C 
ATOM      8  C   LIG A   1      -8.528   2.135 125.284  0.00  0.00    +0.019 C 
ATOM      9  C   LIG A   1      -7.010   2.111 125.183  0.00  0.00    +0.003 C 
ATOM     10  C   LIG A   1      -6.538   0.673 125.037  0.00  0.00    +0.019 C 
ATOM     11  C   LIG A   1      -7.193  -0.017 123.846  0.00  0.00    +0.107 C 
ENDBRANCH   3   5
ENDBRANCH   2   3
ENDBRANCH   1   2
BRANCH   1  12
ATOM     12  C   LIG A   1      -9.290  -3.153 125.990  0.00  0.00    +0.035 C 
BRANCH  12  13
ATOM     13  C   LIG A   1      -8.322  -3.021 127.144  0.00  0.00    -0.044 A 
ATOM     14  C   LIG A   1      -7.080  -2.393 126.957  0.00  0.00    +0.053 A 
ATOM     15  C   LIG A   1      -6.224  -2.307 128.036  0.00  0.00    +0.167 A 
ATOM     16  O   LIG A   1      -4.989  -1.738 128.028  0.00  0.00    -0.453 OA
ATOM     17  C   LIG A   1      -4.566  -1.988 129.384  0.00  0.00    +0.466 C 
ATOM     18  O   LIG A   1      -5.575  -2.631 130.191  0.00  0.00    -0.453 OA
ATOM     19  C   LIG A   1      -6.557  -2.815 129.269  0.00  0.00    +0.166 A 
ATOM     20  C   LIG A   1      -7.765  -3.439 129.491  0.00  0.00    +0.050 A 
ATOM     21  C   LIG A   1      -8.651  -3.546 128.415  0.00  0.00    +0.007 A 
ENDBRANCH  12  13
ENDBRANCH   1  12
TORSDOF 5
ENDMDL
MODEL 3
REMARK VINA RESULT:      -7.1      1.838      2.723
REMARK  Name = NuBBE_28
REMARK  5 active torsions:
REMARK  status: ('A' for Active; 'I' for Inactive)
REMARK    1  A    between atoms: C_2  and  C_9
REMARK    2  A    between atoms: C_9  and  C_10
REMARK    3  A    between atoms: C_10  and  C_11
REMARK    4  A    between atoms: C_11  and  C_12
REMARK    5  A    between atoms: C_12  and  C_13
REMARK                            x       y       z     vdW  Elec       q    Type
REMARK                         _______ _______ _______ _____ _____    ______ ____
ROOT
ATOM      1  C   LIG A   1      -7.525   3.080 124.850  0.00  0.00    +0.005 C 
ENDROOT
BRANCH   1   2
ATOM      2  C   LIG A   1      -8.024   1.807 125.544  0.00  0.00    +0.010 C 
BRANCH   2   3
ATOM      3  C   LIG A   1      -9.398   1.415 124.999  0.00  0.00    +0.096 C 
BRANCH   3   5
ATOM      4  O   LIG A   1      -9.682   0.536 122.774  0.00  0.00    -0.276 OA
ATOM      5  C   LIG A   1      -9.364   0.320 123.938  0.00  0.00    +0.216 C 
ATOM      6  N   LIG A   1      -8.904  -0.932 124.385  0.00  0.00    -0.301 N 
ATOM      7  C   LIG A   1      -8.871  -2.002 123.387  0.00  0.00    +0.107 C 
ATOM      8  C   LIG A   1      -8.004  -3.184 123.812  0.00  0.00    +0.019 C 
ATOM      9  C   LIG A   1      -8.420  -3.690 125.186  0.00  0.00    +0.003 C 
ATOM     10  C   LIG A   1      -8.293  -2.561 126.197  0.00  0.00    +0.019 C 
ATOM     11  C   LIG A   1      -9.099  -1.337 125.780  0.00  0.00    +0.107 C 
ENDBRANCH   3   5
ENDBRANCH   2   3
ENDBRANCH   1   2
BRANCH   1  12
ATOM     12  C   LIG A   1      -6.367   2.794 123.893  0.00  0.00    +0.035 C 
BRANCH  12  13
ATOM     13  C   LIG A   1      -6.659   3.282 122.493  0.00  0.00    -0.044 A 
ATOM     14  C   LIG A   1      -7.979   3.313 122.015  0.00  0.00    +0.053 A 
ATOM     15  C   LIG A   1      -8.195   3.755 120.726  0.00  0.00    +0.167 A 
ATOM     16  O   LIG A   1      -9.404   3.845 120.108  0.00  0.00    -0.453 OA
ATOM     17  C   LIG A   1      -9.006   4.307 118.800  0.00  0.00    +0.466 C 
ATOM     18  O   LIG A   1      -7.589   4.553 118.685  0.00  0.00    -0.453 OA
ATOM     19  C   LIG A   1      -7.162   4.160 119.915  0.00  0.00    +0.166 A 
ATOM     20  C   LIG A   1      -5.854   4.142 120.346  0.00  0.00    +0.050 A 
ATOM     21  C   LIG A   1      -5.603   3.695 121.647  0.00  0.00    +0.007 A 
ENDBRANCH  12  13
ENDBRANCH   1  12
TORSDOF 5
ENDMDL
MODEL 4
REMARK VINA RESULT:      -7.0      1.754      2.045
REMARK  Name = NuBBE_28
REMARK  5 active torsions:
REMARK  status: ('A' for Active; 'I' for Inactive)
REMARK    1  A    between atoms: C_2  and  C_9
REMARK    2  A    between atoms: C_9  and  C_10
REMARK    3  A    between atoms: C_10  and  C_11
REMARK    4  A    between atoms: C_11  and  C_12
REMARK    5  A    between atoms: C_12  and  C_13
REMARK                            x       y       z     vdW  Elec       q    Type
REMARK                         _______ _______ _______ _____ _____    ______ ____
ROOT
ATOM      1  C   LIG A   1      -7.085   1.899 124.275  0.00  0.00    +0.005 C 
ENDROOT
BRANCH   1   2
ATOM      2  C   LIG A   1      -8.231   2.365 125.183  0.00  0.00    +0.010 C 
BRANCH   2   3
ATOM      3  C   LIG A   1      -9.200   1.210 125.439  0.00  0.00    +0.096 C 
BRANCH   3   5
ATOM      4  O   LIG A   1      -8.222   0.395 127.484  0.00  0.00    -0.276 OA
ATOM      5  C   LIG A   1      -8.658   0.130 126.369  0.00  0.00    +0.216 C 
ATOM      6  N   LIG A   1      -8.734  -1.183 125.870  0.00  0.00    -0.301 N 
ATOM      7  C   LIG A   1      -8.211  -2.237 126.741  0.00  0.00    +0.107 C 
ATOM      8  C   LIG A   1      -8.681  -3.631 126.335  0.00  0.00    +0.019 C 
ATOM      9  C   LIG A   1      -8.380  -3.894 124.867  0.00  0.00    +0.003 C 
ATOM     10  C   LIG A   1      -9.074  -2.843 124.015  0.00  0.00    +0.019 C 
ATOM     11  C   LIG A   1      -8.675  -1.431 124.426  0.00  0.00    +0.107 C 
ENDBRANCH   3   5
ENDBRANCH   2   3
ENDBRANCH   1   2
BRANCH   1  12
ATOM     12  C   LIG A   1      -6.201   3.064 123.828  0.00  0.00    +0.035 C 
BRANCH  12  13
ATOM     13  C   LIG A   1      -6.532   3.515 122.424  0.00  0.00    -0.044 A 
ATOM     14  C   LIG A   1      -5.572   4.190 121.652  0.00  0.00    +0.053 A 
ATOM     15  C   LIG A   1      -5.923   4.594 120.381  0.00  0.00    +0.167 A 
ATOM     16  O   LIG A   1      -5.120   5.258 119.507  0.00  0.00    -0.453 OA
ATOM     17  C   LIG A   1      -6.024   5.448 118.398  0.00  0.00    +0.466 C 
ATOM     18  O   LIG A   1      -7.315   4.835 118.599  0.00  0.00    -0.453 OA
ATOM     19  C   LIG A   1      -7.173   4.352 119.863  0.00  0.00    +0.166 A 
ATOM     20  C   LIG A   1      -8.142   3.696 120.588  0.00  0.00    +0.050 A 
ATOM     21  C   LIG A   1      -7.817   3.278 121.883  0.00  0.00    +0.007 A 
ENDBRANCH  12  13
ENDBRANCH   1  12
TORSDOF 5
ENDMDL
MODEL 5
REMARK VINA RESULT:      -6.9      9.135     10.337
REMARK  Name = NuBBE_28
REMARK  5 active torsions:
REMARK  status: ('A' for Active; 'I' for Inactive)
REMARK    1  A    between atoms: C_2  and  C_9
REMARK    2  A    between atoms: C_9  and  C_10
REMARK    3  A    between atoms: C_10  and  C_11
REMARK    4  A    between atoms: C_11  and  C_12
REMARK    5  A    between atoms: C_12  and  C_13
REMARK                            x       y       z     vdW  Elec       q    Type
REMARK                         _______ _______ _______ _____ _____    ______ ____
ROOT
ATOM      1  C   LIG A   1      -8.180   5.190 132.193  0.00  0.00    +0.005 C 
ENDROOT
BRANCH   1   2
ATOM      2  C   LIG A   1      -6.946   5.714 132.938  0.00  0.00    +0.010 C 
BRANCH   2   3
ATOM      3  C   LIG A   1      -5.961   6.336 131.948  0.00  0.00    +0.096 C 
BRANCH   3   5
ATOM      4  O   LIG A   1      -4.597   4.355 132.102  0.00  0.00    -0.276 OA
ATOM      5  C   LIG A   1      -4.838   5.401 131.508  0.00  0.00    +0.216 C 
ATOM      6  N   LIG A   1      -4.137   5.806 130.358  0.00  0.00    -0.301 N 
ATOM      7  C   LIG A   1      -3.049   4.930 129.922  0.00  0.00    +0.107 C 
ATOM      8  C   LIG A   1      -2.611   5.197 128.485  0.00  0.00    +0.019 C 
ATOM      9  C   LIG A   1      -2.280   6.670 128.288  0.00  0.00    +0.003 C 
ATOM     10  C   LIG A   1      -3.502   7.510 128.624  0.00  0.00    +0.019 C 
ATOM     11  C   LIG A   1      -4.008   7.230 130.034  0.00  0.00    +0.107 C 
ENDBRANCH   3   5
ENDBRANCH   2   3
ENDBRANCH   1   2
BRANCH   1  12
ATOM     12  C   LIG A   1      -9.474   5.807 132.725  0.00  0.00    +0.035 C 
BRANCH  12  13
ATOM     13  C   LIG A   1     -10.296   6.432 131.622  0.00  0.00    -0.044 A 
ATOM     14  C   LIG A   1      -9.673   6.903 130.455  0.00  0.00    +0.053 A 
ATOM     15  C   LIG A   1     -10.462   7.477 129.480  0.00  0.00    +0.167 A 
ATOM     16  O   LIG A   1     -10.023   7.986 128.298  0.00  0.00    -0.453 OA
ATOM     17  C   LIG A   1     -11.258   8.478 127.738  0.00  0.00    +0.466 C 
ATOM     18  O   LIG A   1     -12.413   8.192 128.555  0.00  0.00    -0.453 OA
ATOM     19  C   LIG A   1     -11.824   7.594 129.626  0.00  0.00    +0.166 A 
ATOM     20  C   LIG A   1     -12.472   7.145 130.755  0.00  0.00    +0.050 A 
ATOM     21  C   LIG A   1     -11.697   6.563 131.763  0.00  0.00    +0.007 A 
ENDBRANCH  12  13
ENDBRANCH   1  12
TORSDOF 5
ENDMDL
MODEL 6
REMARK VINA RESULT:      -6.8      9.717     10.910
REMARK  Name = NuBBE_28
REMARK  5 active torsions:
REMARK  status: ('A' for Active; 'I' for Inactive)
REMARK    1  A    between atoms: C_2  and  C_9
REMARK    2  A    between atoms: C_9  and  C_10
REMARK    3  A    between atoms: C_10  and  C_11
REMARK    4  A    between atoms: C_11  and  C_12
REMARK    5  A    between atoms: C_12  and  C_13
REMARK                            x       y       z     vdW  Elec       q    Type
REMARK                         _______ _______ _______ _____ _____    ______ ____
ROOT
ATOM      1  C   LIG A   1      -8.431   5.718 131.292  0.00  0.00    +0.005 C 
ENDROOT
BRANCH   1   2
ATOM      2  C   LIG A   1      -7.423   6.870 131.195  0.00  0.00    +0.010 C 
BRANCH   2   3
ATOM      3  C   LIG A   1      -6.103   6.470 131.854  0.00  0.00    +0.096 C 
BRANCH   3   5
ATOM      4  O   LIG A   1      -4.930   7.530 130.036  0.00  0.00    -0.276 OA
ATOM      5  C   LIG A   1      -4.861   6.857 131.058  0.00  0.00    +0.216 C 
ATOM      6  N   LIG A   1      -3.640   6.420 131.605  0.00  0.00    -0.301 N 
ATOM      7  C   LIG A   1      -2.433   6.771 130.853  0.00  0.00    +0.107 C 
ATOM      8  C   LIG A   1      -1.158   6.633 131.680  0.00  0.00    +0.019 C 
ATOM      9  C   LIG A   1      -1.068   5.247 132.303  0.00  0.00    +0.003 C 
ATOM     10  C   LIG A   1      -2.285   5.009 133.182  0.00  0.00    +0.019 C 
ATOM     11  C   LIG A   1      -3.584   5.194 132.407  0.00  0.00    +0.107 C 
ENDBRANCH   3   5
ENDBRANCH   2   3
ENDBRANCH   1   2
BRANCH   1  12
ATOM     12  C   LIG A   1      -9.700   6.131 132.038  0.00  0.00    +0.035 C 
BRANCH  12  13
ATOM     13  C   LIG A   1     -10.821   6.486 131.089  0.00  0.00    -0.044 A 
ATOM     14  C   LIG A   1     -10.645   6.349 129.702  0.00  0.00    +0.053 A 
ATOM     15  C   LIG A   1     -11.692   6.697 128.875  0.00  0.00    +0.167 A 
ATOM     16  O   LIG A   1     -11.688   6.630 127.516  0.00  0.00    -0.453 OA
ATOM     17  C   LIG A   1     -12.997   7.156 127.215  0.00  0.00    +0.466 C 
ATOM     18  O   LIG A   1     -13.780   7.456 128.389  0.00  0.00    -0.453 OA
ATOM     19  C   LIG A   1     -12.884   7.167 129.371  0.00  0.00    +0.166 A 
ATOM     20  C   LIG A   1     -13.096   7.317 130.724  0.00  0.00    +0.050 A 
ATOM     21  C   LIG A   1     -12.050   6.977 131.588  0.00  0.00    +0.007 A 
ENDBRANCH  12  13
ENDBRANCH   1  12
TORSDOF 5
ENDMDL
MODEL 7
REMARK VINA RESULT:      -6.7      8.765     11.801
REMARK  Name = NuBBE_28
REMARK  5 active torsions:
REMARK  status: ('A' for Active; 'I' for Inactive)
REMARK    1  A    between atoms: C_2  and  C_9
REMARK    2  A    between atoms: C_9  and  C_10
REMARK    3  A    between atoms: C_10  and  C_11
REMARK    4  A    between atoms: C_11  and  C_12
REMARK    5  A    between atoms: C_12  and  C_13
REMARK                            x       y       z     vdW  Elec       q    Type
REMARK                         _______ _______ _______ _____ _____    ______ ____
ROOT
ATOM      1  C   LIG A   1      -8.232   4.907 133.371  0.00  0.00    +0.005 C 
ENDROOT
BRANCH   1   2
ATOM      2  C   LIG A   1      -9.021   6.160 132.969  0.00  0.00    +0.010 C 
BRANCH   2   3
ATOM      3  C   LIG A   1      -9.786   5.904 131.671  0.00  0.00    +0.096 C 
BRANCH   3   5
ATOM      4  O   LIG A   1      -8.367   7.339 130.354  0.00  0.00    -0.276 OA
ATOM      5  C   LIG A   1      -9.497   6.911 130.563  0.00  0.00    +0.216 C 
ATOM      6  N   LIG A   1     -10.609   7.276 129.781  0.00  0.00    -0.301 N 
ATOM      7  C   LIG A   1     -10.359   8.250 128.716  0.00  0.00    +0.107 C 
ATOM      8  C   LIG A   1     -11.475   8.292 127.676  0.00  0.00    +0.019 C 
ATOM      9  C   LIG A   1     -12.826   8.502 128.345  0.00  0.00    +0.003 C 
ATOM     10  C   LIG A   1     -13.079   7.375 129.334  0.00  0.00    +0.019 C 
ATOM     11  C   LIG A   1     -11.956   7.261 130.358  0.00  0.00    +0.107 C 
ENDBRANCH   3   5
ENDBRANCH   2   3
ENDBRANCH   1   2
BRANCH   1  12
ATOM     12  C   LIG A   1      -9.155   3.758 133.781  0.00  0.00    +0.035 C 
BRANCH  12  13
ATOM     13  C   LIG A   1      -8.769   2.460 133.110  0.00  0.00    -0.044 A 
ATOM     14  C   LIG A   1      -7.481   1.929 133.284  0.00  0.00    +0.053 A 
ATOM     15  C   LIG A   1      -7.171   0.748 132.642  0.00  0.00    +0.167 A 
ATOM     16  O   LIG A   1      -5.975   0.102 132.699  0.00  0.00    -0.453 OA
ATOM     17  C   LIG A   1      -6.225  -1.010 131.815  0.00  0.00    +0.466 C 
ATOM     18  O   LIG A   1      -7.576  -1.049 131.308  0.00  0.00    -0.453 OA
ATOM     19  C   LIG A   1      -8.082   0.091 131.850  0.00  0.00    +0.166 A 
ATOM     20  C   LIG A   1      -9.354   0.580 131.654  0.00  0.00    +0.050 A 
ATOM     21  C   LIG A   1      -9.697   1.779 132.288  0.00  0.00    +0.007 A 
ENDBRANCH  12  13
ENDBRANCH   1  12
TORSDOF 5
ENDMDL
MODEL 8
REMARK VINA RESULT:      -6.7      1.925      3.058
REMARK  Name = NuBBE_28
REMARK  5 active torsions:
REMARK  status: ('A' for Active; 'I' for Inactive)
REMARK    1  A    between atoms: C_2  and  C_9
REMARK    2  A    between atoms: C_9  and  C_10
REMARK    3  A    between atoms: C_10  and  C_11
REMARK    4  A    between atoms: C_11  and  C_12
REMARK    5  A    between atoms: C_12  and  C_13
REMARK                            x       y       z     vdW  Elec       q    Type
REMARK                         _______ _______ _______ _____ _____    ______ ____
ROOT
ATOM      1  C   LIG A   1      -8.178   0.954 123.282  0.00  0.00    +0.005 C 
ENDROOT
BRANCH   1   2
ATOM      2  C   LIG A   1      -6.795   0.444 123.706  0.00  0.00    +0.010 C 
BRANCH   2   3
ATOM      3  C   LIG A   1      -6.883  -1.025 124.123  0.00  0.00    +0.096 C 
BRANCH   3   5
ATOM      4  O   LIG A   1      -5.281  -0.906 125.919  0.00  0.00    -0.276 OA
ATOM      5  C   LIG A   1      -6.373  -1.308 125.532  0.00  0.00    +0.216 C 
ATOM      6  N   LIG A   1      -7.260  -2.023 126.358  0.00  0.00    -0.301 N 
ATOM      7  C   LIG A   1      -6.790  -2.316 127.712  0.00  0.00    +0.107 C 
ATOM      8  C   LIG A   1      -7.917  -2.717 128.659  0.00  0.00    +0.019 C 
ATOM      9  C   LIG A   1      -8.732  -3.861 128.071  0.00  0.00    +0.003 C 
ATOM     10  C   LIG A   1      -9.306  -3.433 126.730  0.00  0.00    +0.019 C 
ATOM     11  C   LIG A   1      -8.216  -2.969 125.772  0.00  0.00    +0.107 C 
ENDBRANCH   3   5
ENDBRANCH   2   3
ENDBRANCH   1   2
BRANCH   1  12
ATOM     12  C   LIG A   1      -8.298   2.471 123.429  0.00  0.00    +0.035 C 
BRANCH  12  13
ATOM     13  C   LIG A   1      -7.465   3.204 122.402  0.00  0.00    -0.044 A 
ATOM     14  C   LIG A   1      -8.000   3.500 121.138  0.00  0.00    +0.053 A 
ATOM     15  C   LIG A   1      -7.198   4.159 120.229  0.00  0.00    +0.167 A 
ATOM     16  O   LIG A   1      -7.556   4.518 118.966  0.00  0.00    -0.453 OA
ATOM     17  C   LIG A   1      -6.327   5.110 118.495  0.00  0.00    +0.466 C 
ATOM     18  O   LIG A   1      -5.292   5.160 119.498  0.00  0.00    -0.453 OA
ATOM     19  C   LIG A   1      -5.909   4.526 120.531  0.00  0.00    +0.166 A 
ATOM     20  C   LIG A   1      -5.348   4.253 121.759  0.00  0.00    +0.050 A 
ATOM     21  C   LIG A   1      -6.135   3.581 122.700  0.00  0.00    +0.007 A 
ENDBRANCH  12  13
ENDBRANCH   1  12
TORSDOF 5
ENDMDL
MODEL 9
REMARK VINA RESULT:      -6.7      8.027     10.454
REMARK  Name = NuBBE_28
REMARK  5 active torsions:
REMARK  status: ('A' for Active; 'I' for Inactive)
REMARK    1  A    between atoms: C_2  and  C_9
REMARK    2  A    between atoms: C_9  and  C_10
REMARK    3  A    between atoms: C_10  and  C_11
REMARK    4  A    between atoms: C_11  and  C_12
REMARK    5  A    between atoms: C_12  and  C_13
REMARK                            x       y       z     vdW  Elec       q    Type
REMARK                         _______ _______ _______ _____ _____    ______ ____
ROOT
ATOM      1  C   LIG A   1      -6.313   6.197 131.726  0.00  0.00    +0.005 C 
ENDROOT
BRANCH   1   2
ATOM      2  C   LIG A   1      -7.479   6.968 131.094  0.00  0.00    +0.010 C 
BRANCH   2   3
ATOM      3  C   LIG A   1      -8.634   6.015 130.790  0.00  0.00    +0.096 C 
BRANCH   3   5
ATOM      4  O   LIG A   1     -10.497   6.441 132.258  0.00  0.00    -0.276 OA
ATOM      5  C   LIG A   1     -10.012   6.567 131.138  0.00  0.00    +0.216 C 
ATOM      6  N   LIG A   1     -10.660   7.262 130.100  0.00  0.00    -0.301 N 
ATOM      7  C   LIG A   1     -11.988   7.794 130.407  0.00  0.00    +0.107 C 
ATOM      8  C   LIG A   1     -12.448   8.854 129.411  0.00  0.00    +0.019 C 
ATOM      9  C   LIG A   1     -12.353   8.330 127.985  0.00  0.00    +0.003 C 
ATOM     10  C   LIG A   1     -10.915   7.930 127.691  0.00  0.00    +0.019 C 
ATOM     11  C   LIG A   1     -10.397   6.913 128.700  0.00  0.00    +0.107 C 
ENDBRANCH   3   5
ENDBRANCH   2   3
ENDBRANCH   1   2
BRANCH   1  12
ATOM     12  C   LIG A   1      -4.969   6.881 131.469  0.00  0.00    +0.035 C 
BRANCH  12  13
ATOM     13  C   LIG A   1      -4.196   6.206 130.361  0.00  0.00    -0.044 A 
ATOM     14  C   LIG A   1      -4.599   4.950 129.879  0.00  0.00    +0.053 A 
ATOM     15  C   LIG A   1      -3.854   4.366 128.875  0.00  0.00    +0.167 A 
ATOM     16  O   LIG A   1      -4.102   3.159 128.300  0.00  0.00    -0.453 OA
ATOM     17  C   LIG A   1      -2.994   3.064 127.381  0.00  0.00    +0.466 C 
ATOM     18  O   LIG A   1      -2.154   4.237 127.371  0.00  0.00    -0.453 OA
ATOM     19  C   LIG A   1      -2.745   4.980 128.344  0.00  0.00    +0.166 A 
ATOM     20  C   LIG A   1      -2.317   6.211 128.790  0.00  0.00    +0.050 A 
ATOM     21  C   LIG A   1      -3.049   6.825 129.812  0.00  0.00    +0.007 A 
ENDBRANCH  12  13
ENDBRANCH   1  12
TORSDOF 5
ENDMDL
