MODEL 1
REMARK VINA RESULT:      -8.4      0.000      0.000
REMARK  Name = NuBBE_1184
REMARK  14 active torsions:
REMARK  status: ('A' for Active; 'I' for Inactive)
REMARK    1  A    between atoms: O_1  and  C_2
REMARK    2  A    between atoms: C_3  and  O_42
REMARK    3  A    between atoms: C_17  and  O_18
REMARK    4  A    between atoms: O_18  and  C_19
REMARK    5  A    between atoms: C_22  and  C_33
REMARK    6  A    between atoms: C_24  and  O_32
REMARK    7  A    between atoms: C_26  and  O_31
REMARK    8  A    between atoms: C_28  and  O_30
REMARK    9  A    between atoms: C_33  and  O_34
REMARK   10  A    between atoms: O_34  and  C_35
REMARK   11  A    between atoms: C_35  and  C_36
REMARK   12  A    between atoms: C_38  and  O_39
REMARK   13  A    between atoms: O_39  and  C_40
REMARK   14  A    between atoms: O_42  and  C_43
REMARK                            x       y       z     vdW  Elec       q    Type
REMARK                         _______ _______ _______ _____ _____    ______ ____
ROOT
ATOM      1  C   LIG A   1      -6.881  -0.924 124.161  0.00  0.00    +0.202 A 
ATOM      2  C   LIG A   1      -6.262  -2.018 124.774  0.00  0.00    +0.166 A 
ATOM      3  C   LIG A   1      -5.809  -1.899 126.093  0.00  0.00    +0.065 A 
ATOM      4  C   LIG A   1      -6.009  -0.702 126.802  0.00  0.00    +0.074 A 
ATOM      5  C   LIG A   1      -6.654   0.368 126.193  0.00  0.00    +0.047 A 
ATOM      6  C   LIG A   1      -7.068   0.255 124.870  0.00  0.00    +0.185 A 
ATOM      7  O   LIG A   1      -7.704   1.336 124.226  0.00  0.00    -0.418 OA
ATOM      8  C   LIG A   1      -7.978   2.533 124.869  0.00  0.00    +0.345 A 
ATOM      9  O   LIG A   1      -8.536   3.469 124.306  0.00  0.00    -0.244 OA
ATOM     10  C   LIG A   1      -5.546  -0.570 128.208  0.00  0.00    +0.345 A 
ATOM     11  O   LIG A   1      -5.925   0.596 128.885  0.00  0.00    -0.418 OA
ATOM     12  C   LIG A   1      -6.624   1.676 128.272  0.00  0.00    +0.186 A 
ATOM     13  C   LIG A   1      -6.940   1.567 126.920  0.00  0.00    +0.047 A 
ATOM     14  C   LIG A   1      -7.578   2.620 126.291  0.00  0.00    +0.074 A 
ATOM     15  C   LIG A   1      -7.886   3.771 127.007  0.00  0.00    +0.065 A 
ATOM     16  C   LIG A   1      -7.646   3.864 128.383  0.00  0.00    +0.170 A 
ATOM     17  C   LIG A   1      -6.981   2.806 129.039  0.00  0.00    +0.205 A 
ATOM     18  O   LIG A   1      -4.877  -1.449 128.734  0.00  0.00    -0.244 OA
ENDROOT
BRANCH   1  19
ATOM     19  O   LIG A   1      -7.320  -1.012 122.870  0.00  0.00    -0.501 OA
ATOM     20  H   LIG A   1      -7.329  -1.964 122.653  0.00  0.00    +0.292 HD
ENDBRANCH   1  19
BRANCH  17  21
ATOM     21  O   LIG A   1      -6.650   2.722 130.367  0.00  0.00    -0.488 OA
ATOM     22  C   LIG A   1      -5.379   3.205 130.785  0.00  0.00    +0.277 C 
ENDBRANCH  17  21
BRANCH   2  23
ATOM     23  O   LIG A   1      -6.165  -3.135 123.985  0.00  0.00    -0.491 OA
ATOM     24  C   LIG A   1      -4.852  -3.521 123.595  0.00  0.00    +0.277 C 
ENDBRANCH   2  23
BRANCH  16  25
ATOM     25  O   LIG A   1      -8.017   4.985 129.078  0.00  0.00    -0.457 OA
BRANCH  25  26
ATOM     26  C   LIG A   1      -9.194   4.930 129.907  0.00  0.00    +0.339 C 
ATOM     27  O   LIG A   1     -10.227   5.652 129.217  0.00  0.00    -0.330 OA
ATOM     28  C   LIG A   1     -11.460   5.718 129.949  0.00  0.00    +0.191 C 
ATOM     29  C   LIG A   1     -11.224   6.513 131.242  0.00  0.00    +0.178 C 
ATOM     30  C   LIG A   1     -10.211   5.727 132.075  0.00  0.00    +0.180 C 
ATOM     31  C   LIG A   1      -8.906   5.540 131.302  0.00  0.00    +0.214 C 
BRANCH  31  32
ATOM     32  O   LIG A   1      -8.040   4.700 132.083  0.00  0.00    -0.383 OA
ATOM     33  H   LIG A   1      -8.392   3.794 131.973  0.00  0.00    +0.210 HD
ENDBRANCH  31  32
BRANCH  30  34
ATOM     34  O   LIG A   1      -9.946   6.422 133.302  0.00  0.00    -0.386 OA
ATOM     35  H   LIG A   1     -10.767   6.927 133.481  0.00  0.00    +0.210 HD
ENDBRANCH  30  34
BRANCH  29  36
ATOM     36  O   LIG A   1     -12.390   6.702 132.047  0.00  0.00    -0.386 OA
ATOM     37  H   LIG A   1     -12.388   7.635 132.332  0.00  0.00    +0.210 HD
ENDBRANCH  29  36
BRANCH  28  38
ATOM     38  C   LIG A   1     -12.512   6.357 129.031  0.00  0.00    +0.266 C 
BRANCH  38  39
ATOM     39  O   LIG A   1     -12.968   7.649 129.459  0.00  0.00    -0.462 OA
BRANCH  39  40
ATOM     40  C   LIG A   1     -12.562   8.703 128.689  0.00  0.00    +0.304 C 
ATOM     41  C   LIG A   1     -13.512   9.849 128.847  0.00  0.00    +0.136 C 
ATOM     42  O   LIG A   1     -11.605   8.711 127.945  0.00  0.00    -0.251 OA
ENDBRANCH  39  40
ENDBRANCH  38  39
ENDBRANCH  28  38
ENDBRANCH  25  26
ENDBRANCH  16  25
TORSDOF 11
ENDMDL
MODEL 2
REMARK VINA RESULT:      -8.3      2.389      3.914
REMARK  Name = NuBBE_1184
REMARK  14 active torsions:
REMARK  status: ('A' for Active; 'I' for Inactive)
REMARK    1  A    between atoms: O_1  and  C_2
REMARK    2  A    between atoms: C_3  and  O_42
REMARK    3  A    between atoms: C_17  and  O_18
REMARK    4  A    between atoms: O_18  and  C_19
REMARK    5  A    between atoms: C_22  and  C_33
REMARK    6  A    between atoms: C_24  and  O_32
REMARK    7  A    between atoms: C_26  and  O_31
REMARK    8  A    between atoms: C_28  and  O_30
REMARK    9  A    between atoms: C_33  and  O_34
REMARK   10  A    between atoms: O_34  and  C_35
REMARK   11  A    between atoms: C_35  and  C_36
REMARK   12  A    between atoms: C_38  and  O_39
REMARK   13  A    between atoms: O_39  and  C_40
REMARK   14  A    between atoms: O_42  and  C_43
REMARK                            x       y       z     vdW  Elec       q    Type
REMARK                         _______ _______ _______ _____ _____    ______ ____
ROOT
ATOM      1  C   LIG A   1      -5.709   4.021 123.062  0.00  0.00    +0.202 A 
ATOM      2  C   LIG A   1      -6.384   3.097 122.258  0.00  0.00    +0.166 A 
ATOM      3  C   LIG A   1      -7.055   2.027 122.860  0.00  0.00    +0.065 A 
ATOM      4  C   LIG A   1      -7.078   1.906 124.260  0.00  0.00    +0.074 A 
ATOM      5  C   LIG A   1      -6.429   2.848 125.050  0.00  0.00    +0.047 A 
ATOM      6  C   LIG A   1      -5.734   3.888 124.443  0.00  0.00    +0.185 A 
ATOM      7  O   LIG A   1      -5.051   4.843 125.226  0.00  0.00    -0.418 OA
ATOM      8  C   LIG A   1      -5.061   4.820 126.611  0.00  0.00    +0.345 A 
ATOM      9  O   LIG A   1      -4.469   5.655 127.287  0.00  0.00    -0.244 OA
ATOM     10  C   LIG A   1      -7.799   0.782 124.911  0.00  0.00    +0.345 A 
ATOM     11  O   LIG A   1      -7.902   0.828 126.307  0.00  0.00    -0.418 OA
ATOM     12  C   LIG A   1      -7.273   1.818 127.115  0.00  0.00    +0.186 A 
ATOM     13  C   LIG A   1      -6.506   2.791 126.479  0.00  0.00    +0.047 A 
ATOM     14  C   LIG A   1      -5.849   3.737 127.243  0.00  0.00    +0.074 A 
ATOM     15  C   LIG A   1      -5.951   3.700 128.629  0.00  0.00    +0.065 A 
ATOM     16  C   LIG A   1      -6.779   2.779 129.279  0.00  0.00    +0.170 A 
ATOM     17  C   LIG A   1      -7.446   1.795 128.515  0.00  0.00    +0.205 A 
ATOM     18  O   LIG A   1      -8.283  -0.124 124.245  0.00  0.00    -0.244 OA
ENDROOT
BRANCH   1  19
ATOM     19  O   LIG A   1      -5.036   5.068 122.496  0.00  0.00    -0.501 OA
ATOM     20  H   LIG A   1      -4.174   5.111 122.950  0.00  0.00    +0.292 HD
ENDBRANCH   1  19
BRANCH  17  21
ATOM     21  O   LIG A   1      -8.282   0.809 128.971  0.00  0.00    -0.488 OA
ATOM     22  C   LIG A   1      -7.713  -0.332 129.599  0.00  0.00    +0.277 C 
ENDBRANCH  17  21
BRANCH   2  23
ATOM     23  O   LIG A   1      -6.316   3.353 120.913  0.00  0.00    -0.491 OA
ATOM     24  C   LIG A   1      -7.471   3.934 120.321  0.00  0.00    +0.277 C 
ENDBRANCH   2  23
BRANCH  16  25
ATOM     25  O   LIG A   1      -6.912   2.805 130.642  0.00  0.00    -0.457 OA
BRANCH  25  26
ATOM     26  C   LIG A   1      -8.078   3.431 131.214  0.00  0.00    +0.339 C 
ATOM     27  O   LIG A   1      -8.122   4.775 130.707  0.00  0.00    -0.330 OA
ATOM     28  C   LIG A   1      -9.218   5.541 131.227  0.00  0.00    +0.191 C 
ATOM     29  C   LIG A   1      -9.034   5.701 132.743  0.00  0.00    +0.178 C 
ATOM     30  C   LIG A   1      -9.092   4.301 133.354  0.00  0.00    +0.180 C 
ATOM     31  C   LIG A   1      -8.004   3.408 132.761  0.00  0.00    +0.214 C 
BRANCH  31  32
ATOM     32  O   LIG A   1      -8.182   2.080 133.283  0.00  0.00    -0.383 OA
ATOM     33  H   LIG A   1      -8.947   1.712 132.797  0.00  0.00    +0.210 HD
ENDBRANCH  31  32
BRANCH  30  34
ATOM     34  O   LIG A   1      -8.924   4.383 134.777  0.00  0.00    -0.386 OA
ATOM     35  H   LIG A   1      -9.834   4.482 135.127  0.00  0.00    +0.210 HD
ENDBRANCH  30  34
BRANCH  29  36
ATOM     36  O   LIG A   1     -10.034   6.495 133.386  0.00  0.00    -0.386 OA
ATOM     37  H   LIG A   1     -10.583   6.883 132.679  0.00  0.00    +0.210 HD
ENDBRANCH  29  36
BRANCH  28  38
ATOM     38  C   LIG A   1      -9.246   6.881 130.477  0.00  0.00    +0.266 C 
BRANCH  38  39
ATOM     39  O   LIG A   1     -10.475   7.149 129.785  0.00  0.00    -0.462 OA
BRANCH  39  40
ATOM     40  C   LIG A   1     -10.383   7.213 128.423  0.00  0.00    +0.304 C 
ATOM     41  C   LIG A   1     -11.151   8.392 127.912  0.00  0.00    +0.136 C 
ATOM     42  O   LIG A   1      -9.808   6.417 127.713  0.00  0.00    -0.251 OA
ENDBRANCH  39  40
ENDBRANCH  38  39
ENDBRANCH  28  38
ENDBRANCH  25  26
ENDBRANCH  16  25
TORSDOF 11
ENDMDL
MODEL 3
REMARK VINA RESULT:      -7.9      1.306      2.877
REMARK  Name = NuBBE_1184
REMARK  14 active torsions:
REMARK  status: ('A' for Active; 'I' for Inactive)
REMARK    1  A    between atoms: O_1  and  C_2
REMARK    2  A    between atoms: C_3  and  O_42
REMARK    3  A    between atoms: C_17  and  O_18
REMARK    4  A    between atoms: O_18  and  C_19
REMARK    5  A    between atoms: C_22  and  C_33
REMARK    6  A    between atoms: C_24  and  O_32
REMARK    7  A    between atoms: C_26  and  O_31
REMARK    8  A    between atoms: C_28  and  O_30
REMARK    9  A    between atoms: C_33  and  O_34
REMARK   10  A    between atoms: O_34  and  C_35
REMARK   11  A    between atoms: C_35  and  C_36
REMARK   12  A    between atoms: C_38  and  O_39
REMARK   13  A    between atoms: O_39  and  C_40
REMARK   14  A    between atoms: O_42  and  C_43
REMARK                            x       y       z     vdW  Elec       q    Type
REMARK                         _______ _______ _______ _____ _____    ______ ____
ROOT
ATOM      1  C   LIG A   1      -6.857  -1.969 125.518  0.00  0.00    +0.202 A 
ATOM      2  C   LIG A   1      -6.526  -1.854 124.164  0.00  0.00    +0.166 A 
ATOM      3  C   LIG A   1      -6.606  -0.602 123.544  0.00  0.00    +0.065 A 
ATOM      4  C   LIG A   1      -6.980   0.531 124.287  0.00  0.00    +0.074 A 
ATOM      5  C   LIG A   1      -7.276   0.410 125.639  0.00  0.00    +0.047 A 
ATOM      6  C   LIG A   1      -7.231  -0.844 126.240  0.00  0.00    +0.185 A 
ATOM      7  O   LIG A   1      -7.549  -0.993 127.606  0.00  0.00    -0.418 OA
ATOM      8  C   LIG A   1      -7.884   0.080 128.417  0.00  0.00    +0.345 A 
ATOM      9  O   LIG A   1      -8.155  -0.054 129.606  0.00  0.00    -0.244 OA
ATOM     10  C   LIG A   1      -7.053   1.868 123.642  0.00  0.00    +0.345 A 
ATOM     11  O   LIG A   1      -7.280   2.960 124.488  0.00  0.00    -0.418 OA
ATOM     12  C   LIG A   1      -7.541   2.840 125.884  0.00  0.00    +0.186 A 
ATOM     13  C   LIG A   1      -7.581   1.561 126.434  0.00  0.00    +0.047 A 
ATOM     14  C   LIG A   1      -7.877   1.414 127.776  0.00  0.00    +0.074 A 
ATOM     15  C   LIG A   1      -8.140   2.536 128.554  0.00  0.00    +0.065 A 
ATOM     16  C   LIG A   1      -8.027   3.830 128.036  0.00  0.00    +0.170 A 
ATOM     17  C   LIG A   1      -7.741   3.999 126.663  0.00  0.00    +0.205 A 
ATOM     18  O   LIG A   1      -6.909   1.991 122.433  0.00  0.00    -0.244 OA
ENDROOT
BRANCH   1  19
ATOM     19  O   LIG A   1      -6.799  -3.184 126.143  0.00  0.00    -0.501 OA
ATOM     20  H   LIG A   1      -6.601  -3.836 125.445  0.00  0.00    +0.292 HD
ENDBRANCH   1  19
BRANCH  17  21
ATOM     21  O   LIG A   1      -7.605   5.179 125.977  0.00  0.00    -0.488 OA
ATOM     22  C   LIG A   1      -6.334   5.508 125.432  0.00  0.00    +0.277 C 
ENDBRANCH  17  21
BRANCH   2  23
ATOM     23  O   LIG A   1      -6.142  -3.026 123.569  0.00  0.00    -0.491 OA
ATOM     24  C   LIG A   1      -4.743  -3.214 123.388  0.00  0.00    +0.277 C 
ENDBRANCH   2  23
BRANCH  16  25
ATOM     25  O   LIG A   1      -8.229   4.920 128.840  0.00  0.00    -0.457 OA
BRANCH  25  26
ATOM     26  C   LIG A   1      -9.347   4.913 129.751  0.00  0.00    +0.339 C 
ATOM     27  O   LIG A   1     -10.402   5.661 129.124  0.00  0.00    -0.330 OA
ATOM     28  C   LIG A   1     -11.578   5.775 129.939  0.00  0.00    +0.191 C 
ATOM     29  C   LIG A   1     -11.228   6.576 131.201  0.00  0.00    +0.178 C 
ATOM     30  C   LIG A   1     -10.184   5.767 131.973  0.00  0.00    +0.180 C 
ATOM     31  C   LIG A   1      -8.943   5.529 131.113  0.00  0.00    +0.214 C 
BRANCH  31  32
ATOM     32  O   LIG A   1      -8.052   4.669 131.844  0.00  0.00    -0.383 OA
ATOM     33  H   LIG A   1      -8.548   3.837 131.977  0.00  0.00    +0.210 HD
ENDBRANCH  31  32
BRANCH  30  34
ATOM     34  O   LIG A   1      -9.812   6.467 133.169  0.00  0.00    -0.386 OA
ATOM     35  H   LIG A   1      -9.847   7.414 132.921  0.00  0.00    +0.210 HD
ENDBRANCH  30  34
BRANCH  29  36
ATOM     36  O   LIG A   1     -12.328   6.812 132.083  0.00  0.00    -0.386 OA
ATOM     37  H   LIG A   1     -12.297   7.756 132.326  0.00  0.00    +0.210 HD
ENDBRANCH  29  36
BRANCH  28  38
ATOM     38  C   LIG A   1     -12.671   6.437 129.087  0.00  0.00    +0.266 C 
BRANCH  38  39
ATOM     39  O   LIG A   1     -13.072   7.739 129.544  0.00  0.00    -0.462 OA
BRANCH  39  40
ATOM     40  C   LIG A   1     -12.591   8.792 128.818  0.00  0.00    +0.304 C 
ATOM     41  C   LIG A   1     -13.287  10.053 129.222  0.00  0.00    +0.136 C 
ATOM     42  O   LIG A   1     -11.757   8.727 127.941  0.00  0.00    -0.251 OA
ENDBRANCH  39  40
ENDBRANCH  38  39
ENDBRANCH  28  38
ENDBRANCH  25  26
ENDBRANCH  16  25
TORSDOF 11
ENDMDL
MODEL 4
REMARK VINA RESULT:      -7.8      2.975      8.994
REMARK  Name = NuBBE_1184
REMARK  14 active torsions:
REMARK  status: ('A' for Active; 'I' for Inactive)
REMARK    1  A    between atoms: O_1  and  C_2
REMARK    2  A    between atoms: C_3  and  O_42
REMARK    3  A    between atoms: C_17  and  O_18
REMARK    4  A    between atoms: O_18  and  C_19
REMARK    5  A    between atoms: C_22  and  C_33
REMARK    6  A    between atoms: C_24  and  O_32
REMARK    7  A    between atoms: C_26  and  O_31
REMARK    8  A    between atoms: C_28  and  O_30
REMARK    9  A    between atoms: C_33  and  O_34
REMARK   10  A    between atoms: O_34  and  C_35
REMARK   11  A    between atoms: C_35  and  C_36
REMARK   12  A    between atoms: C_38  and  O_39
REMARK   13  A    between atoms: O_39  and  C_40
REMARK   14  A    between atoms: O_42  and  C_43
REMARK                            x       y       z     vdW  Elec       q    Type
REMARK                         _______ _______ _______ _____ _____    ______ ____
ROOT
ATOM      1  C   LIG A   1     -12.300   8.050 130.363  0.00  0.00    +0.202 A 
ATOM      2  C   LIG A   1     -12.766   8.751 129.247  0.00  0.00    +0.166 A 
ATOM      3  C   LIG A   1     -12.167   8.531 128.001  0.00  0.00    +0.065 A 
ATOM      4  C   LIG A   1     -11.132   7.588 127.872  0.00  0.00    +0.074 A 
ATOM      5  C   LIG A   1     -10.699   6.875 128.984  0.00  0.00    +0.047 A 
ATOM      6  C   LIG A   1     -11.274   7.126 130.225  0.00  0.00    +0.185 A 
ATOM      7  O   LIG A   1     -10.834   6.429 131.370  0.00  0.00    -0.418 OA
ATOM      8  C   LIG A   1      -9.851   5.453 131.319  0.00  0.00    +0.345 A 
ATOM      9  O   LIG A   1      -9.475   4.846 132.317  0.00  0.00    -0.244 OA
ATOM     10  C   LIG A   1     -10.499   7.336 126.552  0.00  0.00    +0.345 A 
ATOM     11  O   LIG A   1      -9.590   6.273 126.486  0.00  0.00    -0.418 OA
ATOM     12  C   LIG A   1      -9.177   5.513 127.619  0.00  0.00    +0.186 A 
ATOM     13  C   LIG A   1      -9.703   5.853 128.862  0.00  0.00    +0.047 A 
ATOM     14  C   LIG A   1      -9.286   5.160 129.983  0.00  0.00    +0.074 A 
ATOM     15  C   LIG A   1      -8.343   4.146 129.859  0.00  0.00    +0.065 A 
ATOM     16  C   LIG A   1      -7.865   3.739 128.609  0.00  0.00    +0.170 A 
ATOM     17  C   LIG A   1      -8.268   4.446 127.455  0.00  0.00    +0.205 A 
ATOM     18  O   LIG A   1     -10.778   8.025 125.580  0.00  0.00    -0.244 OA
ENDROOT
BRANCH   1  19
ATOM     19  O   LIG A   1     -12.861   8.257 131.593  0.00  0.00    -0.501 OA
ATOM     20  H   LIG A   1     -13.065   9.211 131.638  0.00  0.00    +0.292 HD
ENDBRANCH   1  19
BRANCH  17  21
ATOM     21  O   LIG A   1      -7.899   4.205 126.156  0.00  0.00    -0.488 OA
ATOM     22  C   LIG A   1      -6.722   4.827 125.655  0.00  0.00    +0.277 C 
ENDBRANCH  17  21
BRANCH   2  23
ATOM     23  O   LIG A   1     -13.803   9.610 129.503  0.00  0.00    -0.491 OA
ATOM     24  C   LIG A   1     -13.475  10.992 129.576  0.00  0.00    +0.277 C 
ENDBRANCH   2  23
BRANCH  16  25
ATOM     25  O   LIG A   1      -6.984   2.694 128.508  0.00  0.00    -0.457 OA
BRANCH  25  26
ATOM     26  C   LIG A   1      -5.577   2.955 128.677  0.00  0.00    +0.339 C 
ATOM     27  O   LIG A   1      -5.412   4.382 128.672  0.00  0.00    -0.330 OA
ATOM     28  C   LIG A   1      -4.042   4.796 128.791  0.00  0.00    +0.191 C 
ATOM     29  C   LIG A   1      -3.270   4.308 127.557  0.00  0.00    +0.178 C 
ATOM     30  C   LIG A   1      -3.315   2.779 127.573  0.00  0.00    +0.180 C 
ATOM     31  C   LIG A   1      -4.759   2.282 127.547  0.00  0.00    +0.214 C 
BRANCH  31  32
ATOM     32  O   LIG A   1      -4.742   0.850 127.681  0.00  0.00    -0.383 OA
ATOM     33  H   LIG A   1      -3.800   0.596 127.605  0.00  0.00    +0.210 HD
ENDBRANCH  31  32
BRANCH  30  34
ATOM     34  O   LIG A   1      -2.608   2.260 126.437  0.00  0.00    -0.386 OA
ATOM     35  H   LIG A   1      -1.967   2.963 126.203  0.00  0.00    +0.210 HD
ENDBRANCH  30  34
BRANCH  29  36
ATOM     36  O   LIG A   1      -1.896   4.698 127.520  0.00  0.00    -0.386 OA
ATOM     37  H   LIG A   1      -1.375   3.888 127.365  0.00  0.00    +0.210 HD
ENDBRANCH  29  36
BRANCH  28  38
ATOM     38  C   LIG A   1      -4.030   6.323 128.947  0.00  0.00    +0.266 C 
BRANCH  38  39
ATOM     39  O   LIG A   1      -5.161   6.857 129.651  0.00  0.00    -0.462 OA
BRANCH  39  40
ATOM     40  C   LIG A   1      -5.018   6.957 131.007  0.00  0.00    +0.304 C 
ATOM     41  C   LIG A   1      -6.287   6.549 131.688  0.00  0.00    +0.136 C 
ATOM     42  O   LIG A   1      -4.033   7.358 131.588  0.00  0.00    -0.251 OA
ENDBRANCH  39  40
ENDBRANCH  38  39
ENDBRANCH  28  38
ENDBRANCH  25  26
ENDBRANCH  16  25
TORSDOF 11
ENDMDL
MODEL 5
REMARK VINA RESULT:      -7.7      3.599      7.606
REMARK  Name = NuBBE_1184
REMARK  14 active torsions:
REMARK  status: ('A' for Active; 'I' for Inactive)
REMARK    1  A    between atoms: O_1  and  C_2
REMARK    2  A    between atoms: C_3  and  O_42
REMARK    3  A    between atoms: C_17  and  O_18
REMARK    4  A    between atoms: O_18  and  C_19
REMARK    5  A    between atoms: C_22  and  C_33
REMARK    6  A    between atoms: C_24  and  O_32
REMARK    7  A    between atoms: C_26  and  O_31
REMARK    8  A    between atoms: C_28  and  O_30
REMARK    9  A    between atoms: C_33  and  O_34
REMARK   10  A    between atoms: O_34  and  C_35
REMARK   11  A    between atoms: C_35  and  C_36
REMARK   12  A    between atoms: C_38  and  O_39
REMARK   13  A    between atoms: O_39  and  C_40
REMARK   14  A    between atoms: O_42  and  C_43
REMARK                            x       y       z     vdW  Elec       q    Type
REMARK                         _______ _______ _______ _____ _____    ______ ____
ROOT
ATOM      1  C   LIG A   1      -6.531  -3.138 131.618  0.00  0.00    +0.202 A 
ATOM      2  C   LIG A   1      -6.662  -2.663 132.927  0.00  0.00    +0.166 A 
ATOM      3  C   LIG A   1      -7.059  -1.337 133.137  0.00  0.00    +0.065 A 
ATOM      4  C   LIG A   1      -7.358  -0.508 132.042  0.00  0.00    +0.074 A 
ATOM      5  C   LIG A   1      -7.254  -1.001 130.747  0.00  0.00    +0.047 A 
ATOM      6  C   LIG A   1      -6.823  -2.308 130.545  0.00  0.00    +0.185 A 
ATOM      7  O   LIG A   1      -6.691  -2.822 129.238  0.00  0.00    -0.418 OA
ATOM      8  C   LIG A   1      -7.007  -2.084 128.108  0.00  0.00    +0.345 A 
ATOM      9  O   LIG A   1      -6.894  -2.537 126.974  0.00  0.00    -0.244 OA
ATOM     10  C   LIG A   1      -7.795   0.897 132.254  0.00  0.00    +0.345 A 
ATOM     11  O   LIG A   1      -8.221   1.598 131.120  0.00  0.00    -0.418 OA
ATOM     12  C   LIG A   1      -8.155   1.076 129.795  0.00  0.00    +0.186 A 
ATOM     13  C   LIG A   1      -7.630  -0.202 129.620  0.00  0.00    +0.047 A 
ATOM     14  C   LIG A   1      -7.514  -0.713 128.342  0.00  0.00    +0.074 A 
ATOM     15  C   LIG A   1      -7.910   0.052 127.251  0.00  0.00    +0.065 A 
ATOM     16  C   LIG A   1      -8.512   1.304 127.414  0.00  0.00    +0.170 A 
ATOM     17  C   LIG A   1      -8.624   1.850 128.712  0.00  0.00    +0.205 A 
ATOM     18  O   LIG A   1      -7.787   1.395 133.372  0.00  0.00    -0.244 OA
ENDROOT
BRANCH   1  19
ATOM     19  O   LIG A   1      -6.132  -4.426 131.387  0.00  0.00    -0.501 OA
ATOM     20  H   LIG A   1      -6.030  -4.506 130.420  0.00  0.00    +0.292 HD
ENDBRANCH   1  19
BRANCH  17  21
ATOM     21  O   LIG A   1      -9.168   3.058 129.067  0.00  0.00    -0.488 OA
ATOM     22  C   LIG A   1      -8.350   4.220 129.002  0.00  0.00    +0.277 C 
ENDBRANCH  17  21
BRANCH   2  23
ATOM     23  O   LIG A   1      -6.378  -3.584 133.900  0.00  0.00    -0.491 OA
ATOM     24  C   LIG A   1      -7.481  -4.056 134.665  0.00  0.00    +0.277 C 
ENDBRANCH   2  23
BRANCH  16  25
ATOM     25  O   LIG A   1      -8.951   2.011 126.326  0.00  0.00    -0.457 OA
BRANCH  25  26
ATOM     26  C   LIG A   1      -8.088   2.124 125.177  0.00  0.00    +0.339 C 
ATOM     27  O   LIG A   1      -6.974   2.943 125.571  0.00  0.00    -0.330 OA
ATOM     28  C   LIG A   1      -6.041   3.180 124.506  0.00  0.00    +0.191 C 
ATOM     29  C   LIG A   1      -6.745   3.980 123.401  0.00  0.00    +0.178 C 
ATOM     30  C   LIG A   1      -7.877   3.106 122.863  0.00  0.00    +0.180 C 
ATOM     31  C   LIG A   1      -8.853   2.739 123.980  0.00  0.00    +0.214 C 
BRANCH  31  32
ATOM     32  O   LIG A   1      -9.825   1.826 123.442  0.00  0.00    -0.383 OA
ATOM     33  H   LIG A   1      -9.304   1.105 123.035  0.00  0.00    +0.210 HD
ENDBRANCH  31  32
BRANCH  30  34
ATOM     34  O   LIG A   1      -8.578   3.803 121.822  0.00  0.00    -0.386 OA
ATOM     35  H   LIG A   1      -8.169   3.480 120.992  0.00  0.00    +0.210 HD
ENDBRANCH  30  34
BRANCH  29  36
ATOM     36  O   LIG A   1      -5.910   4.334 122.296  0.00  0.00    -0.386 OA
ATOM     37  H   LIG A   1      -5.117   4.765 122.668  0.00  0.00    +0.210 HD
ENDBRANCH  29  36
BRANCH  28  38
ATOM     38  C   LIG A   1      -4.830   3.911 125.104  0.00  0.00    +0.266 C 
BRANCH  38  39
ATOM     39  O   LIG A   1      -4.129   3.169 126.114  0.00  0.00    -0.462 OA
BRANCH  39  40
ATOM     40  C   LIG A   1      -3.112   3.838 126.737  0.00  0.00    +0.304 C 
ATOM     41  C   LIG A   1      -1.826   3.092 126.561  0.00  0.00    +0.136 C 
ATOM     42  O   LIG A   1      -3.223   4.859 127.379  0.00  0.00    -0.251 OA
ENDBRANCH  39  40
ENDBRANCH  38  39
ENDBRANCH  28  38
ENDBRANCH  25  26
ENDBRANCH  16  25
TORSDOF 11
ENDMDL
MODEL 6
REMARK VINA RESULT:      -7.7      2.867      4.548
REMARK  Name = NuBBE_1184
REMARK  14 active torsions:
REMARK  status: ('A' for Active; 'I' for Inactive)
REMARK    1  A    between atoms: O_1  and  C_2
REMARK    2  A    between atoms: C_3  and  O_42
REMARK    3  A    between atoms: C_17  and  O_18
REMARK    4  A    between atoms: O_18  and  C_19
REMARK    5  A    between atoms: C_22  and  C_33
REMARK    6  A    between atoms: C_24  and  O_32
REMARK    7  A    between atoms: C_26  and  O_31
REMARK    8  A    between atoms: C_28  and  O_30
REMARK    9  A    between atoms: C_33  and  O_34
REMARK   10  A    between atoms: O_34  and  C_35
REMARK   11  A    between atoms: C_35  and  C_36
REMARK   12  A    between atoms: C_38  and  O_39
REMARK   13  A    between atoms: O_39  and  C_40
REMARK   14  A    between atoms: O_42  and  C_43
REMARK                            x       y       z     vdW  Elec       q    Type
REMARK                         _______ _______ _______ _____ _____    ______ ____
ROOT
ATOM      1  C   LIG A   1      -9.349   0.555 124.288  0.00  0.00    +0.202 A 
ATOM      2  C   LIG A   1      -8.846  -0.746 124.194  0.00  0.00    +0.166 A 
ATOM      3  C   LIG A   1      -7.525  -1.000 124.580  0.00  0.00    +0.065 A 
ATOM      4  C   LIG A   1      -6.727   0.039 125.091  0.00  0.00    +0.074 A 
ATOM      5  C   LIG A   1      -7.248   1.322 125.208  0.00  0.00    +0.047 A 
ATOM      6  C   LIG A   1      -8.549   1.574 124.788  0.00  0.00    +0.185 A 
ATOM      7  O   LIG A   1      -9.090   2.874 124.879  0.00  0.00    -0.418 OA
ATOM      8  C   LIG A   1      -8.385   3.942 125.411  0.00  0.00    +0.345 A 
ATOM      9  O   LIG A   1      -8.861   5.069 125.492  0.00  0.00    -0.244 OA
ATOM     10  C   LIG A   1      -5.328  -0.222 125.518  0.00  0.00    +0.345 A 
ATOM     11  O   LIG A   1      -4.662   0.831 126.157  0.00  0.00    -0.418 OA
ATOM     12  C   LIG A   1      -5.212   2.135 126.317  0.00  0.00    +0.186 A 
ATOM     13  C   LIG A   1      -6.482   2.378 125.800  0.00  0.00    +0.047 A 
ATOM     14  C   LIG A   1      -7.020   3.646 125.902  0.00  0.00    +0.074 A 
ATOM     15  C   LIG A   1      -6.288   4.663 126.506  0.00  0.00    +0.065 A 
ATOM     16  C   LIG A   1      -5.046   4.417 127.100  0.00  0.00    +0.170 A 
ATOM     17  C   LIG A   1      -4.473   3.131 126.991  0.00  0.00    +0.205 A 
ATOM     18  O   LIG A   1      -4.804  -1.311 125.322  0.00  0.00    -0.244 OA
ENDROOT
BRANCH   1  19
ATOM     19  O   LIG A   1     -10.632   0.830 123.905  0.00  0.00    -0.501 OA
ATOM     20  H   LIG A   1     -10.996   1.422 124.590  0.00  0.00    +0.292 HD
ENDBRANCH   1  19
BRANCH  17  21
ATOM     21  O   LIG A   1      -3.269   2.707 127.493  0.00  0.00    -0.488 OA
ATOM     22  C   LIG A   1      -2.074   3.145 126.859  0.00  0.00    +0.277 C 
ENDBRANCH  17  21
BRANCH   2  23
ATOM     23  O   LIG A   1      -9.739  -1.670 123.718  0.00  0.00    -0.491 OA
ATOM     24  C   LIG A   1      -9.189  -2.894 123.245  0.00  0.00    +0.277 C 
ENDBRANCH   2  23
BRANCH  16  25
ATOM     25  O   LIG A   1      -4.373   5.422 127.745  0.00  0.00    -0.457 OA
BRANCH  25  26
ATOM     26  C   LIG A   1      -4.139   5.302 129.162  0.00  0.00    +0.339 C 
ATOM     27  O   LIG A   1      -5.429   5.232 129.794  0.00  0.00    -0.330 OA
ATOM     28  C   LIG A   1      -5.355   5.152 131.225  0.00  0.00    +0.191 C 
ATOM     29  C   LIG A   1      -4.725   6.445 131.761  0.00  0.00    +0.178 C 
ATOM     30  C   LIG A   1      -3.301   6.516 131.209  0.00  0.00    +0.180 C 
ATOM     31  C   LIG A   1      -3.314   6.505 129.681  0.00  0.00    +0.214 C 
BRANCH  31  32
ATOM     32  O   LIG A   1      -1.952   6.455 129.223  0.00  0.00    -0.383 OA
ATOM     33  H   LIG A   1      -1.406   6.568 130.026  0.00  0.00    +0.210 HD
ENDBRANCH  31  32
BRANCH  30  34
ATOM     34  O   LIG A   1      -2.657   7.711 131.675  0.00  0.00    -0.386 OA
ATOM     35  H   LIG A   1      -1.867   7.803 131.102  0.00  0.00    +0.210 HD
ENDBRANCH  30  34
BRANCH  29  36
ATOM     36  O   LIG A   1      -4.640   6.522 133.186  0.00  0.00    -0.386 OA
ATOM     37  H   LIG A   1      -5.509   6.830 133.505  0.00  0.00    +0.210 HD
ENDBRANCH  29  36
BRANCH  28  38
ATOM     38  C   LIG A   1      -6.777   4.909 131.751  0.00  0.00    +0.266 C 
BRANCH  38  39
ATOM     39  O   LIG A   1      -7.352   6.027 132.444  0.00  0.00    -0.462 OA
BRANCH  39  40
ATOM     40  C   LIG A   1      -8.634   6.343 132.092  0.00  0.00    +0.304 C 
ATOM     41  C   LIG A   1      -8.653   6.963 130.730  0.00  0.00    +0.136 C 
ATOM     42  O   LIG A   1      -9.618   6.193 132.784  0.00  0.00    -0.251 OA
ENDBRANCH  39  40
ENDBRANCH  38  39
ENDBRANCH  28  38
ENDBRANCH  25  26
ENDBRANCH  16  25
TORSDOF 11
ENDMDL
MODEL 7
REMARK VINA RESULT:      -7.6      2.659      8.949
REMARK  Name = NuBBE_1184
REMARK  14 active torsions:
REMARK  status: ('A' for Active; 'I' for Inactive)
REMARK    1  A    between atoms: O_1  and  C_2
REMARK    2  A    between atoms: C_3  and  O_42
REMARK    3  A    between atoms: C_17  and  O_18
REMARK    4  A    between atoms: O_18  and  C_19
REMARK    5  A    between atoms: C_22  and  C_33
REMARK    6  A    between atoms: C_24  and  O_32
REMARK    7  A    between atoms: C_26  and  O_31
REMARK    8  A    between atoms: C_28  and  O_30
REMARK    9  A    between atoms: C_33  and  O_34
REMARK   10  A    between atoms: O_34  and  C_35
REMARK   11  A    between atoms: C_35  and  C_36
REMARK   12  A    between atoms: C_38  and  O_39
REMARK   13  A    between atoms: O_39  and  C_40
REMARK   14  A    between atoms: O_42  and  C_43
REMARK                            x       y       z     vdW  Elec       q    Type
REMARK                         _______ _______ _______ _____ _____    ______ ____
ROOT
ATOM      1  C   LIG A   1      -8.297   5.711 133.524  0.00  0.00    +0.202 A 
ATOM      2  C   LIG A   1      -7.252   5.494 134.429  0.00  0.00    +0.166 A 
ATOM      3  C   LIG A   1      -6.159   4.713 134.037  0.00  0.00    +0.065 A 
ATOM      4  C   LIG A   1      -6.098   4.185 132.736  0.00  0.00    +0.074 A 
ATOM      5  C   LIG A   1      -7.128   4.434 131.836  0.00  0.00    +0.047 A 
ATOM      6  C   LIG A   1      -8.228   5.180 132.244  0.00  0.00    +0.185 A 
ATOM      7  O   LIG A   1      -9.294   5.426 131.353  0.00  0.00    -0.418 OA
ATOM      8  C   LIG A   1      -9.290   4.978 130.041  0.00  0.00    +0.345 A 
ATOM      9  O   LIG A   1     -10.217   5.199 129.269  0.00  0.00    -0.244 OA
ATOM     10  C   LIG A   1      -4.935   3.367 132.305  0.00  0.00    +0.345 A 
ATOM     11  O   LIG A   1      -4.884   3.016 130.951  0.00  0.00    -0.418 OA
ATOM     12  C   LIG A   1      -5.920   3.308 130.017  0.00  0.00    +0.186 A 
ATOM     13  C   LIG A   1      -7.050   3.975 130.482  0.00  0.00    +0.047 A 
ATOM     14  C   LIG A   1      -8.089   4.231 129.607  0.00  0.00    +0.074 A 
ATOM     15  C   LIG A   1      -7.998   3.813 128.284  0.00  0.00    +0.065 A 
ATOM     16  C   LIG A   1      -6.838   3.214 127.782  0.00  0.00    +0.170 A 
ATOM     17  C   LIG A   1      -5.773   2.930 128.665  0.00  0.00    +0.205 A 
ATOM     18  O   LIG A   1      -4.069   3.036 133.105  0.00  0.00    -0.244 OA
ENDROOT
BRANCH   1  19
ATOM     19  O   LIG A   1      -9.381   6.460 133.888  0.00  0.00    -0.501 OA
ATOM     20  H   LIG A   1      -9.566   7.050 133.133  0.00  0.00    +0.292 HD
ENDBRANCH   1  19
BRANCH  17  21
ATOM     21  O   LIG A   1      -4.572   2.340 128.365  0.00  0.00    -0.488 OA
ATOM     22  C   LIG A   1      -3.552   3.133 127.771  0.00  0.00    +0.277 C 
ENDBRANCH  17  21
BRANCH   2  23
ATOM     23  O   LIG A   1      -7.419   6.096 135.648  0.00  0.00    -0.491 OA
ATOM     24  C   LIG A   1      -6.454   5.781 136.646  0.00  0.00    +0.277 C 
ENDBRANCH   2  23
BRANCH  16  25
ATOM     25  O   LIG A   1      -6.750   2.869 126.459  0.00  0.00    -0.457 OA
BRANCH  25  26
ATOM     26  C   LIG A   1      -7.896   2.272 125.821  0.00  0.00    +0.339 C 
ATOM     27  O   LIG A   1      -7.692   0.849 125.842  0.00  0.00    -0.330 OA
ATOM     28  C   LIG A   1      -8.744   0.116 125.197  0.00  0.00    +0.191 C 
ATOM     29  C   LIG A   1      -8.763   0.486 123.707  0.00  0.00    +0.178 C 
ATOM     30  C   LIG A   1      -9.091   1.977 123.618  0.00  0.00    +0.180 C 
ATOM     31  C   LIG A   1      -8.052   2.804 124.374  0.00  0.00    +0.214 C 
BRANCH  31  32
ATOM     32  O   LIG A   1      -8.475   4.178 124.355  0.00  0.00    -0.383 OA
ATOM     33  H   LIG A   1      -7.648   4.702 124.367  0.00  0.00    +0.210 HD
ENDBRANCH  31  32
BRANCH  30  34
ATOM     34  O   LIG A   1      -9.122   2.387 122.243  0.00  0.00    -0.386 OA
ATOM     35  H   LIG A   1      -9.686   3.189 122.238  0.00  0.00    +0.210 HD
ENDBRANCH  30  34
BRANCH  29  36
ATOM     36  O   LIG A   1      -9.734  -0.217 122.930  0.00  0.00    -0.386 OA
ATOM     37  H   LIG A   1     -10.159   0.441 122.347  0.00  0.00    +0.210 HD
ENDBRANCH  29  36
BRANCH  28  38
ATOM     38  C   LIG A   1      -8.488  -1.378 125.445  0.00  0.00    +0.266 C 
BRANCH  38  39
ATOM     39  O   LIG A   1      -9.615  -2.226 125.177  0.00  0.00    -0.462 OA
BRANCH  39  40
ATOM     40  C   LIG A   1      -9.400  -3.223 124.267  0.00  0.00    +0.304 C 
ATOM     41  C   LIG A   1      -8.241  -4.067 124.696  0.00  0.00    +0.136 C 
ATOM     42  O   LIG A   1     -10.017  -3.387 123.236  0.00  0.00    -0.251 OA
ENDBRANCH  39  40
ENDBRANCH  38  39
ENDBRANCH  28  38
ENDBRANCH  25  26
ENDBRANCH  16  25
TORSDOF 11
ENDMDL
MODEL 8
REMARK VINA RESULT:      -7.4      3.904      7.551
REMARK  Name = NuBBE_1184
REMARK  14 active torsions:
REMARK  status: ('A' for Active; 'I' for Inactive)
REMARK    1  A    between atoms: O_1  and  C_2
REMARK    2  A    between atoms: C_3  and  O_42
REMARK    3  A    between atoms: C_17  and  O_18
REMARK    4  A    between atoms: O_18  and  C_19
REMARK    5  A    between atoms: C_22  and  C_33
REMARK    6  A    between atoms: C_24  and  O_32
REMARK    7  A    between atoms: C_26  and  O_31
REMARK    8  A    between atoms: C_28  and  O_30
REMARK    9  A    between atoms: C_33  and  O_34
REMARK   10  A    between atoms: O_34  and  C_35
REMARK   11  A    between atoms: C_35  and  C_36
REMARK   12  A    between atoms: C_38  and  O_39
REMARK   13  A    between atoms: O_39  and  C_40
REMARK   14  A    between atoms: O_42  and  C_43
REMARK                            x       y       z     vdW  Elec       q    Type
REMARK                         _______ _______ _______ _____ _____    ______ ____
ROOT
ATOM      1  C   LIG A   1      -6.659  -0.686 133.214  0.00  0.00    +0.202 A 
ATOM      2  C   LIG A   1      -6.110  -1.940 133.497  0.00  0.00    +0.166 A 
ATOM      3  C   LIG A   1      -6.027  -2.897 132.479  0.00  0.00    +0.065 A 
ATOM      4  C   LIG A   1      -6.458  -2.583 131.179  0.00  0.00    +0.074 A 
ATOM      5  C   LIG A   1      -6.973  -1.323 130.902  0.00  0.00    +0.047 A 
ATOM      6  C   LIG A   1      -7.087  -0.390 131.927  0.00  0.00    +0.185 A 
ATOM      7  O   LIG A   1      -7.627   0.889 131.672  0.00  0.00    -0.418 OA
ATOM      8  C   LIG A   1      -8.033   1.290 130.410  0.00  0.00    +0.345 A 
ATOM      9  O   LIG A   1      -8.498   2.405 130.193  0.00  0.00    -0.244 OA
ATOM     10  C   LIG A   1      -6.360  -3.587 130.087  0.00  0.00    +0.345 A 
ATOM     11  O   LIG A   1      -6.665  -3.139 128.796  0.00  0.00    -0.418 OA
ATOM     12  C   LIG A   1      -7.152  -1.832 128.505  0.00  0.00    +0.186 A 
ATOM     13  C   LIG A   1      -7.343  -0.953 129.569  0.00  0.00    +0.047 A 
ATOM     14  C   LIG A   1      -7.857   0.305 129.320  0.00  0.00    +0.074 A 
ATOM     15  C   LIG A   1      -8.186   0.674 128.020  0.00  0.00    +0.065 A 
ATOM     16  C   LIG A   1      -7.926  -0.167 126.932  0.00  0.00    +0.170 A 
ATOM     17  C   LIG A   1      -7.416  -1.462 127.169  0.00  0.00    +0.205 A 
ATOM     18  O   LIG A   1      -6.018  -4.738 130.321  0.00  0.00    -0.244 OA
ENDROOT
BRANCH   1  19
ATOM     19  O   LIG A   1      -6.763   0.261 134.195  0.00  0.00    -0.501 OA
ATOM     20  H   LIG A   1      -7.301   0.982 133.817  0.00  0.00    +0.292 HD
ENDBRANCH   1  19
BRANCH  17  21
ATOM     21  O   LIG A   1      -7.113  -2.424 126.240  0.00  0.00    -0.488 OA
ATOM     22  C   LIG A   1      -5.889  -2.320 125.524  0.00  0.00    +0.277 C 
ENDBRANCH  17  21
BRANCH   2  23
ATOM     23  O   LIG A   1      -5.694  -2.102 134.793  0.00  0.00    -0.491 OA
ATOM     24  C   LIG A   1      -4.360  -2.562 134.975  0.00  0.00    +0.277 C 
ENDBRANCH   2  23
BRANCH  16  25
ATOM     25  O   LIG A   1      -8.200   0.246 125.655  0.00  0.00    -0.457 OA
BRANCH  25  26
ATOM     26  C   LIG A   1      -7.596   1.463 125.174  0.00  0.00    +0.339 C 
ATOM     27  O   LIG A   1      -6.360   1.628 125.890  0.00  0.00    -0.330 OA
ATOM     28  C   LIG A   1      -5.660   2.832 125.543  0.00  0.00    +0.191 C 
ATOM     29  C   LIG A   1      -6.516   4.038 125.956  0.00  0.00    +0.178 C 
ATOM     30  C   LIG A   1      -7.805   3.978 125.136  0.00  0.00    +0.180 C 
ATOM     31  C   LIG A   1      -8.546   2.666 125.393  0.00  0.00    +0.214 C 
BRANCH  31  32
ATOM     32  O   LIG A   1      -9.682   2.615 124.512  0.00  0.00    -0.383 OA
ATOM     33  H   LIG A   1      -9.671   1.715 124.129  0.00  0.00    +0.210 HD
ENDBRANCH  31  32
BRANCH  30  34
ATOM     34  O   LIG A   1      -8.652   5.084 125.480  0.00  0.00    -0.386 OA
ATOM     35  H   LIG A   1      -8.472   5.755 124.789  0.00  0.00    +0.210 HD
ENDBRANCH  30  34
BRANCH  29  36
ATOM     36  O   LIG A   1      -5.910   5.310 125.716  0.00  0.00    -0.386 OA
ATOM     37  H   LIG A   1      -5.684   5.684 126.588  0.00  0.00    +0.210 HD
ENDBRANCH  29  36
BRANCH  28  38
ATOM     38  C   LIG A   1      -4.294   2.792 126.243  0.00  0.00    +0.266 C 
BRANCH  38  39
ATOM     39  O   LIG A   1      -4.077   3.856 127.183  0.00  0.00    -0.462 OA
BRANCH  39  40
ATOM     40  C   LIG A   1      -2.776   4.236 127.353  0.00  0.00    +0.304 C 
ATOM     41  C   LIG A   1      -1.859   3.171 126.838  0.00  0.00    +0.136 C 
ATOM     42  O   LIG A   1      -2.399   5.260 127.881  0.00  0.00    -0.251 OA
ENDBRANCH  39  40
ENDBRANCH  38  39
ENDBRANCH  28  38
ENDBRANCH  25  26
ENDBRANCH  16  25
TORSDOF 11
ENDMDL
MODEL 9
REMARK VINA RESULT:      -7.4      2.163      4.609
REMARK  Name = NuBBE_1184
REMARK  14 active torsions:
REMARK  status: ('A' for Active; 'I' for Inactive)
REMARK    1  A    between atoms: O_1  and  C_2
REMARK    2  A    between atoms: C_3  and  O_42
REMARK    3  A    between atoms: C_17  and  O_18
REMARK    4  A    between atoms: O_18  and  C_19
REMARK    5  A    between atoms: C_22  and  C_33
REMARK    6  A    between atoms: C_24  and  O_32
REMARK    7  A    between atoms: C_26  and  O_31
REMARK    8  A    between atoms: C_28  and  O_30
REMARK    9  A    between atoms: C_33  and  O_34
REMARK   10  A    between atoms: O_34  and  C_35
REMARK   11  A    between atoms: C_35  and  C_36
REMARK   12  A    between atoms: C_38  and  O_39
REMARK   13  A    between atoms: O_39  and  C_40
REMARK   14  A    between atoms: O_42  and  C_43
REMARK                            x       y       z     vdW  Elec       q    Type
REMARK                         _______ _______ _______ _____ _____    ______ ____
ROOT
ATOM      1  C   LIG A   1      -8.370  -2.083 126.351  0.00  0.00    +0.202 A 
ATOM      2  C   LIG A   1      -8.611  -2.122 124.974  0.00  0.00    +0.166 A 
ATOM      3  C   LIG A   1      -8.719  -0.920 124.264  0.00  0.00    +0.065 A 
ATOM      4  C   LIG A   1      -8.550   0.308 124.926  0.00  0.00    +0.074 A 
ATOM      5  C   LIG A   1      -8.280   0.333 126.289  0.00  0.00    +0.047 A 
ATOM      6  C   LIG A   1      -8.211  -0.864 126.994  0.00  0.00    +0.185 A 
ATOM      7  O   LIG A   1      -7.959  -0.861 128.382  0.00  0.00    -0.418 OA
ATOM      8  C   LIG A   1      -7.738   0.304 129.099  0.00  0.00    +0.345 A 
ATOM      9  O   LIG A   1      -7.515   0.301 130.306  0.00  0.00    -0.244 OA
ATOM     10  C   LIG A   1      -8.648   1.589 124.179  0.00  0.00    +0.345 A 
ATOM     11  O   LIG A   1      -8.312   2.752 124.883  0.00  0.00    -0.418 OA
ATOM     12  C   LIG A   1      -7.992   2.772 126.272  0.00  0.00    +0.186 A 
ATOM     13  C   LIG A   1      -8.025   1.567 126.968  0.00  0.00    +0.047 A 
ATOM     14  C   LIG A   1      -7.762   1.565 128.325  0.00  0.00    +0.074 A 
ATOM     15  C   LIG A   1      -7.482   2.761 128.978  0.00  0.00    +0.065 A 
ATOM     16  C   LIG A   1      -7.368   3.967 128.279  0.00  0.00    +0.170 A 
ATOM     17  C   LIG A   1      -7.648   3.991 126.895  0.00  0.00    +0.205 A 
ATOM     18  O   LIG A   1      -8.995   1.607 123.006  0.00  0.00    -0.244 OA
ENDROOT
BRANCH   1  19
ATOM     19  O   LIG A   1      -8.274  -3.243 127.068  0.00  0.00    -0.501 OA
ATOM     20  H   LIG A   1      -8.599  -3.033 127.963  0.00  0.00    +0.292 HD
ENDBRANCH   1  19
BRANCH  17  21
ATOM     21  O   LIG A   1      -7.603   5.071 126.051  0.00  0.00    -0.488 OA
ATOM     22  C   LIG A   1      -6.396   5.337 125.348  0.00  0.00    +0.277 C 
ENDBRANCH  17  21
BRANCH   2  23
ATOM     23  O   LIG A   1      -8.717  -3.382 124.447  0.00  0.00    -0.491 OA
ATOM     24  C   LIG A   1      -9.636  -3.543 123.373  0.00  0.00    +0.277 C 
ENDBRANCH   2  23
BRANCH  16  25
ATOM     25  O   LIG A   1      -7.028   5.121 128.936  0.00  0.00    -0.457 OA
BRANCH  25  26
ATOM     26  C   LIG A   1      -8.034   5.798 129.714  0.00  0.00    +0.339 C 
ATOM     27  O   LIG A   1      -7.940   5.288 131.055  0.00  0.00    -0.330 OA
ATOM     28  C   LIG A   1      -8.918   5.846 131.944  0.00  0.00    +0.191 C 
ATOM     29  C   LIG A   1     -10.316   5.430 131.465  0.00  0.00    +0.178 C 
ATOM     30  C   LIG A   1     -10.519   6.045 130.079  0.00  0.00    +0.180 C 
ATOM     31  C   LIG A   1      -9.441   5.560 129.111  0.00  0.00    +0.214 C 
BRANCH  31  32
ATOM     32  O   LIG A   1      -9.612   6.257 127.865  0.00  0.00    -0.383 OA
ATOM     33  H   LIG A   1     -10.575   6.414 127.788  0.00  0.00    +0.210 HD
ENDBRANCH  31  32
BRANCH  30  34
ATOM     34  O   LIG A   1     -11.814   5.689 129.573  0.00  0.00    -0.386 OA
ATOM     35  H   LIG A   1     -12.292   6.542 129.502  0.00  0.00    +0.210 HD
ENDBRANCH  30  34
BRANCH  29  36
ATOM     36  O   LIG A   1     -11.390   5.877 132.296  0.00  0.00    -0.386 OA
ATOM     37  H   LIG A   1     -11.130   5.689 133.218  0.00  0.00    +0.210 HD
ENDBRANCH  29  36
BRANCH  28  38
ATOM     38  C   LIG A   1      -8.594   5.352 133.361  0.00  0.00    +0.266 C 
BRANCH  38  39
ATOM     39  O   LIG A   1      -9.329   4.187 133.767  0.00  0.00    -0.462 OA
BRANCH  39  40
ATOM     40  C   LIG A   1      -8.714   2.990 133.530  0.00  0.00    +0.304 C 
ATOM     41  C   LIG A   1      -7.290   3.046 133.986  0.00  0.00    +0.136 C 
ATOM     42  O   LIG A   1      -9.218   2.028 132.990  0.00  0.00    -0.251 OA
ENDBRANCH  39  40
ENDBRANCH  38  39
ENDBRANCH  28  38
ENDBRANCH  25  26
ENDBRANCH  16  25
TORSDOF 11
ENDMDL
