MODEL 1
REMARK VINA RESULT:      -9.5      0.000      0.000
REMARK  Name = NuBBE_2002
REMARK  12 active torsions:
REMARK  status: ('A' for Active; 'I' for Inactive)
REMARK    1  A    between atoms: C_1  and  C_2
REMARK    2  A    between atoms: C_7  and  C_9
REMARK    3  A    between atoms: C_12  and  O_13
REMARK    4  A    between atoms: O_13  and  C_14
REMARK    5  A    between atoms: C_14  and  C_15
REMARK    6  A    between atoms: C_21  and  O_22
REMARK    7  A    between atoms: O_22  and  C_23
REMARK    8  A    between atoms: C_27  and  O_28
REMARK    9  A    between atoms: C_29  and  C_30
REMARK   10  A    between atoms: C_31  and  O_32
REMARK   11  A    between atoms: O_32  and  C_33
REMARK   12  A    between atoms: C_33  and  C_34
REMARK                            x       y       z     vdW  Elec       q    Type
REMARK                         _______ _______ _______ _____ _____    ______ ____
ROOT
ATOM      1  C   LIG A   1      -8.037   2.105 131.005  0.00  0.00    +0.051 C 
ATOM      2  C   LIG A   1      -7.227   3.322 130.642  0.00  0.00    +0.034 A 
ATOM      3  C   LIG A   1      -5.930   3.170 130.012  0.00  0.00    +0.142 A 
ATOM      4  C   LIG A   1      -5.068   4.253 129.771  0.00  0.00    +0.101 A 
ATOM      5  C   LIG A   1      -3.725   4.072 129.152  0.00  0.00    +0.174 C 
ATOM      6  C   LIG A   1      -3.404   2.673 128.713  0.00  0.00    +0.129 C 
ATOM      7  C   LIG A   1      -4.724   1.986 128.349  0.00  0.00    +0.211 C 
ATOM      8  O   LIG A   1      -5.578   1.917 129.531  0.00  0.00    -0.483 OA
ATOM      9  O   LIG A   1      -2.911   5.019 129.027  0.00  0.00    -0.292 OA
ATOM     10  C   LIG A   1      -5.526   5.515 130.074  0.00  0.00    +0.137 A 
ATOM     11  C   LIG A   1      -6.834   5.715 130.608  0.00  0.00    +0.034 A 
ATOM     12  C   LIG A   1      -7.170   7.161 130.823  0.00  0.00    +0.051 C 
ATOM     13  C   LIG A   1      -7.721   4.625 130.892  0.00  0.00    +0.134 A 
ENDROOT
BRANCH   7  14
ATOM     14  C   LIG A   1      -5.432   2.553 127.108  0.00  0.00    -0.003 A 
ATOM     15  C   LIG A   1      -4.755   3.199 126.071  0.00  0.00    +0.011 A 
ATOM     16  C   LIG A   1      -5.445   3.632 124.938  0.00  0.00    +0.050 A 
ATOM     17  C   LIG A   1      -6.820   3.399 124.781  0.00  0.00    +0.162 A 
ATOM     18  C   LIG A   1      -7.528   2.771 125.824  0.00  0.00    +0.162 A 
ATOM     19  C   LIG A   1      -6.816   2.374 126.967  0.00  0.00    +0.056 A 
BRANCH  18  20
ATOM     20  O   LIG A   1      -8.871   2.517 125.707  0.00  0.00    -0.491 OA
ATOM     21  C   LIG A   1      -9.292   1.314 125.060  0.00  0.00    +0.277 C 
ENDBRANCH  18  20
BRANCH  17  22
ATOM     22  O   LIG A   1      -7.241   3.784 123.534  0.00  0.00    -0.484 OA
BRANCH  22  23
ATOM     23  C   LIG A   1      -6.915   2.975 122.417  0.00  0.00    +0.264 C 
BRANCH  23  24
ATOM     24  C   LIG A   1      -6.703   3.826 121.183  0.00  0.00    -0.010 A 
ATOM     25  C   LIG A   1      -5.476   4.465 120.941  0.00  0.00    +0.007 A 
ATOM     26  C   LIG A   1      -5.262   5.153 119.743  0.00  0.00    +0.000 A 
ATOM     27  C   LIG A   1      -6.269   5.210 118.781  0.00  0.00    +0.000 A 
ATOM     28  C   LIG A   1      -7.491   4.582 119.015  0.00  0.00    +0.000 A 
ATOM     29  C   LIG A   1      -7.705   3.893 120.208  0.00  0.00    +0.007 A 
ENDBRANCH  23  24
ENDBRANCH  22  23
ENDBRANCH  17  22
ENDBRANCH   7  14
BRANCH  10  30
ATOM     30  O   LIG A   1      -4.751   6.622 129.812  0.00  0.00    -0.506 OA
ATOM     31  H   LIG A   1      -4.055   6.388 129.154  0.00  0.00    +0.292 HD
ENDBRANCH  10  30
BRANCH  13  32
ATOM     32  O   LIG A   1      -9.075   4.919 131.093  0.00  0.00    -0.487 OA
BRANCH  32  33
ATOM     33  C   LIG A   1     -10.076   5.042 130.034  0.00  0.00    +0.264 C 
BRANCH  33  34
ATOM     34  C   LIG A   1     -10.745   6.442 129.829  0.00  0.00    -0.010 A 
ATOM     35  C   LIG A   1     -11.926   6.843 130.490  0.00  0.00    +0.007 A 
ATOM     36  C   LIG A   1     -12.600   8.045 130.139  0.00  0.00    +0.000 A 
ATOM     37  C   LIG A   1     -12.202   8.772 129.024  0.00  0.00    +0.000 A 
ATOM     38  C   LIG A   1     -11.030   8.403 128.381  0.00  0.00    +0.000 A 
ATOM     39  C   LIG A   1     -10.268   7.343 128.895  0.00  0.00    +0.007 A 
ENDBRANCH  33  34
ENDBRANCH  32  33
ENDBRANCH  13  32
TORSDOF 9
ENDMDL
MODEL 2
REMARK VINA RESULT:      -9.3      1.383      2.130
REMARK  Name = NuBBE_2002
REMARK  12 active torsions:
REMARK  status: ('A' for Active; 'I' for Inactive)
REMARK    1  A    between atoms: C_1  and  C_2
REMARK    2  A    between atoms: C_7  and  C_9
REMARK    3  A    between atoms: C_12  and  O_13
REMARK    4  A    between atoms: O_13  and  C_14
REMARK    5  A    between atoms: C_14  and  C_15
REMARK    6  A    between atoms: C_21  and  O_22
REMARK    7  A    between atoms: O_22  and  C_23
REMARK    8  A    between atoms: C_27  and  O_28
REMARK    9  A    between atoms: C_29  and  C_30
REMARK   10  A    between atoms: C_31  and  O_32
REMARK   11  A    between atoms: O_32  and  C_33
REMARK   12  A    between atoms: C_33  and  C_34
REMARK                            x       y       z     vdW  Elec       q    Type
REMARK                         _______ _______ _______ _____ _____    ______ ____
ROOT
ATOM      1  C   LIG A   1      -5.154   1.851 131.003  0.00  0.00    +0.051 C 
ATOM      2  C   LIG A   1      -5.033   3.286 130.562  0.00  0.00    +0.034 A 
ATOM      3  C   LIG A   1      -4.101   3.647 129.512  0.00  0.00    +0.142 A 
ATOM      4  C   LIG A   1      -3.842   4.979 129.147  0.00  0.00    +0.101 A 
ATOM      5  C   LIG A   1      -2.855   5.331 128.088  0.00  0.00    +0.174 C 
ATOM      6  C   LIG A   1      -2.240   4.165 127.372  0.00  0.00    +0.129 C 
ATOM      7  C   LIG A   1      -3.257   3.020 127.386  0.00  0.00    +0.211 C 
ATOM      8  O   LIG A   1      -3.526   2.628 128.767  0.00  0.00    -0.483 OA
ATOM      9  O   LIG A   1      -2.545   6.519 127.828  0.00  0.00    -0.292 OA
ATOM     10  C   LIG A   1      -4.575   5.965 129.765  0.00  0.00    +0.137 A 
ATOM     11  C   LIG A   1      -5.570   5.645 130.736  0.00  0.00    +0.034 A 
ATOM     12  C   LIG A   1      -6.299   6.848 131.257  0.00  0.00    +0.051 C 
ATOM     13  C   LIG A   1      -5.833   4.296 131.149  0.00  0.00    +0.134 A 
ENDROOT
BRANCH   7  14
ATOM     14  C   LIG A   1      -4.527   3.267 126.556  0.00  0.00    -0.003 A 
ATOM     15  C   LIG A   1      -4.538   4.032 125.387  0.00  0.00    +0.011 A 
ATOM     16  C   LIG A   1      -5.709   4.164 124.640  0.00  0.00    +0.050 A 
ATOM     17  C   LIG A   1      -6.893   3.506 125.007  0.00  0.00    +0.162 A 
ATOM     18  C   LIG A   1      -6.913   2.750 126.195  0.00  0.00    +0.162 A 
ATOM     19  C   LIG A   1      -5.730   2.660 126.945  0.00  0.00    +0.056 A 
BRANCH  18  20
ATOM     20  O   LIG A   1      -8.046   2.085 126.585  0.00  0.00    -0.491 OA
ATOM     21  C   LIG A   1      -8.230   1.786 127.971  0.00  0.00    +0.277 C 
ENDBRANCH  18  20
BRANCH  17  22
ATOM     22  O   LIG A   1      -7.860   3.670 124.048  0.00  0.00    -0.484 OA
BRANCH  22  23
ATOM     23  C   LIG A   1      -8.035   2.662 123.068  0.00  0.00    +0.264 C 
BRANCH  23  24
ATOM     24  C   LIG A   1      -7.837   3.227 121.677  0.00  0.00    -0.010 A 
ATOM     25  C   LIG A   1      -8.933   3.566 120.866  0.00  0.00    +0.007 A 
ATOM     26  C   LIG A   1      -8.731   4.191 119.632  0.00  0.00    +0.000 A 
ATOM     27  C   LIG A   1      -7.437   4.479 119.198  0.00  0.00    +0.000 A 
ATOM     28  C   LIG A   1      -6.345   4.141 119.995  0.00  0.00    +0.000 A 
ATOM     29  C   LIG A   1      -6.545   3.521 121.227  0.00  0.00    +0.007 A 
ENDBRANCH  23  24
ENDBRANCH  22  23
ENDBRANCH  17  22
ENDBRANCH   7  14
BRANCH  10  30
ATOM     30  O   LIG A   1      -4.407   7.286 129.415  0.00  0.00    -0.506 OA
ATOM     31  H   LIG A   1      -5.222   7.793 129.642  0.00  0.00    +0.292 HD
ENDBRANCH  10  30
BRANCH  13  32
ATOM     32  O   LIG A   1      -7.024   4.044 131.839  0.00  0.00    -0.487 OA
BRANCH  32  33
ATOM     33  C   LIG A   1      -8.282   3.622 131.223  0.00  0.00    +0.264 C 
BRANCH  33  34
ATOM     34  C   LIG A   1      -9.262   4.743 130.740  0.00  0.00    -0.010 A 
ATOM     35  C   LIG A   1      -9.245   5.279 129.435  0.00  0.00    +0.007 A 
ATOM     36  C   LIG A   1     -10.024   6.418 129.092  0.00  0.00    +0.000 A 
ATOM     37  C   LIG A   1     -10.695   7.131 130.078  0.00  0.00    +0.000 A 
ATOM     38  C   LIG A   1     -10.740   6.601 131.358  0.00  0.00    +0.000 A 
ATOM     39  C   LIG A   1     -10.147   5.355 131.608  0.00  0.00    +0.007 A 
ENDBRANCH  33  34
ENDBRANCH  32  33
ENDBRANCH  13  32
TORSDOF 9
ENDMDL
MODEL 3
REMARK VINA RESULT:      -9.2      3.585      7.415
REMARK  Name = NuBBE_2002
REMARK  12 active torsions:
REMARK  status: ('A' for Active; 'I' for Inactive)
REMARK    1  A    between atoms: C_1  and  C_2
REMARK    2  A    between atoms: C_7  and  C_9
REMARK    3  A    between atoms: C_12  and  O_13
REMARK    4  A    between atoms: O_13  and  C_14
REMARK    5  A    between atoms: C_14  and  C_15
REMARK    6  A    between atoms: C_21  and  O_22
REMARK    7  A    between atoms: O_22  and  C_23
REMARK    8  A    between atoms: C_27  and  O_28
REMARK    9  A    between atoms: C_29  and  C_30
REMARK   10  A    between atoms: C_31  and  O_32
REMARK   11  A    between atoms: O_32  and  C_33
REMARK   12  A    between atoms: C_33  and  C_34
REMARK                            x       y       z     vdW  Elec       q    Type
REMARK                         _______ _______ _______ _____ _____    ______ ____
ROOT
ATOM      1  C   LIG A   1      -7.493   1.427 132.539  0.00  0.00    +0.051 C 
ATOM      2  C   LIG A   1      -7.749   2.206 131.276  0.00  0.00    +0.034 A 
ATOM      3  C   LIG A   1      -8.058   3.620 131.346  0.00  0.00    +0.142 A 
ATOM      4  C   LIG A   1      -8.438   4.374 130.222  0.00  0.00    +0.101 A 
ATOM      5  C   LIG A   1      -8.784   5.820 130.320  0.00  0.00    +0.174 C 
ATOM      6  C   LIG A   1      -8.597   6.434 131.676  0.00  0.00    +0.129 C 
ATOM      7  C   LIG A   1      -7.471   5.671 132.381  0.00  0.00    +0.211 C 
ATOM      8  O   LIG A   1      -7.863   4.276 132.553  0.00  0.00    -0.483 OA
ATOM      9  O   LIG A   1      -9.221   6.473 129.341  0.00  0.00    -0.292 OA
ATOM     10  C   LIG A   1      -8.430   3.746 128.998  0.00  0.00    +0.137 A 
ATOM     11  C   LIG A   1      -8.040   2.379 128.874  0.00  0.00    +0.034 A 
ATOM     12  C   LIG A   1      -8.044   1.888 127.457  0.00  0.00    +0.051 C 
ATOM     13  C   LIG A   1      -7.678   1.579 130.009  0.00  0.00    +0.134 A 
ENDROOT
BRANCH   7  14
ATOM     14  C   LIG A   1      -6.077   5.849 131.758  0.00  0.00    -0.003 A 
ATOM     15  C   LIG A   1      -5.055   4.906 131.890  0.00  0.00    +0.011 A 
ATOM     16  C   LIG A   1      -3.833   5.094 131.244  0.00  0.00    +0.050 A 
ATOM     17  C   LIG A   1      -3.602   6.200 130.414  0.00  0.00    +0.162 A 
ATOM     18  C   LIG A   1      -4.608   7.177 130.285  0.00  0.00    +0.162 A 
ATOM     19  C   LIG A   1      -5.817   6.981 130.971  0.00  0.00    +0.056 A 
BRANCH  18  20
ATOM     20  O   LIG A   1      -4.427   8.270 129.477  0.00  0.00    -0.491 OA
ATOM     21  C   LIG A   1      -3.755   9.416 130.004  0.00  0.00    +0.277 C 
ENDBRANCH  18  20
BRANCH  17  22
ATOM     22  O   LIG A   1      -2.390   6.092 129.781  0.00  0.00    -0.484 OA
BRANCH  22  23
ATOM     23  C   LIG A   1      -2.338   6.209 128.369  0.00  0.00    +0.264 C 
BRANCH  23  24
ATOM     24  C   LIG A   1      -3.043   5.044 127.709  0.00  0.00    -0.010 A 
ATOM     25  C   LIG A   1      -4.359   5.167 127.230  0.00  0.00    +0.007 A 
ATOM     26  C   LIG A   1      -4.953   4.117 126.523  0.00  0.00    +0.000 A 
ATOM     27  C   LIG A   1      -4.242   2.941 126.291  0.00  0.00    +0.000 A 
ATOM     28  C   LIG A   1      -2.939   2.810 126.767  0.00  0.00    +0.000 A 
ATOM     29  C   LIG A   1      -2.344   3.856 127.469  0.00  0.00    +0.007 A 
ENDBRANCH  23  24
ENDBRANCH  22  23
ENDBRANCH  17  22
ENDBRANCH   7  14
BRANCH  10  30
ATOM     30  O   LIG A   1      -8.740   4.442 127.852  0.00  0.00    -0.506 OA
ATOM     31  H   LIG A   1      -8.178   5.250 127.796  0.00  0.00    +0.292 HD
ENDBRANCH  10  30
BRANCH  13  32
ATOM     32  O   LIG A   1      -7.002   0.377 129.772  0.00  0.00    -0.487 OA
BRANCH  32  33
ATOM     33  C   LIG A   1      -7.508  -0.955 130.105  0.00  0.00    +0.264 C 
BRANCH  33  34
ATOM     34  C   LIG A   1      -7.771  -1.946 128.923  0.00  0.00    -0.010 A 
ATOM     35  C   LIG A   1      -7.565  -1.611 127.568  0.00  0.00    +0.007 A 
ATOM     36  C   LIG A   1      -7.989  -2.472 126.519  0.00  0.00    +0.000 A 
ATOM     37  C   LIG A   1      -8.765  -3.591 126.801  0.00  0.00    +0.000 A 
ATOM     38  C   LIG A   1      -8.952  -3.945 128.128  0.00  0.00    +0.000 A 
ATOM     39  C   LIG A   1      -8.327  -3.194 129.135  0.00  0.00    +0.007 A 
ENDBRANCH  33  34
ENDBRANCH  32  33
ENDBRANCH  13  32
TORSDOF 9
ENDMDL
MODEL 4
REMARK VINA RESULT:      -9.2      2.920      5.820
REMARK  Name = NuBBE_2002
REMARK  12 active torsions:
REMARK  status: ('A' for Active; 'I' for Inactive)
REMARK    1  A    between atoms: C_1  and  C_2
REMARK    2  A    between atoms: C_7  and  C_9
REMARK    3  A    between atoms: C_12  and  O_13
REMARK    4  A    between atoms: O_13  and  C_14
REMARK    5  A    between atoms: C_14  and  C_15
REMARK    6  A    between atoms: C_21  and  O_22
REMARK    7  A    between atoms: O_22  and  C_23
REMARK    8  A    between atoms: C_27  and  O_28
REMARK    9  A    between atoms: C_29  and  C_30
REMARK   10  A    between atoms: C_31  and  O_32
REMARK   11  A    between atoms: O_32  and  C_33
REMARK   12  A    between atoms: C_33  and  C_34
REMARK                            x       y       z     vdW  Elec       q    Type
REMARK                         _______ _______ _______ _____ _____    ______ ____
ROOT
ATOM      1  C   LIG A   1      -4.155   0.533 130.805  0.00  0.00    +0.051 C 
ATOM      2  C   LIG A   1      -4.900   1.801 130.481  0.00  0.00    +0.034 A 
ATOM      3  C   LIG A   1      -4.310   2.784 129.594  0.00  0.00    +0.142 A 
ATOM      4  C   LIG A   1      -4.888   4.042 129.357  0.00  0.00    +0.101 A 
ATOM      5  C   LIG A   1      -4.249   5.052 128.467  0.00  0.00    +0.174 C 
ATOM      6  C   LIG A   1      -3.006   4.592 127.765  0.00  0.00    +0.129 C 
ATOM      7  C   LIG A   1      -3.118   3.077 127.565  0.00  0.00    +0.211 C 
ATOM      8  O   LIG A   1      -3.186   2.420 128.867  0.00  0.00    -0.483 OA
ATOM      9  O   LIG A   1      -4.707   6.212 128.332  0.00  0.00    -0.292 OA
ATOM     10  C   LIG A   1      -6.110   4.303 129.935  0.00  0.00    +0.137 A 
ATOM     11  C   LIG A   1      -6.769   3.326 130.738  0.00  0.00    +0.034 A 
ATOM     12  C   LIG A   1      -8.111   3.775 131.235  0.00  0.00    +0.051 C 
ATOM     13  C   LIG A   1      -6.186   2.046 131.021  0.00  0.00    +0.134 A 
ENDROOT
BRANCH   7  14
ATOM     14  C   LIG A   1      -4.218   2.629 126.589  0.00  0.00    -0.003 A 
ATOM     15  C   LIG A   1      -4.834   1.377 126.654  0.00  0.00    +0.011 A 
ATOM     16  C   LIG A   1      -5.874   1.056 125.781  0.00  0.00    +0.050 A 
ATOM     17  C   LIG A   1      -6.362   1.981 124.846  0.00  0.00    +0.162 A 
ATOM     18  C   LIG A   1      -5.740   3.240 124.744  0.00  0.00    +0.162 A 
ATOM     19  C   LIG A   1      -4.674   3.527 125.612  0.00  0.00    +0.056 A 
BRANCH  18  20
ATOM     20  O   LIG A   1      -6.190   4.176 123.850  0.00  0.00    -0.491 OA
ATOM     21  C   LIG A   1      -5.743   4.108 122.494  0.00  0.00    +0.277 C 
ENDBRANCH  18  20
BRANCH  17  22
ATOM     22  O   LIG A   1      -7.471   1.489 124.206  0.00  0.00    -0.484 OA
BRANCH  22  23
ATOM     23  C   LIG A   1      -7.301   0.571 123.140  0.00  0.00    +0.264 C 
BRANCH  23  24
ATOM     24  C   LIG A   1      -7.548  -0.847 123.610  0.00  0.00    -0.010 A 
ATOM     25  C   LIG A   1      -8.853  -1.349 123.752  0.00  0.00    +0.007 A 
ATOM     26  C   LIG A   1      -9.060  -2.693 124.078  0.00  0.00    +0.000 A 
ATOM     27  C   LIG A   1      -7.970  -3.542 124.266  0.00  0.00    +0.000 A 
ATOM     28  C   LIG A   1      -6.674  -3.050 124.130  0.00  0.00    +0.000 A 
ATOM     29  C   LIG A   1      -6.466  -1.711 123.803  0.00  0.00    +0.007 A 
ENDBRANCH  23  24
ENDBRANCH  22  23
ENDBRANCH  17  22
ENDBRANCH   7  14
BRANCH  10  30
ATOM     30  O   LIG A   1      -6.754   5.496 129.699  0.00  0.00    -0.506 OA
ATOM     31  H   LIG A   1      -7.200   5.798 130.525  0.00  0.00    +0.292 HD
ENDBRANCH  10  30
BRANCH  13  32
ATOM     32  O   LIG A   1      -7.023   1.044 131.525  0.00  0.00    -0.487 OA
BRANCH  32  33
ATOM     33  C   LIG A   1      -8.148   0.446 130.808  0.00  0.00    +0.264 C 
BRANCH  33  34
ATOM     34  C   LIG A   1      -7.835  -0.725 129.818  0.00  0.00    -0.010 A 
ATOM     35  C   LIG A   1      -7.640  -0.541 128.433  0.00  0.00    +0.007 A 
ATOM     36  C   LIG A   1      -7.542  -1.647 127.544  0.00  0.00    +0.000 A 
ATOM     37  C   LIG A   1      -7.801  -2.935 127.997  0.00  0.00    +0.000 A 
ATOM     38  C   LIG A   1      -7.969  -3.132 129.359  0.00  0.00    +0.000 A 
ATOM     39  C   LIG A   1      -7.835  -2.044 130.234  0.00  0.00    +0.007 A 
ENDBRANCH  33  34
ENDBRANCH  32  33
ENDBRANCH  13  32
TORSDOF 9
ENDMDL
MODEL 5
REMARK VINA RESULT:      -9.1      3.934      6.857
REMARK  Name = NuBBE_2002
REMARK  12 active torsions:
REMARK  status: ('A' for Active; 'I' for Inactive)
REMARK    1  A    between atoms: C_1  and  C_2
REMARK    2  A    between atoms: C_7  and  C_9
REMARK    3  A    between atoms: C_12  and  O_13
REMARK    4  A    between atoms: O_13  and  C_14
REMARK    5  A    between atoms: C_14  and  C_15
REMARK    6  A    between atoms: C_21  and  O_22
REMARK    7  A    between atoms: O_22  and  C_23
REMARK    8  A    between atoms: C_27  and  O_28
REMARK    9  A    between atoms: C_29  and  C_30
REMARK   10  A    between atoms: C_31  and  O_32
REMARK   11  A    between atoms: O_32  and  C_33
REMARK   12  A    between atoms: C_33  and  C_34
REMARK                            x       y       z     vdW  Elec       q    Type
REMARK                         _______ _______ _______ _____ _____    ______ ____
ROOT
ATOM      1  C   LIG A   1      -5.033   0.720 130.977  0.00  0.00    +0.051 C 
ATOM      2  C   LIG A   1      -6.342   1.382 130.637  0.00  0.00    +0.034 A 
ATOM      3  C   LIG A   1      -6.469   2.158 129.419  0.00  0.00    +0.142 A 
ATOM      4  C   LIG A   1      -7.615   2.910 129.109  0.00  0.00    +0.101 A 
ATOM      5  C   LIG A   1      -7.714   3.727 127.868  0.00  0.00    +0.174 C 
ATOM      6  C   LIG A   1      -6.551   3.607 126.927  0.00  0.00    +0.129 C 
ATOM      7  C   LIG A   1      -5.950   2.209 127.105  0.00  0.00    +0.211 C 
ATOM      8  O   LIG A   1      -5.459   2.062 128.473  0.00  0.00    -0.483 OA
ATOM      9  O   LIG A   1      -8.691   4.479 127.635  0.00  0.00    -0.292 OA
ATOM     10  C   LIG A   1      -8.686   2.827 129.970  0.00  0.00    +0.137 A 
ATOM     11  C   LIG A   1      -8.635   2.000 131.132  0.00  0.00    +0.034 A 
ATOM     12  C   LIG A   1      -9.914   2.000 131.915  0.00  0.00    +0.051 C 
ATOM     13  C   LIG A   1      -7.466   1.247 131.486  0.00  0.00    +0.134 A 
ENDROOT
BRANCH   7  14
ATOM     14  C   LIG A   1      -6.851   1.051 126.645  0.00  0.00    -0.003 A 
ATOM     15  C   LIG A   1      -6.665  -0.272 127.056  0.00  0.00    +0.011 A 
ATOM     16  C   LIG A   1      -7.557  -1.267 126.657  0.00  0.00    +0.050 A 
ATOM     17  C   LIG A   1      -8.684  -0.974 125.873  0.00  0.00    +0.162 A 
ATOM     18  C   LIG A   1      -8.878   0.347 125.426  0.00  0.00    +0.162 A 
ATOM     19  C   LIG A   1      -7.948   1.324 125.815  0.00  0.00    +0.056 A 
BRANCH  18  20
ATOM     20  O   LIG A   1      -9.971   0.678 124.666  0.00  0.00    -0.491 OA
ATOM     21  C   LIG A   1      -9.766   1.168 123.339  0.00  0.00    +0.277 C 
ENDBRANCH  18  20
BRANCH  17  22
ATOM     22  O   LIG A   1      -9.482  -2.081 125.733  0.00  0.00    -0.484 OA
BRANCH  22  23
ATOM     23  C   LIG A   1      -9.453  -2.799 124.512  0.00  0.00    +0.264 C 
BRANCH  23  24
ATOM     24  C   LIG A   1      -8.049  -2.841 123.949  0.00  0.00    -0.010 A 
ATOM     25  C   LIG A   1      -7.626  -1.919 122.976  0.00  0.00    +0.007 A 
ATOM     26  C   LIG A   1      -6.294  -1.902 122.551  0.00  0.00    +0.000 A 
ATOM     27  C   LIG A   1      -5.378  -2.803 123.090  0.00  0.00    +0.000 A 
ATOM     28  C   LIG A   1      -5.790  -3.723 124.052  0.00  0.00    +0.000 A 
ATOM     29  C   LIG A   1      -7.116  -3.740 124.479  0.00  0.00    +0.007 A 
ENDBRANCH  23  24
ENDBRANCH  22  23
ENDBRANCH  17  22
ENDBRANCH   7  14
BRANCH  10  30
ATOM     30  O   LIG A   1      -9.857   3.497 129.697  0.00  0.00    -0.506 OA
ATOM     31  H   LIG A   1      -9.776   4.434 129.992  0.00  0.00    +0.292 HD
ENDBRANCH  10  30
BRANCH  13  32
ATOM     32  O   LIG A   1      -7.610   0.225 132.432  0.00  0.00    -0.487 OA
BRANCH  32  33
ATOM     33  C   LIG A   1      -8.221  -1.079 132.178  0.00  0.00    +0.264 C 
BRANCH  33  34
ATOM     34  C   LIG A   1      -7.372  -2.136 131.397  0.00  0.00    -0.010 A 
ATOM     35  C   LIG A   1      -7.683  -2.572 130.092  0.00  0.00    +0.007 A 
ATOM     36  C   LIG A   1      -6.997  -3.664 129.492  0.00  0.00    +0.000 A 
ATOM     37  C   LIG A   1      -6.115  -4.434 130.241  0.00  0.00    +0.000 A 
ATOM     38  C   LIG A   1      -5.782  -4.002 131.516  0.00  0.00    +0.000 A 
ATOM     39  C   LIG A   1      -6.309  -2.792 131.991  0.00  0.00    +0.007 A 
ENDBRANCH  33  34
ENDBRANCH  32  33
ENDBRANCH  13  32
TORSDOF 9
ENDMDL
MODEL 6
REMARK VINA RESULT:      -9.1      1.320      2.076
REMARK  Name = NuBBE_2002
REMARK  12 active torsions:
REMARK  status: ('A' for Active; 'I' for Inactive)
REMARK    1  A    between atoms: C_1  and  C_2
REMARK    2  A    between atoms: C_7  and  C_9
REMARK    3  A    between atoms: C_12  and  O_13
REMARK    4  A    between atoms: O_13  and  C_14
REMARK    5  A    between atoms: C_14  and  C_15
REMARK    6  A    between atoms: C_21  and  O_22
REMARK    7  A    between atoms: O_22  and  C_23
REMARK    8  A    between atoms: C_27  and  O_28
REMARK    9  A    between atoms: C_29  and  C_30
REMARK   10  A    between atoms: C_31  and  O_32
REMARK   11  A    between atoms: O_32  and  C_33
REMARK   12  A    between atoms: C_33  and  C_34
REMARK                            x       y       z     vdW  Elec       q    Type
REMARK                         _______ _______ _______ _____ _____    ______ ____
ROOT
ATOM      1  C   LIG A   1      -9.784   1.986 131.743  0.00  0.00    +0.051 C 
ATOM      2  C   LIG A   1      -8.764   3.030 131.372  0.00  0.00    +0.034 A 
ATOM      3  C   LIG A   1      -7.440   2.630 130.942  0.00  0.00    +0.142 A 
ATOM      4  C   LIG A   1      -6.402   3.550 130.711  0.00  0.00    +0.101 A 
ATOM      5  C   LIG A   1      -5.038   3.116 130.300  0.00  0.00    +0.174 C 
ATOM      6  C   LIG A   1      -4.880   1.645 130.052  0.00  0.00    +0.129 C 
ATOM      7  C   LIG A   1      -6.235   1.104 129.584  0.00  0.00    +0.211 C 
ATOM      8  O   LIG A   1      -7.224   1.293 130.641  0.00  0.00    -0.483 OA
ATOM      9  O   LIG A   1      -4.082   3.922 130.192  0.00  0.00    -0.292 OA
ATOM     10  C   LIG A   1      -6.699   4.889 130.821  0.00  0.00    +0.137 A 
ATOM     11  C   LIG A   1      -8.016   5.327 131.151  0.00  0.00    +0.034 A 
ATOM     12  C   LIG A   1      -8.156   6.820 131.173  0.00  0.00    +0.051 C 
ATOM     13  C   LIG A   1      -9.085   4.408 131.421  0.00  0.00    +0.134 A 
ENDROOT
BRANCH   7  14
ATOM     14  C   LIG A   1      -6.697   1.610 128.207  0.00  0.00    -0.003 A 
ATOM     15  C   LIG A   1      -8.025   1.548 127.777  0.00  0.00    +0.011 A 
ATOM     16  C   LIG A   1      -8.393   2.086 126.544  0.00  0.00    +0.050 A 
ATOM     17  C   LIG A   1      -7.464   2.740 125.720  0.00  0.00    +0.162 A 
ATOM     18  C   LIG A   1      -6.116   2.794 126.121  0.00  0.00    +0.162 A 
ATOM     19  C   LIG A   1      -5.765   2.216 127.352  0.00  0.00    +0.056 A 
BRANCH  18  20
ATOM     20  O   LIG A   1      -5.178   3.431 125.350  0.00  0.00    -0.491 OA
ATOM     21  C   LIG A   1      -3.908   3.745 125.926  0.00  0.00    +0.277 C 
ENDBRANCH  18  20
BRANCH  17  22
ATOM     22  O   LIG A   1      -8.087   3.308 124.637  0.00  0.00    -0.484 OA
BRANCH  22  23
ATOM     23  C   LIG A   1      -8.364   2.504 123.503  0.00  0.00    +0.264 C 
BRANCH  23  24
ATOM     24  C   LIG A   1      -7.832   3.154 122.243  0.00  0.00    -0.010 A 
ATOM     25  C   LIG A   1      -6.451   3.289 122.021  0.00  0.00    +0.007 A 
ATOM     26  C   LIG A   1      -5.977   3.788 120.804  0.00  0.00    +0.000 A 
ATOM     27  C   LIG A   1      -6.875   4.156 119.804  0.00  0.00    +0.000 A 
ATOM     28  C   LIG A   1      -8.246   4.028 120.018  0.00  0.00    +0.000 A 
ATOM     29  C   LIG A   1      -8.720   3.529 121.229  0.00  0.00    +0.007 A 
ENDBRANCH  23  24
ENDBRANCH  22  23
ENDBRANCH  17  22
ENDBRANCH   7  14
BRANCH  10  30
ATOM     30  O   LIG A   1      -5.742   5.842 130.557  0.00  0.00    -0.506 OA
ATOM     31  H   LIG A   1      -6.075   6.459 129.864  0.00  0.00    +0.292 HD
ENDBRANCH  10  30
BRANCH  13  32
ATOM     32  O   LIG A   1     -10.393   4.905 131.407  0.00  0.00    -0.487 OA
BRANCH  32  33
ATOM     33  C   LIG A   1     -11.208   5.097 130.207  0.00  0.00    +0.264 C 
BRANCH  33  34
ATOM     34  C   LIG A   1     -11.608   6.563 129.831  0.00  0.00    -0.010 A 
ATOM     35  C   LIG A   1     -12.311   7.423 130.700  0.00  0.00    +0.007 A 
ATOM     36  C   LIG A   1     -12.815   8.676 130.254  0.00  0.00    +0.000 A 
ATOM     37  C   LIG A   1     -12.768   9.012 128.907  0.00  0.00    +0.000 A 
ATOM     38  C   LIG A   1     -12.058   8.187 128.047  0.00  0.00    +0.000 A 
ATOM     39  C   LIG A   1     -11.382   7.073 128.566  0.00  0.00    +0.007 A 
ENDBRANCH  33  34
ENDBRANCH  32  33
ENDBRANCH  13  32
TORSDOF 9
ENDMDL
MODEL 7
REMARK VINA RESULT:      -9.1      3.916      8.228
REMARK  Name = NuBBE_2002
REMARK  12 active torsions:
REMARK  status: ('A' for Active; 'I' for Inactive)
REMARK    1  A    between atoms: C_1  and  C_2
REMARK    2  A    between atoms: C_7  and  C_9
REMARK    3  A    between atoms: C_12  and  O_13
REMARK    4  A    between atoms: O_13  and  C_14
REMARK    5  A    between atoms: C_14  and  C_15
REMARK    6  A    between atoms: C_21  and  O_22
REMARK    7  A    between atoms: O_22  and  C_23
REMARK    8  A    between atoms: C_27  and  O_28
REMARK    9  A    between atoms: C_29  and  C_30
REMARK   10  A    between atoms: C_31  and  O_32
REMARK   11  A    between atoms: O_32  and  C_33
REMARK   12  A    between atoms: C_33  and  C_34
REMARK                            x       y       z     vdW  Elec       q    Type
REMARK                         _______ _______ _______ _____ _____    ______ ____
ROOT
ATOM      1  C   LIG A   1      -8.929   1.531 132.225  0.00  0.00    +0.051 C 
ATOM      2  C   LIG A   1      -8.696   2.333 130.972  0.00  0.00    +0.034 A 
ATOM      3  C   LIG A   1      -9.073   3.732 130.924  0.00  0.00    +0.142 A 
ATOM      4  C   LIG A   1      -9.009   4.499 129.749  0.00  0.00    +0.101 A 
ATOM      5  C   LIG A   1      -9.433   5.927 129.712  0.00  0.00    +0.174 C 
ATOM      6  C   LIG A   1      -9.831   6.512 131.035  0.00  0.00    +0.129 C 
ATOM      7  C   LIG A   1      -9.044   5.776 132.125  0.00  0.00    +0.211 C 
ATOM      8  O   LIG A   1      -9.406   4.362 132.114  0.00  0.00    -0.483 OA
ATOM      9  O   LIG A   1      -9.474   6.587 128.646  0.00  0.00    -0.292 OA
ATOM     10  C   LIG A   1      -8.484   3.904 128.624  0.00  0.00    +0.137 A 
ATOM     11  C   LIG A   1      -8.014   2.557 128.655  0.00  0.00    +0.034 A 
ATOM     12  C   LIG A   1      -7.429   2.104 127.350  0.00  0.00    +0.051 C 
ATOM     13  C   LIG A   1      -8.096   1.743 129.833  0.00  0.00    +0.134 A 
ENDROOT
BRANCH   7  14
ATOM     14  C   LIG A   1      -7.527   6.026 132.112  0.00  0.00    -0.003 A 
ATOM     15  C   LIG A   1      -6.893   6.830 131.161  0.00  0.00    +0.011 A 
ATOM     16  C   LIG A   1      -5.521   7.072 131.243  0.00  0.00    +0.050 A 
ATOM     17  C   LIG A   1      -4.745   6.560 132.294  0.00  0.00    +0.162 A 
ATOM     18  C   LIG A   1      -5.357   5.726 133.250  0.00  0.00    +0.162 A 
ATOM     19  C   LIG A   1      -6.732   5.471 133.126  0.00  0.00    +0.056 A 
BRANCH  18  20
ATOM     20  O   LIG A   1      -4.638   5.212 134.297  0.00  0.00    -0.491 OA
ATOM     21  C   LIG A   1      -4.476   6.000 135.478  0.00  0.00    +0.277 C 
ENDBRANCH  18  20
BRANCH  17  22
ATOM     22  O   LIG A   1      -3.465   7.049 132.239  0.00  0.00    -0.484 OA
BRANCH  22  23
ATOM     23  C   LIG A   1      -2.402   6.163 131.935  0.00  0.00    +0.264 C 
BRANCH  23  24
ATOM     24  C   LIG A   1      -2.517   5.657 130.513  0.00  0.00    -0.010 A 
ATOM     25  C   LIG A   1      -3.043   4.384 130.234  0.00  0.00    +0.007 A 
ATOM     26  C   LIG A   1      -3.247   3.979 128.911  0.00  0.00    +0.000 A 
ATOM     27  C   LIG A   1      -2.926   4.838 127.861  0.00  0.00    +0.000 A 
ATOM     28  C   LIG A   1      -2.401   6.100 128.130  0.00  0.00    +0.000 A 
ATOM     29  C   LIG A   1      -2.199   6.506 129.447  0.00  0.00    +0.007 A 
ENDBRANCH  23  24
ENDBRANCH  22  23
ENDBRANCH  17  22
ENDBRANCH   7  14
BRANCH  10  30
ATOM     30  O   LIG A   1      -8.345   4.617 127.456  0.00  0.00    -0.506 OA
ATOM     31  H   LIG A   1      -8.355   3.997 126.689  0.00  0.00    +0.292 HD
ENDBRANCH  10  30
BRANCH  13  32
ATOM     32  O   LIG A   1      -7.326   0.575 129.875  0.00  0.00    -0.487 OA
BRANCH  32  33
ATOM     33  C   LIG A   1      -7.840  -0.763 130.168  0.00  0.00    +0.264 C 
BRANCH  33  34
ATOM     34  C   LIG A   1      -7.956  -1.771 128.977  0.00  0.00    -0.010 A 
ATOM     35  C   LIG A   1      -7.789  -1.398 127.626  0.00  0.00    +0.007 A 
ATOM     36  C   LIG A   1      -8.084  -2.301 126.567  0.00  0.00    +0.000 A 
ATOM     37  C   LIG A   1      -8.699  -3.518 126.833  0.00  0.00    +0.000 A 
ATOM     38  C   LIG A   1      -8.845  -3.906 128.157  0.00  0.00    +0.000 A 
ATOM     39  C   LIG A   1      -8.336  -3.085 129.174  0.00  0.00    +0.007 A 
ENDBRANCH  33  34
ENDBRANCH  32  33
ENDBRANCH  13  32
TORSDOF 9
ENDMDL
MODEL 8
REMARK VINA RESULT:      -9.0      3.895      8.866
REMARK  Name = NuBBE_2002
REMARK  12 active torsions:
REMARK  status: ('A' for Active; 'I' for Inactive)
REMARK    1  A    between atoms: C_1  and  C_2
REMARK    2  A    between atoms: C_7  and  C_9
REMARK    3  A    between atoms: C_12  and  O_13
REMARK    4  A    between atoms: O_13  and  C_14
REMARK    5  A    between atoms: C_14  and  C_15
REMARK    6  A    between atoms: C_21  and  O_22
REMARK    7  A    between atoms: O_22  and  C_23
REMARK    8  A    between atoms: C_27  and  O_28
REMARK    9  A    between atoms: C_29  and  C_30
REMARK   10  A    between atoms: C_31  and  O_32
REMARK   11  A    between atoms: O_32  and  C_33
REMARK   12  A    between atoms: C_33  and  C_34
REMARK                            x       y       z     vdW  Elec       q    Type
REMARK                         _______ _______ _______ _____ _____    ______ ____
ROOT
ATOM      1  C   LIG A   1      -9.015   0.689 126.200  0.00  0.00    +0.051 C 
ATOM      2  C   LIG A   1      -7.878   1.484 126.785  0.00  0.00    +0.034 A 
ATOM      3  C   LIG A   1      -8.128   2.436 127.848  0.00  0.00    +0.142 A 
ATOM      4  C   LIG A   1      -7.140   3.304 128.344  0.00  0.00    +0.101 A 
ATOM      5  C   LIG A   1      -7.426   4.298 129.416  0.00  0.00    +0.174 C 
ATOM      6  C   LIG A   1      -8.808   4.235 129.997  0.00  0.00    +0.129 C 
ATOM      7  C   LIG A   1      -9.295   2.787 129.883  0.00  0.00    +0.211 C 
ATOM      8  O   LIG A   1      -9.366   2.408 128.475  0.00  0.00    -0.483 OA
ATOM      9  O   LIG A   1      -6.577   5.143 129.791  0.00  0.00    -0.292 OA
ATOM     10  C   LIG A   1      -5.865   3.172 127.844  0.00  0.00    +0.137 A 
ATOM     11  C   LIG A   1      -5.556   2.183 126.863  0.00  0.00    +0.034 A 
ATOM     12  C   LIG A   1      -4.106   2.160 126.481  0.00  0.00    +0.051 C 
ATOM     13  C   LIG A   1      -6.553   1.306 126.319  0.00  0.00    +0.134 A 
ENDROOT
BRANCH   7  14
ATOM     14  C   LIG A   1      -8.536   1.774 130.757  0.00  0.00    -0.003 A 
ATOM     15  C   LIG A   1      -8.200   0.490 130.322  0.00  0.00    +0.011 A 
ATOM     16  C   LIG A   1      -7.452  -0.358 131.139  0.00  0.00    +0.050 A 
ATOM     17  C   LIG A   1      -6.978   0.056 132.392  0.00  0.00    +0.162 A 
ATOM     18  C   LIG A   1      -7.325   1.337 132.863  0.00  0.00    +0.162 A 
ATOM     19  C   LIG A   1      -8.106   2.160 132.036  0.00  0.00    +0.056 A 
BRANCH  18  20
ATOM     20  O   LIG A   1      -6.875   1.785 134.078  0.00  0.00    -0.491 OA
ATOM     21  C   LIG A   1      -5.778   2.700 134.115  0.00  0.00    +0.277 C 
ENDBRANCH  18  20
BRANCH  17  22
ATOM     22  O   LIG A   1      -6.151  -0.892 132.940  0.00  0.00    -0.484 OA
BRANCH  22  23
ATOM     23  C   LIG A   1      -4.769  -0.864 132.628  0.00  0.00    +0.264 C 
BRANCH  23  24
ATOM     24  C   LIG A   1      -4.421  -1.958 131.641  0.00  0.00    -0.010 A 
ATOM     25  C   LIG A   1      -5.081  -3.198 131.666  0.00  0.00    +0.007 A 
ATOM     26  C   LIG A   1      -4.827  -4.154 130.678  0.00  0.00    +0.000 A 
ATOM     27  C   LIG A   1      -3.912  -3.880 129.662  0.00  0.00    +0.000 A 
ATOM     28  C   LIG A   1      -3.251  -2.655 129.633  0.00  0.00    +0.000 A 
ATOM     29  C   LIG A   1      -3.505  -1.700 130.615  0.00  0.00    +0.007 A 
ENDBRANCH  23  24
ENDBRANCH  22  23
ENDBRANCH  17  22
ENDBRANCH   7  14
BRANCH  10  30
ATOM     30  O   LIG A   1      -4.841   3.956 128.325  0.00  0.00    -0.506 OA
ATOM     31  H   LIG A   1      -5.035   4.216 129.256  0.00  0.00    +0.292 HD
ENDBRANCH  10  30
BRANCH  13  32
ATOM     32  O   LIG A   1      -6.116   0.170 125.627  0.00  0.00    -0.487 OA
BRANCH  32  33
ATOM     33  C   LIG A   1      -5.603  -1.050 126.250  0.00  0.00    +0.264 C 
BRANCH  33  34
ATOM     34  C   LIG A   1      -6.649  -2.104 126.744  0.00  0.00    -0.010 A 
ATOM     35  C   LIG A   1      -7.587  -2.725 125.892  0.00  0.00    +0.007 A 
ATOM     36  C   LIG A   1      -8.635  -3.535 126.409  0.00  0.00    +0.000 A 
ATOM     37  C   LIG A   1      -8.860  -3.601 127.779  0.00  0.00    +0.000 A 
ATOM     38  C   LIG A   1      -7.931  -3.016 128.627  0.00  0.00    +0.000 A 
ATOM     39  C   LIG A   1      -6.785  -2.417 128.083  0.00  0.00    +0.007 A 
ENDBRANCH  33  34
ENDBRANCH  32  33
ENDBRANCH  13  32
TORSDOF 9
ENDMDL
MODEL 9
REMARK VINA RESULT:      -9.0      3.587      4.477
REMARK  Name = NuBBE_2002
REMARK  12 active torsions:
REMARK  status: ('A' for Active; 'I' for Inactive)
REMARK    1  A    between atoms: C_1  and  C_2
REMARK    2  A    between atoms: C_7  and  C_9
REMARK    3  A    between atoms: C_12  and  O_13
REMARK    4  A    between atoms: O_13  and  C_14
REMARK    5  A    between atoms: C_14  and  C_15
REMARK    6  A    between atoms: C_21  and  O_22
REMARK    7  A    between atoms: O_22  and  C_23
REMARK    8  A    between atoms: C_27  and  O_28
REMARK    9  A    between atoms: C_29  and  C_30
REMARK   10  A    between atoms: C_31  and  O_32
REMARK   11  A    between atoms: O_32  and  C_33
REMARK   12  A    between atoms: C_33  and  C_34
REMARK                            x       y       z     vdW  Elec       q    Type
REMARK                         _______ _______ _______ _____ _____    ______ ____
ROOT
ATOM      1  C   LIG A   1     -10.444   3.692 130.406  0.00  0.00    +0.051 C 
ATOM      2  C   LIG A   1      -8.963   3.669 130.678  0.00  0.00    +0.034 A 
ATOM      3  C   LIG A   1      -8.319   2.438 131.088  0.00  0.00    +0.142 A 
ATOM      4  C   LIG A   1      -6.972   2.377 131.486  0.00  0.00    +0.101 A 
ATOM      5  C   LIG A   1      -6.337   1.106 131.936  0.00  0.00    +0.174 C 
ATOM      6  C   LIG A   1      -7.203  -0.115 131.833  0.00  0.00    +0.129 C 
ATOM      7  C   LIG A   1      -8.184   0.106 130.678  0.00  0.00    +0.211 C 
ATOM      8  O   LIG A   1      -9.034   1.255 130.976  0.00  0.00    -0.483 OA
ATOM      9  O   LIG A   1      -5.167   1.065 132.388  0.00  0.00    -0.292 OA
ATOM     10  C   LIG A   1      -6.226   3.529 131.397  0.00  0.00    +0.137 A 
ATOM     11  C   LIG A   1      -6.799   4.742 130.908  0.00  0.00    +0.034 A 
ATOM     12  C   LIG A   1      -5.817   5.873 130.835  0.00  0.00    +0.051 C 
ATOM     13  C   LIG A   1      -8.178   4.838 130.524  0.00  0.00    +0.134 A 
ENDROOT
BRANCH   7  14
ATOM     14  C   LIG A   1      -7.543   0.157 129.281  0.00  0.00    -0.003 A 
ATOM     15  C   LIG A   1      -6.325  -0.457 128.976  0.00  0.00    +0.011 A 
ATOM     16  C   LIG A   1      -5.829  -0.432 127.673  0.00  0.00    +0.050 A 
ATOM     17  C   LIG A   1      -6.545   0.165 126.624  0.00  0.00    +0.162 A 
ATOM     18  C   LIG A   1      -7.762   0.812 126.912  0.00  0.00    +0.162 A 
ATOM     19  C   LIG A   1      -8.224   0.801 128.237  0.00  0.00    +0.056 A 
BRANCH  18  20
ATOM     20  O   LIG A   1      -8.497   1.401 125.915  0.00  0.00    -0.491 OA
ATOM     21  C   LIG A   1      -9.477   0.621 125.227  0.00  0.00    +0.277 C 
ENDBRANCH  18  20
BRANCH  17  22
ATOM     22  O   LIG A   1      -5.928  -0.062 125.420  0.00  0.00    -0.484 OA
BRANCH  22  23
ATOM     23  C   LIG A   1      -5.653  -1.396 125.029  0.00  0.00    +0.264 C 
BRANCH  23  24
ATOM     24  C   LIG A   1      -6.885  -2.045 124.436  0.00  0.00    -0.010 A 
ATOM     25  C   LIG A   1      -7.649  -2.967 125.173  0.00  0.00    +0.007 A 
ATOM     26  C   LIG A   1      -8.844  -3.469 124.652  0.00  0.00    +0.000 A 
ATOM     27  C   LIG A   1      -9.285  -3.059 123.395  0.00  0.00    +0.000 A 
ATOM     28  C   LIG A   1      -8.532  -2.148 122.657  0.00  0.00    +0.000 A 
ATOM     29  C   LIG A   1      -7.341  -1.644 123.176  0.00  0.00    +0.007 A 
ENDBRANCH  23  24
ENDBRANCH  22  23
ENDBRANCH  17  22
ENDBRANCH   7  14
BRANCH  10  30
ATOM     30  O   LIG A   1      -4.889   3.524 131.721  0.00  0.00    -0.506 OA
ATOM     31  H   LIG A   1      -4.748   4.046 132.546  0.00  0.00    +0.292 HD
ENDBRANCH  10  30
BRANCH  13  32
ATOM     32  O   LIG A   1      -8.567   5.943 129.759  0.00  0.00    -0.487 OA
BRANCH  32  33
ATOM     33  C   LIG A   1      -9.176   7.163 130.289  0.00  0.00    +0.264 C 
BRANCH  33  34
ATOM     34  C   LIG A   1     -10.601   7.546 129.767  0.00  0.00    -0.010 A 
ATOM     35  C   LIG A   1     -11.796   7.107 130.376  0.00  0.00    +0.007 A 
ATOM     36  C   LIG A   1     -13.062   7.324 129.766  0.00  0.00    +0.000 A 
ATOM     37  C   LIG A   1     -13.140   7.828 128.474  0.00  0.00    +0.000 A 
ATOM     38  C   LIG A   1     -11.977   8.285 127.874  0.00  0.00    +0.000 A 
ATOM     39  C   LIG A   1     -10.775   8.263 128.597  0.00  0.00    +0.007 A 
ENDBRANCH  33  34
ENDBRANCH  32  33
ENDBRANCH  13  32
TORSDOF 9
ENDMDL
