MODEL 1
REMARK VINA RESULT:      -7.3      0.000      0.000
REMARK  Name = NuBBE_849
REMARK  2 active torsions:
REMARK  status: ('A' for Active; 'I' for Inactive)
REMARK    1  A    between atoms: CA_5  and  CB_7
REMARK    2  A    between atoms: CB_7  and  CG_8
REMARK                            x       y       z     vdW  Elec       q    Type
REMARK                         _______ _______ _______ _____ _____    ______ ____
ROOT
ATOM      1  CA  PRO A   2     -11.533   7.582 130.025  0.00  0.00    +0.162 C 
ATOM      2  C   PRO A   2     -12.112   6.771 131.180  0.00  0.00    +0.234 C 
ATOM      3  N   PHE A   1     -11.172   5.956 131.781  0.00  0.00    -0.302 N 
ATOM      4  CA  PHE A   1     -10.215   5.193 130.963  0.00  0.00    +0.163 C 
ATOM      5  O   PRO A   2     -13.192   6.994 131.714  0.00  0.00    -0.274 OA
ATOM      6  CB  PRO A   2     -12.534   8.142 129.029  0.00  0.00    +0.033 C 
ATOM      7  CG  PRO A   2     -11.642   8.462 127.825  0.00  0.00    +0.021 C 
ATOM      8  CD  PRO A   2     -10.566   7.376 127.846  0.00  0.00    +0.109 C 
ATOM      9  N   PRO A   2     -10.644   6.812 129.178  0.00  0.00    -0.288 N 
ATOM     10  C   PHE A   1      -9.711   5.946 129.708  0.00  0.00    +0.237 C 
ATOM     11  O   PHE A   1      -8.700   5.600 129.099  0.00  0.00    -0.274 OA
ATOM     12  H   PHE A   1     -11.521   5.488 132.610  0.00  0.00    +0.149 HD
ENDROOT
BRANCH   4  13
ATOM     13  CB  PHE A   1     -10.833   3.870 130.466  0.00  0.00    +0.067 C 
BRANCH  13  14
ATOM     14  CG  PHE A   1      -9.922   2.681 130.659  0.00  0.00    -0.045 A 
ATOM     15  CD1 PHE A   1      -9.018   2.307 129.655  0.00  0.00    +0.003 A 
ATOM     16  CE1 PHE A   1      -8.187   1.200 129.831  0.00  0.00    +0.000 A 
ATOM     17  CZ  PHE A   1      -8.249   0.460 131.011  0.00  0.00    +0.000 A 
ATOM     18  CE2 PHE A   1      -9.145   0.824 132.014  0.00  0.00    +0.000 A 
ATOM     19  CD2 PHE A   1      -9.980   1.928 131.839  0.00  0.00    +0.003 A 
ENDBRANCH  13  14
ENDBRANCH   4  13
TORSDOF 2
ENDMDL
MODEL 2
REMARK VINA RESULT:      -7.3      1.928      6.277
REMARK  Name = NuBBE_849
REMARK  2 active torsions:
REMARK  status: ('A' for Active; 'I' for Inactive)
REMARK    1  A    between atoms: CA_5  and  CB_7
REMARK    2  A    between atoms: CB_7  and  CG_8
REMARK                            x       y       z     vdW  Elec       q    Type
REMARK                         _______ _______ _______ _____ _____    ______ ____
ROOT
ATOM      1  CA  PRO A   2      -8.574   3.697 131.177  0.00  0.00    +0.162 C 
ATOM      2  C   PRO A   2      -9.095   3.958 129.767  0.00  0.00    +0.234 C 
ATOM      3  N   PHE A   1      -9.385   5.291 129.547  0.00  0.00    -0.302 N 
ATOM      4  CA  PHE A   1     -10.080   6.082 130.574  0.00  0.00    +0.163 C 
ATOM      5  O   PRO A   2      -9.015   3.164 128.837  0.00  0.00    -0.274 OA
ATOM      6  CB  PRO A   2      -8.660   2.262 131.669  0.00  0.00    +0.033 C 
ATOM      7  CG  PRO A   2      -8.516   2.435 133.184  0.00  0.00    +0.021 C 
ATOM      8  CD  PRO A   2      -9.201   3.769 133.485  0.00  0.00    +0.109 C 
ATOM      9  N   PRO A   2      -9.304   4.423 132.197  0.00  0.00    -0.288 N 
ATOM     10  C   PHE A   1      -9.665   5.743 132.026  0.00  0.00    +0.237 C 
ATOM     11  O   PHE A   1      -9.901   6.497 132.968  0.00  0.00    -0.274 OA
ATOM     12  H   PHE A   1      -9.637   5.491 128.585  0.00  0.00    +0.149 HD
ENDROOT
BRANCH   4  13
ATOM     13  CB  PHE A   1     -11.608   5.886 130.494  0.00  0.00    +0.067 C 
BRANCH  13  14
ATOM     14  CG  PHE A   1     -12.300   6.952 129.678  0.00  0.00    -0.045 A 
ATOM     15  CD1 PHE A   1     -12.180   8.305 130.024  0.00  0.00    +0.003 A 
ATOM     16  CE1 PHE A   1     -12.831   9.286 129.276  0.00  0.00    +0.000 A 
ATOM     17  CZ  PHE A   1     -13.607   8.925 128.176  0.00  0.00    +0.000 A 
ATOM     18  CE2 PHE A   1     -13.733   7.582 127.823  0.00  0.00    +0.000 A 
ATOM     19  CD2 PHE A   1     -13.086   6.599 128.573  0.00  0.00    +0.003 A 
ENDBRANCH  13  14
ENDBRANCH   4  13
TORSDOF 2
ENDMDL
MODEL 3
REMARK VINA RESULT:      -7.1      2.632      3.654
REMARK  Name = NuBBE_849
REMARK  2 active torsions:
REMARK  status: ('A' for Active; 'I' for Inactive)
REMARK    1  A    between atoms: CA_5  and  CB_7
REMARK    2  A    between atoms: CB_7  and  CG_8
REMARK                            x       y       z     vdW  Elec       q    Type
REMARK                         _______ _______ _______ _____ _____    ______ ____
ROOT
ATOM      1  CA  PRO A   2     -11.530   7.090 128.613  0.00  0.00    +0.162 C 
ATOM      2  C   PRO A   2     -10.193   6.372 128.451  0.00  0.00    +0.234 C 
ATOM      3  N   PHE A   1      -9.976   5.425 129.434  0.00  0.00    -0.302 N 
ATOM      4  CA  PHE A   1     -10.307   5.719 130.837  0.00  0.00    +0.163 C 
ATOM      5  O   PRO A   2      -9.504   6.405 127.438  0.00  0.00    -0.274 OA
ATOM      6  CB  PRO A   2     -11.669   8.421 127.896  0.00  0.00    +0.033 C 
ATOM      7  CG  PRO A   2     -12.865   9.050 128.618  0.00  0.00    +0.021 C 
ATOM      8  CD  PRO A   2     -12.743   8.558 130.061  0.00  0.00    +0.109 C 
ATOM      9  N   PRO A   2     -11.825   7.441 129.988  0.00  0.00    -0.288 N 
ATOM     10  C   PHE A   1     -11.592   6.561 131.025  0.00  0.00    +0.237 C 
ATOM     11  O   PHE A   1     -12.177   6.632 132.103  0.00  0.00    -0.274 OA
ATOM     12  H   PHE A   1      -9.138   4.875 129.280  0.00  0.00    +0.149 HD
ENDROOT
BRANCH   4  13
ATOM     13  CB  PHE A   1      -9.167   6.492 131.532  0.00  0.00    +0.067 C 
BRANCH  13  14
ATOM     14  CG  PHE A   1      -8.476   5.688 132.609  0.00  0.00    -0.045 A 
ATOM     15  CD1 PHE A   1      -7.111   5.869 132.867  0.00  0.00    +0.003 A 
ATOM     16  CE1 PHE A   1      -6.473   5.116 133.853  0.00  0.00    +0.000 A 
ATOM     17  CZ  PHE A   1      -7.193   4.177 134.590  0.00  0.00    +0.000 A 
ATOM     18  CE2 PHE A   1      -8.551   3.990 134.340  0.00  0.00    +0.000 A 
ATOM     19  CD2 PHE A   1      -9.191   4.739 133.352  0.00  0.00    +0.003 A 
ENDBRANCH  13  14
ENDBRANCH   4  13
TORSDOF 2
ENDMDL
MODEL 4
REMARK VINA RESULT:      -7.1      2.715      5.720
REMARK  Name = NuBBE_849
REMARK  2 active torsions:
REMARK  status: ('A' for Active; 'I' for Inactive)
REMARK    1  A    between atoms: CA_5  and  CB_7
REMARK    2  A    between atoms: CB_7  and  CG_8
REMARK                            x       y       z     vdW  Elec       q    Type
REMARK                         _______ _______ _______ _____ _____    ______ ____
ROOT
ATOM      1  CA  PRO A   2      -8.073   4.907 132.100  0.00  0.00    +0.162 C 
ATOM      2  C   PRO A   2      -9.391   4.398 132.678  0.00  0.00    +0.234 C 
ATOM      3  N   PHE A   1     -10.369   4.245 131.714  0.00  0.00    -0.302 N 
ATOM      4  CA  PHE A   1     -10.553   5.265 130.670  0.00  0.00    +0.163 C 
ATOM      5  O   PRO A   2      -9.518   3.912 133.795  0.00  0.00    -0.274 OA
ATOM      6  CB  PRO A   2      -7.104   5.533 133.087  0.00  0.00    +0.033 C 
ATOM      7  CG  PRO A   2      -6.168   6.317 132.162  0.00  0.00    +0.021 C 
ATOM      8  CD  PRO A   2      -7.065   6.787 131.016  0.00  0.00    +0.109 C 
ATOM      9  N   PRO A   2      -8.250   5.961 131.120  0.00  0.00    -0.288 N 
ATOM     10  C   PHE A   1      -9.235   5.894 130.158  0.00  0.00    +0.237 C 
ATOM     11  O   PHE A   1      -9.174   6.515 129.098  0.00  0.00    -0.274 OA
ATOM     12  H   PHE A   1     -11.215   3.815 132.070  0.00  0.00    +0.149 HD
ENDROOT
BRANCH   4  13
ATOM     13  CB  PHE A   1     -11.433   6.429 131.172  0.00  0.00    +0.067 C 
BRANCH  13  14
ATOM     14  CG  PHE A   1     -12.197   7.114 130.064  0.00  0.00    -0.045 A 
ATOM     15  CD1 PHE A   1     -12.334   8.509 130.051  0.00  0.00    +0.003 A 
ATOM     16  CE1 PHE A   1     -13.052   9.137 129.033  0.00  0.00    +0.000 A 
ATOM     17  CZ  PHE A   1     -13.638   8.380 128.020  0.00  0.00    +0.000 A 
ATOM     18  CE2 PHE A   1     -13.508   6.992 128.025  0.00  0.00    +0.000 A 
ATOM     19  CD2 PHE A   1     -12.794   6.360 129.044  0.00  0.00    +0.003 A 
ENDBRANCH  13  14
ENDBRANCH   4  13
TORSDOF 2
ENDMDL
MODEL 5
REMARK VINA RESULT:      -6.7      6.704      7.278
REMARK  Name = NuBBE_849
REMARK  2 active torsions:
REMARK  status: ('A' for Active; 'I' for Inactive)
REMARK    1  A    between atoms: CA_5  and  CB_7
REMARK    2  A    between atoms: CB_7  and  CG_8
REMARK                            x       y       z     vdW  Elec       q    Type
REMARK                         _______ _______ _______ _____ _____    ______ ____
ROOT
ATOM      1  CA  PRO A   2      -9.000   2.375 123.905  0.00  0.00    +0.162 C 
ATOM      2  C   PRO A   2     -10.027   1.371 124.421  0.00  0.00    +0.234 C 
ATOM      3  N   PHE A   1      -9.757   0.950 125.709  0.00  0.00    -0.302 N 
ATOM      4  CA  PHE A   1      -8.380   0.626 126.113  0.00  0.00    +0.163 C 
ATOM      5  O   PRO A   2     -11.115   1.158 123.898  0.00  0.00    -0.274 OA
ATOM      6  CB  PRO A   2      -8.930   2.550 122.397  0.00  0.00    +0.033 C 
ATOM      7  CG  PRO A   2      -7.562   3.216 122.217  0.00  0.00    +0.021 C 
ATOM      8  CD  PRO A   2      -6.692   2.612 123.319  0.00  0.00    +0.109 C 
ATOM      9  N   PRO A   2      -7.636   2.019 124.244  0.00  0.00    -0.288 N 
ATOM     10  C   PHE A   1      -7.302   1.550 125.497  0.00  0.00    +0.237 C 
ATOM     11  O   PHE A   1      -6.165   1.625 125.956  0.00  0.00    -0.274 OA
ATOM     12  H   PHE A   1     -10.486   0.361 126.096  0.00  0.00    +0.149 HD
ENDROOT
BRANCH   4  13
ATOM     13  CB  PHE A   1      -8.005  -0.817 125.717  0.00  0.00    +0.067 C 
BRANCH  13  14
ATOM     14  CG  PHE A   1      -8.171  -1.805 126.847  0.00  0.00    -0.045 A 
ATOM     15  CD1 PHE A   1      -7.657  -1.522 128.121  0.00  0.00    +0.003 A 
ATOM     16  CE1 PHE A   1      -7.801  -2.443 129.159  0.00  0.00    +0.000 A 
ATOM     17  CZ  PHE A   1      -8.460  -3.651 128.936  0.00  0.00    +0.000 A 
ATOM     18  CE2 PHE A   1      -8.974  -3.940 127.674  0.00  0.00    +0.000 A 
ATOM     19  CD2 PHE A   1      -8.828  -3.024 126.632  0.00  0.00    +0.003 A 
ENDBRANCH  13  14
ENDBRANCH   4  13
TORSDOF 2
ENDMDL
MODEL 6
REMARK VINA RESULT:      -6.7      2.065      6.037
REMARK  Name = NuBBE_849
REMARK  2 active torsions:
REMARK  status: ('A' for Active; 'I' for Inactive)
REMARK    1  A    between atoms: CA_5  and  CB_7
REMARK    2  A    between atoms: CB_7  and  CG_8
REMARK                            x       y       z     vdW  Elec       q    Type
REMARK                         _______ _______ _______ _____ _____    ______ ____
ROOT
ATOM      1  CA  PRO A   2      -8.777   3.578 132.588  0.00  0.00    +0.162 C 
ATOM      2  C   PRO A   2      -8.692   4.942 133.267  0.00  0.00    +0.234 C 
ATOM      3  N   PHE A   1      -9.828   5.704 133.072  0.00  0.00    -0.302 N 
ATOM      4  CA  PHE A   1     -10.471   5.758 131.750  0.00  0.00    +0.163 C 
ATOM      5  O   PRO A   2      -7.862   5.246 134.116  0.00  0.00    -0.274 OA
ATOM      6  CB  PRO A   2      -7.458   2.865 132.348  0.00  0.00    +0.033 C 
ATOM      7  CG  PRO A   2      -7.844   1.828 131.288  0.00  0.00    +0.021 C 
ATOM      8  CD  PRO A   2      -8.916   2.521 130.446  0.00  0.00    +0.109 C 
ATOM      9  N   PRO A   2      -9.347   3.641 131.257  0.00  0.00    -0.288 N 
ATOM     10  C   PHE A   1     -10.454   4.415 130.980  0.00  0.00    +0.237 C 
ATOM     11  O   PHE A   1     -11.199   4.198 130.027  0.00  0.00    -0.274 OA
ATOM     12  H   PHE A   1      -9.823   6.570 133.600  0.00  0.00    +0.149 HD
ENDROOT
BRANCH   4  13
ATOM     13  CB  PHE A   1      -9.791   6.799 130.837  0.00  0.00    +0.067 C 
BRANCH  13  14
ATOM     14  CG  PHE A   1     -10.750   7.461 129.877  0.00  0.00    -0.045 A 
ATOM     15  CD1 PHE A   1     -12.045   7.806 130.288  0.00  0.00    +0.003 A 
ATOM     16  CE1 PHE A   1     -12.933   8.406 129.394  0.00  0.00    +0.000 A 
ATOM     17  CZ  PHE A   1     -12.535   8.667 128.083  0.00  0.00    +0.000 A 
ATOM     18  CE2 PHE A   1     -11.250   8.327 127.665  0.00  0.00    +0.000 A 
ATOM     19  CD2 PHE A   1     -10.361   7.724 128.556  0.00  0.00    +0.003 A 
ENDBRANCH  13  14
ENDBRANCH   4  13
TORSDOF 2
ENDMDL
MODEL 7
REMARK VINA RESULT:      -6.6      7.951      9.922
REMARK  Name = NuBBE_849
REMARK  2 active torsions:
REMARK  status: ('A' for Active; 'I' for Inactive)
REMARK    1  A    between atoms: CA_5  and  CB_7
REMARK    2  A    between atoms: CB_7  and  CG_8
REMARK                            x       y       z     vdW  Elec       q    Type
REMARK                         _______ _______ _______ _____ _____    ______ ____
ROOT
ATOM      1  CA  PRO A   2      -8.307  -2.644 125.136  0.00  0.00    +0.162 C 
ATOM      2  C   PRO A   2      -8.798  -1.901 123.897  0.00  0.00    +0.234 C 
ATOM      3  N   PHE A   1      -7.809  -1.136 123.310  0.00  0.00    -0.302 N 
ATOM      4  CA  PHE A   1      -6.897  -0.333 124.140  0.00  0.00    +0.163 C 
ATOM      5  O   PRO A   2      -9.844  -2.146 123.308  0.00  0.00    -0.274 OA
ATOM      6  CB  PRO A   2      -9.378  -3.130 126.097  0.00  0.00    +0.033 C 
ATOM      7  CG  PRO A   2      -8.571  -3.382 127.374  0.00  0.00    +0.021 C 
ATOM      8  CD  PRO A   2      -7.480  -2.311 127.356  0.00  0.00    +0.109 C 
ATOM      9  N   PRO A   2      -7.463  -1.831 125.990  0.00  0.00    -0.288 N 
ATOM     10  C   PHE A   1      -6.486  -1.010 125.470  0.00  0.00    +0.237 C 
ATOM     11  O   PHE A   1      -5.512  -0.637 126.121  0.00  0.00    -0.274 OA
ATOM     12  H   PHE A   1      -8.096  -0.717 122.432  0.00  0.00    +0.149 HD
ENDROOT
BRANCH   4  13
ATOM     13  CB  PHE A   1      -7.526   1.026 124.512  0.00  0.00    +0.067 C 
BRANCH  13  14
ATOM     14  CG  PHE A   1      -6.775   2.203 123.937  0.00  0.00    -0.045 A 
ATOM     15  CD1 PHE A   1      -6.815   2.470 122.562  0.00  0.00    +0.003 A 
ATOM     16  CE1 PHE A   1      -6.109   3.552 122.033  0.00  0.00    +0.000 A 
ATOM     17  CZ  PHE A   1      -5.361   4.376 122.872  0.00  0.00    +0.000 A 
ATOM     18  CE2 PHE A   1      -5.315   4.118 124.240  0.00  0.00    +0.000 A 
ATOM     19  CD2 PHE A   1      -6.016   3.035 124.772  0.00  0.00    +0.003 A 
ENDBRANCH  13  14
ENDBRANCH   4  13
TORSDOF 2
ENDMDL
MODEL 8
REMARK VINA RESULT:      -6.5      6.777      9.184
REMARK  Name = NuBBE_849
REMARK  2 active torsions:
REMARK  status: ('A' for Active; 'I' for Inactive)
REMARK    1  A    between atoms: CA_5  and  CB_7
REMARK    2  A    between atoms: CB_7  and  CG_8
REMARK                            x       y       z     vdW  Elec       q    Type
REMARK                         _______ _______ _______ _____ _____    ______ ____
ROOT
ATOM      1  CA  PRO A   2      -5.848   3.378 126.980  0.00  0.00    +0.162 C 
ATOM      2  C   PRO A   2      -4.735   3.681 125.980  0.00  0.00    +0.234 C 
ATOM      3  N   PHE A   1      -5.158   4.496 124.947  0.00  0.00    -0.302 N 
ATOM      4  CA  PHE A   1      -6.464   4.272 124.307  0.00  0.00    +0.163 C 
ATOM      5  O   PRO A   2      -3.544   3.478 126.182  0.00  0.00    -0.274 OA
ATOM      6  CB  PRO A   2      -5.639   2.164 127.869  0.00  0.00    +0.033 C 
ATOM      7  CG  PRO A   2      -7.059   1.889 128.373  0.00  0.00    +0.021 C 
ATOM      8  CD  PRO A   2      -7.964   2.284 127.205  0.00  0.00    +0.109 C 
ATOM      9  N   PRO A   2      -7.119   3.089 126.347  0.00  0.00    -0.288 N 
ATOM     10  C   PHE A   1      -7.583   3.833 125.283  0.00  0.00    +0.237 C 
ATOM     11  O   PHE A   1      -8.774   3.906 124.988  0.00  0.00    -0.274 OA
ATOM     12  H   PHE A   1      -4.405   4.783 124.333  0.00  0.00    +0.149 HD
ENDROOT
BRANCH   4  13
ATOM     13  CB  PHE A   1      -6.375   3.182 123.218  0.00  0.00    +0.067 C 
BRANCH  13  14
ATOM     14  CG  PHE A   1      -6.400   3.743 121.816  0.00  0.00    -0.045 A 
ATOM     15  CD1 PHE A   1      -5.277   4.397 121.291  0.00  0.00    +0.003 A 
ATOM     16  CE1 PHE A   1      -5.308   4.925 120.000  0.00  0.00    +0.000 A 
ATOM     17  CZ  PHE A   1      -6.458   4.804 119.223  0.00  0.00    +0.000 A 
ATOM     18  CE2 PHE A   1      -7.580   4.156 119.736  0.00  0.00    +0.000 A 
ATOM     19  CD2 PHE A   1      -7.553   3.630 121.029  0.00  0.00    +0.003 A 
ENDBRANCH  13  14
ENDBRANCH   4  13
TORSDOF 2
ENDMDL
MODEL 9
REMARK VINA RESULT:      -6.4      7.478      8.732
REMARK  Name = NuBBE_849
REMARK  2 active torsions:
REMARK  status: ('A' for Active; 'I' for Inactive)
REMARK    1  A    between atoms: CA_5  and  CB_7
REMARK    2  A    between atoms: CB_7  and  CG_8
REMARK                            x       y       z     vdW  Elec       q    Type
REMARK                         _______ _______ _______ _____ _____    ______ ____
ROOT
ATOM      1  CA  PRO A   2      -6.677   3.576 123.959  0.00  0.00    +0.162 C 
ATOM      2  C   PRO A   2      -7.269   3.102 122.634  0.00  0.00    +0.234 C 
ATOM      3  N   PHE A   1      -8.232   2.126 122.803  0.00  0.00    -0.302 N 
ATOM      4  CA  PHE A   1      -8.026   1.033 123.766  0.00  0.00    +0.163 C 
ATOM      5  O   PRO A   2      -7.135   3.684 121.565  0.00  0.00    -0.274 OA
ATOM      6  CB  PRO A   2      -5.334   4.282 123.880  0.00  0.00    +0.033 C 
ATOM      7  CG  PRO A   2      -4.841   4.192 125.327  0.00  0.00    +0.021 C 
ATOM      8  CD  PRO A   2      -5.379   2.854 125.834  0.00  0.00    +0.109 C 
ATOM      9  N   PRO A   2      -6.409   2.491 124.883  0.00  0.00    -0.288 N 
ATOM     10  C   PHE A   1      -7.306   1.461 125.068  0.00  0.00    +0.237 C 
ATOM     11  O   PHE A   1      -7.331   0.773 126.086  0.00  0.00    -0.274 OA
ATOM     12  H   PHE A   1      -8.701   1.875 121.939  0.00  0.00    +0.149 HD
ENDROOT
BRANCH   4  13
ATOM     13  CB  PHE A   1      -7.186  -0.106 123.151  0.00  0.00    +0.067 C 
BRANCH  13  14
ATOM     14  CG  PHE A   1      -7.690  -1.480 123.522  0.00  0.00    -0.045 A 
ATOM     15  CD1 PHE A   1      -8.968  -1.900 123.128  0.00  0.00    +0.003 A 
ATOM     16  CE1 PHE A   1      -9.436  -3.166 123.484  0.00  0.00    +0.000 A 
ATOM     17  CZ  PHE A   1      -8.632  -4.022 124.234  0.00  0.00    +0.000 A 
ATOM     18  CE2 PHE A   1      -7.360  -3.614 124.631  0.00  0.00    +0.000 A 
ATOM     19  CD2 PHE A   1      -6.891  -2.347 124.280  0.00  0.00    +0.003 A 
ENDBRANCH  13  14
ENDBRANCH   4  13
TORSDOF 2
ENDMDL
