MODEL 1
REMARK VINA RESULT:      -6.0      0.000      0.000
REMARK  Name = NuBBE_2030
REMARK  7 active torsions:
REMARK  status: ('A' for Active; 'I' for Inactive)
REMARK    1  A    between atoms: C_1  and  C_2
REMARK    2  A    between atoms: C_4  and  O_5
REMARK    3  A    between atoms: O_5  and  C_6
REMARK    4  A    between atoms: C_6  and  C_7
REMARK    5  A    between atoms: C_9  and  C_10
REMARK    6  A    between atoms: C_10  and  C_11
REMARK    7  A    between atoms: C_10  and  C_12
REMARK                            x       y       z     vdW  Elec       q    Type
REMARK                         _______ _______ _______ _____ _____    ______ ____
ROOT
ATOM      1  C   LIG A   1      -4.196  -4.470 123.627  0.00  0.00    +0.044 C 
ATOM      2  C   LIG A   1      -5.263  -3.419 123.678  0.00  0.00    -0.047 A 
ATOM      3  C   LIG A   1      -6.060  -3.271 124.818  0.00  0.00    +0.050 A 
ATOM      4  C   LIG A   1      -7.056  -2.288 124.862  0.00  0.00    +0.135 A 
ATOM      5  C   LIG A   1      -7.250  -1.398 123.791  0.00  0.00    -0.002 A 
ATOM      6  C   LIG A   1      -6.420  -1.541 122.664  0.00  0.00    +0.008 A 
ATOM      7  C   LIG A   1      -5.439  -2.537 122.610  0.00  0.00    +0.004 A 
ENDROOT
BRANCH   5   8
ATOM      8  C   LIG A   1      -8.313  -0.310 123.826  0.00  0.00    +0.017 C 
ATOM      9  C   LIG A   1      -7.720   1.075 123.551  0.00  0.00    +0.012 C 
ATOM     10  C   LIG A   1      -9.455  -0.614 122.851  0.00  0.00    +0.012 C 
ENDBRANCH   5   8
BRANCH   4  11
ATOM     11  O   LIG A   1      -7.833  -2.091 126.029  0.00  0.00    -0.426 OA
BRANCH  11  12
ATOM     12  C   LIG A   1      -8.976  -2.845 126.296  0.00  0.00    +0.309 C 
ATOM     13  C   LIG A   1      -8.757  -3.630 127.555  0.00  0.00    +0.136 C 
ATOM     14  O   LIG A   1     -10.021  -2.854 125.659  0.00  0.00    -0.251 OA
ENDBRANCH  11  12
ENDBRANCH   4  11
TORSDOF 3
ENDMDL
MODEL 2
REMARK VINA RESULT:      -5.8     10.354     11.642
REMARK  Name = NuBBE_2030
REMARK  7 active torsions:
REMARK  status: ('A' for Active; 'I' for Inactive)
REMARK    1  A    between atoms: C_1  and  C_2
REMARK    2  A    between atoms: C_4  and  O_5
REMARK    3  A    between atoms: O_5  and  C_6
REMARK    4  A    between atoms: C_6  and  C_7
REMARK    5  A    between atoms: C_9  and  C_10
REMARK    6  A    between atoms: C_10  and  C_11
REMARK    7  A    between atoms: C_10  and  C_12
REMARK                            x       y       z     vdW  Elec       q    Type
REMARK                         _______ _______ _______ _____ _____    ______ ____
ROOT
ATOM      1  C   LIG A   1      -6.819   6.031 132.110  0.00  0.00    +0.044 C 
ATOM      2  C   LIG A   1      -8.201   6.378 131.642  0.00  0.00    -0.047 A 
ATOM      3  C   LIG A   1      -8.396   6.997 130.403  0.00  0.00    +0.050 A 
ATOM      4  C   LIG A   1      -9.688   7.319 129.971  0.00  0.00    +0.135 A 
ATOM      5  C   LIG A   1     -10.818   6.990 130.739  0.00  0.00    -0.002 A 
ATOM      6  C   LIG A   1     -10.605   6.341 131.969  0.00  0.00    +0.008 A 
ATOM      7  C   LIG A   1      -9.314   6.038 132.413  0.00  0.00    +0.004 A 
ENDROOT
BRANCH   5   8
ATOM      8  C   LIG A   1     -12.232   7.314 130.277  0.00  0.00    +0.017 C 
ATOM      9  C   LIG A   1     -12.828   6.182 129.435  0.00  0.00    +0.012 C 
ATOM     10  C   LIG A   1     -13.144   7.645 131.463  0.00  0.00    +0.012 C 
ENDBRANCH   5   8
BRANCH   4  11
ATOM     11  O   LIG A   1      -9.905   7.895 128.696  0.00  0.00    -0.426 OA
BRANCH  11  12
ATOM     12  C   LIG A   1     -10.092   7.119 127.552  0.00  0.00    +0.309 C 
ATOM     13  C   LIG A   1     -11.007   7.849 126.614  0.00  0.00    +0.136 C 
ATOM     14  O   LIG A   1      -9.573   6.041 127.298  0.00  0.00    -0.251 OA
ENDBRANCH  11  12
ENDBRANCH   4  11
TORSDOF 3
ENDMDL
MODEL 3
REMARK VINA RESULT:      -5.5      4.026      6.054
REMARK  Name = NuBBE_2030
REMARK  7 active torsions:
REMARK  status: ('A' for Active; 'I' for Inactive)
REMARK    1  A    between atoms: C_1  and  C_2
REMARK    2  A    between atoms: C_4  and  O_5
REMARK    3  A    between atoms: O_5  and  C_6
REMARK    4  A    between atoms: C_6  and  C_7
REMARK    5  A    between atoms: C_9  and  C_10
REMARK    6  A    between atoms: C_10  and  C_11
REMARK    7  A    between atoms: C_10  and  C_12
REMARK                            x       y       z     vdW  Elec       q    Type
REMARK                         _______ _______ _______ _____ _____    ______ ____
ROOT
ATOM      1  C   LIG A   1      -7.182   4.186 119.383  0.00  0.00    +0.044 C 
ATOM      2  C   LIG A   1      -7.179   3.831 120.839  0.00  0.00    -0.047 A 
ATOM      3  C   LIG A   1      -8.303   3.242 121.428  0.00  0.00    +0.050 A 
ATOM      4  C   LIG A   1      -8.296   2.912 122.789  0.00  0.00    +0.135 A 
ATOM      5  C   LIG A   1      -7.154   3.116 123.584  0.00  0.00    -0.002 A 
ATOM      6  C   LIG A   1      -6.023   3.682 122.968  0.00  0.00    +0.008 A 
ATOM      7  C   LIG A   1      -6.035   4.033 121.614  0.00  0.00    +0.004 A 
ENDROOT
BRANCH   5   8
ATOM      8  C   LIG A   1      -7.120   2.746 125.060  0.00  0.00    +0.017 C 
ATOM      9  C   LIG A   1      -5.723   2.298 125.501  0.00  0.00    +0.012 C 
ATOM     10  C   LIG A   1      -7.621   3.899 125.936  0.00  0.00    +0.012 C 
ENDBRANCH   5   8
BRANCH   4  11
ATOM     11  O   LIG A   1      -9.405   2.266 123.386  0.00  0.00    -0.426 OA
BRANCH  11  12
ATOM     12  C   LIG A   1      -9.798   0.978 123.023  0.00  0.00    +0.309 C 
ATOM     13  C   LIG A   1      -8.701   0.017 123.375  0.00  0.00    +0.136 C 
ATOM     14  O   LIG A   1     -10.871   0.641 122.540  0.00  0.00    -0.251 OA
ENDBRANCH  11  12
ENDBRANCH   4  11
TORSDOF 3
ENDMDL
MODEL 4
REMARK VINA RESULT:      -5.4      2.202      4.308
REMARK  Name = NuBBE_2030
REMARK  7 active torsions:
REMARK  status: ('A' for Active; 'I' for Inactive)
REMARK    1  A    between atoms: C_1  and  C_2
REMARK    2  A    between atoms: C_4  and  O_5
REMARK    3  A    between atoms: O_5  and  C_6
REMARK    4  A    between atoms: C_6  and  C_7
REMARK    5  A    between atoms: C_9  and  C_10
REMARK    6  A    between atoms: C_10  and  C_11
REMARK    7  A    between atoms: C_10  and  C_12
REMARK                            x       y       z     vdW  Elec       q    Type
REMARK                         _______ _______ _______ _____ _____    ______ ____
ROOT
ATOM      1  C   LIG A   1      -7.999  -2.986 129.701  0.00  0.00    +0.044 C 
ATOM      2  C   LIG A   1      -8.195  -2.767 128.230  0.00  0.00    -0.047 A 
ATOM      3  C   LIG A   1      -8.050  -1.491 127.677  0.00  0.00    +0.050 A 
ATOM      4  C   LIG A   1      -8.234  -1.291 126.304  0.00  0.00    +0.135 A 
ATOM      5  C   LIG A   1      -8.519  -2.365 125.442  0.00  0.00    -0.002 A 
ATOM      6  C   LIG A   1      -8.633  -3.646 126.011  0.00  0.00    +0.008 A 
ATOM      7  C   LIG A   1      -8.471  -3.845 127.386  0.00  0.00    +0.004 A 
ENDROOT
BRANCH   5   8
ATOM      8  C   LIG A   1      -8.703  -2.172 123.944  0.00  0.00    +0.017 C 
ATOM      9  C   LIG A   1      -7.361  -2.137 123.206  0.00  0.00    +0.012 C 
ATOM     10  C   LIG A   1      -9.620  -3.246 123.351  0.00  0.00    +0.012 C 
ENDBRANCH   5   8
BRANCH   4  11
ATOM     11  O   LIG A   1      -8.036  -0.016 125.722  0.00  0.00    -0.426 OA
BRANCH  11  12
ATOM     12  C   LIG A   1      -8.903   1.051 125.959  0.00  0.00    +0.309 C 
ATOM     13  C   LIG A   1      -9.833   1.191 124.790  0.00  0.00    +0.136 C 
ATOM     14  O   LIG A   1      -8.958   1.749 126.962  0.00  0.00    -0.251 OA
ENDBRANCH  11  12
ENDBRANCH   4  11
TORSDOF 3
ENDMDL
MODEL 5
REMARK VINA RESULT:      -5.4      2.191      4.331
REMARK  Name = NuBBE_2030
REMARK  7 active torsions:
REMARK  status: ('A' for Active; 'I' for Inactive)
REMARK    1  A    between atoms: C_1  and  C_2
REMARK    2  A    between atoms: C_4  and  O_5
REMARK    3  A    between atoms: O_5  and  C_6
REMARK    4  A    between atoms: C_6  and  C_7
REMARK    5  A    between atoms: C_9  and  C_10
REMARK    6  A    between atoms: C_10  and  C_11
REMARK    7  A    between atoms: C_10  and  C_12
REMARK                            x       y       z     vdW  Elec       q    Type
REMARK                         _______ _______ _______ _____ _____    ______ ____
ROOT
ATOM      1  C   LIG A   1      -9.015  -3.695 128.352  0.00  0.00    +0.044 C 
ATOM      2  C   LIG A   1      -8.185  -3.279 127.174  0.00  0.00    -0.047 A 
ATOM      3  C   LIG A   1      -7.139  -2.365 127.332  0.00  0.00    +0.050 A 
ATOM      4  C   LIG A   1      -6.366  -1.979 126.230  0.00  0.00    +0.135 A 
ATOM      5  C   LIG A   1      -6.586  -2.530 124.955  0.00  0.00    -0.002 A 
ATOM      6  C   LIG A   1      -7.624  -3.469 124.821  0.00  0.00    +0.008 A 
ATOM      7  C   LIG A   1      -8.411  -3.840 125.916  0.00  0.00    +0.004 A 
ENDROOT
BRANCH   5   8
ATOM      8  C   LIG A   1      -5.745  -2.137 123.749  0.00  0.00    +0.017 C 
ATOM      9  C   LIG A   1      -4.752  -3.239 123.367  0.00  0.00    +0.012 C 
ATOM     10  C   LIG A   1      -6.626  -1.762 122.553  0.00  0.00    +0.012 C 
ENDBRANCH   5   8
BRANCH   4  11
ATOM     11  O   LIG A   1      -5.269  -1.097 126.384  0.00  0.00    -0.426 OA
BRANCH  11  12
ATOM     12  C   LIG A   1      -5.424   0.205 126.862  0.00  0.00    +0.309 C 
ATOM     13  C   LIG A   1      -5.871   1.087 125.734  0.00  0.00    +0.136 C 
ATOM     14  O   LIG A   1      -5.277   0.591 128.014  0.00  0.00    -0.251 OA
ENDBRANCH  11  12
ENDBRANCH   4  11
TORSDOF 3
ENDMDL
MODEL 6
REMARK VINA RESULT:      -5.1      1.973      4.276
REMARK  Name = NuBBE_2030
REMARK  7 active torsions:
REMARK  status: ('A' for Active; 'I' for Inactive)
REMARK    1  A    between atoms: C_1  and  C_2
REMARK    2  A    between atoms: C_4  and  O_5
REMARK    3  A    between atoms: O_5  and  C_6
REMARK    4  A    between atoms: C_6  and  C_7
REMARK    5  A    between atoms: C_9  and  C_10
REMARK    6  A    between atoms: C_10  and  C_11
REMARK    7  A    between atoms: C_10  and  C_12
REMARK                            x       y       z     vdW  Elec       q    Type
REMARK                         _______ _______ _______ _____ _____    ______ ____
ROOT
ATOM      1  C   LIG A   1      -9.741  -4.393 128.534  0.00  0.00    +0.044 C 
ATOM      2  C   LIG A   1      -8.833  -3.537 127.703  0.00  0.00    -0.047 A 
ATOM      3  C   LIG A   1      -9.262  -3.038 126.469  0.00  0.00    +0.050 A 
ATOM      4  C   LIG A   1      -8.412  -2.238 125.696  0.00  0.00    +0.135 A 
ATOM      5  C   LIG A   1      -7.133  -1.877 126.155  0.00  0.00    -0.002 A 
ATOM      6  C   LIG A   1      -6.729  -2.363 127.411  0.00  0.00    +0.008 A 
ATOM      7  C   LIG A   1      -7.568  -3.180 128.176  0.00  0.00    +0.004 A 
ENDROOT
BRANCH   5   8
ATOM      8  C   LIG A   1      -6.202  -0.993 125.338  0.00  0.00    +0.017 C 
ATOM      9  C   LIG A   1      -5.408  -0.030 126.227  0.00  0.00    +0.012 C 
ATOM     10  C   LIG A   1      -5.258  -1.830 124.469  0.00  0.00    +0.012 C 
ENDBRANCH   5   8
BRANCH   4  11
ATOM     11  O   LIG A   1      -8.852  -1.682 124.471  0.00  0.00    -0.426 OA
BRANCH  11  12
ATOM     12  C   LIG A   1      -9.107  -2.468 123.347  0.00  0.00    +0.309 C 
ATOM     13  C   LIG A   1      -8.077  -2.165 122.298  0.00  0.00    +0.136 C 
ATOM     14  O   LIG A   1      -9.984  -3.311 123.218  0.00  0.00    -0.251 OA
ENDBRANCH  11  12
ENDBRANCH   4  11
TORSDOF 3
ENDMDL
MODEL 7
REMARK VINA RESULT:      -5.1      2.381      4.637
REMARK  Name = NuBBE_2030
REMARK  7 active torsions:
REMARK  status: ('A' for Active; 'I' for Inactive)
REMARK    1  A    between atoms: C_1  and  C_2
REMARK    2  A    between atoms: C_4  and  O_5
REMARK    3  A    between atoms: O_5  and  C_6
REMARK    4  A    between atoms: C_6  and  C_7
REMARK    5  A    between atoms: C_9  and  C_10
REMARK    6  A    between atoms: C_10  and  C_11
REMARK    7  A    between atoms: C_10  and  C_12
REMARK                            x       y       z     vdW  Elec       q    Type
REMARK                         _______ _______ _______ _____ _____    ______ ____
ROOT
ATOM      1  C   LIG A   1      -4.878   1.444 126.397  0.00  0.00    +0.044 C 
ATOM      2  C   LIG A   1      -5.777   0.246 126.462  0.00  0.00    -0.047 A 
ATOM      3  C   LIG A   1      -5.666  -0.776 125.513  0.00  0.00    +0.050 A 
ATOM      4  C   LIG A   1      -6.508  -1.893 125.577  0.00  0.00    +0.135 A 
ATOM      5  C   LIG A   1      -7.447  -2.041 126.614  0.00  0.00    -0.002 A 
ATOM      6  C   LIG A   1      -7.524  -1.018 127.575  0.00  0.00    +0.008 A 
ATOM      7  C   LIG A   1      -6.699   0.109 127.502  0.00  0.00    +0.004 A 
ENDROOT
BRANCH   5   8
ATOM      8  C   LIG A   1      -8.357  -3.257 126.712  0.00  0.00    +0.017 C 
ATOM      9  C   LIG A   1      -8.666  -3.619 128.167  0.00  0.00    +0.012 C 
ATOM     10  C   LIG A   1      -9.651  -3.051 125.918  0.00  0.00    +0.012 C 
ENDBRANCH   5   8
BRANCH   4  11
ATOM     11  O   LIG A   1      -6.371  -2.960 124.657  0.00  0.00    -0.426 OA
BRANCH  11  12
ATOM     12  C   LIG A   1      -5.674  -2.821 123.457  0.00  0.00    +0.309 C 
ATOM     13  C   LIG A   1      -4.416  -3.636 123.528  0.00  0.00    +0.136 C 
ATOM     14  O   LIG A   1      -6.022  -2.189 122.469  0.00  0.00    -0.251 OA
ENDBRANCH  11  12
ENDBRANCH   4  11
TORSDOF 3
ENDMDL
MODEL 8
REMARK VINA RESULT:      -5.0      3.634      6.049
REMARK  Name = NuBBE_2030
REMARK  7 active torsions:
REMARK  status: ('A' for Active; 'I' for Inactive)
REMARK    1  A    between atoms: C_1  and  C_2
REMARK    2  A    between atoms: C_4  and  O_5
REMARK    3  A    between atoms: O_5  and  C_6
REMARK    4  A    between atoms: C_6  and  C_7
REMARK    5  A    between atoms: C_9  and  C_10
REMARK    6  A    between atoms: C_10  and  C_11
REMARK    7  A    between atoms: C_10  and  C_12
REMARK                            x       y       z     vdW  Elec       q    Type
REMARK                         _______ _______ _______ _____ _____    ______ ____
ROOT
ATOM      1  C   LIG A   1      -9.379  -2.927 125.385  0.00  0.00    +0.044 C 
ATOM      2  C   LIG A   1      -8.595  -3.021 126.660  0.00  0.00    -0.047 A 
ATOM      3  C   LIG A   1      -7.423  -2.276 126.828  0.00  0.00    +0.050 A 
ATOM      4  C   LIG A   1      -6.695  -2.367 128.020  0.00  0.00    +0.135 A 
ATOM      5  C   LIG A   1      -7.140  -3.163 129.090  0.00  0.00    -0.002 A 
ATOM      6  C   LIG A   1      -8.336  -3.882 128.914  0.00  0.00    +0.008 A 
ATOM      7  C   LIG A   1      -9.055  -3.810 127.716  0.00  0.00    +0.004 A 
ENDROOT
BRANCH   5   8
ATOM      8  C   LIG A   1      -6.373  -3.259 130.400  0.00  0.00    +0.017 C 
ATOM      9  C   LIG A   1      -7.259  -2.926 131.604  0.00  0.00    +0.012 C 
ATOM     10  C   LIG A   1      -5.727  -4.638 130.569  0.00  0.00    +0.012 C 
ENDBRANCH   5   8
BRANCH   4  11
ATOM     11  O   LIG A   1      -5.537  -1.578 128.226  0.00  0.00    -0.426 OA
BRANCH  11  12
ATOM     12  C   LIG A   1      -5.564  -0.186 128.150  0.00  0.00    +0.309 C 
ATOM     13  C   LIG A   1      -5.982   0.366 129.481  0.00  0.00    +0.136 C 
ATOM     14  O   LIG A   1      -5.256   0.508 127.190  0.00  0.00    -0.251 OA
ENDBRANCH  11  12
ENDBRANCH   4  11
TORSDOF 3
ENDMDL
MODEL 9
REMARK VINA RESULT:      -5.0      2.472      4.387
REMARK  Name = NuBBE_2030
REMARK  7 active torsions:
REMARK  status: ('A' for Active; 'I' for Inactive)
REMARK    1  A    between atoms: C_1  and  C_2
REMARK    2  A    between atoms: C_4  and  O_5
REMARK    3  A    between atoms: O_5  and  C_6
REMARK    4  A    between atoms: C_6  and  C_7
REMARK    5  A    between atoms: C_9  and  C_10
REMARK    6  A    between atoms: C_10  and  C_11
REMARK    7  A    between atoms: C_10  and  C_12
REMARK                            x       y       z     vdW  Elec       q    Type
REMARK                         _______ _______ _______ _____ _____    ______ ____
ROOT
ATOM      1  C   LIG A   1      -8.401   1.964 127.909  0.00  0.00    +0.044 C 
ATOM      2  C   LIG A   1      -8.301   0.676 127.148  0.00  0.00    -0.047 A 
ATOM      3  C   LIG A   1      -7.854  -0.489 127.781  0.00  0.00    +0.050 A 
ATOM      4  C   LIG A   1      -7.762  -1.689 127.067  0.00  0.00    +0.135 A 
ATOM      5  C   LIG A   1      -8.159  -1.770 125.720  0.00  0.00    -0.002 A 
ATOM      6  C   LIG A   1      -8.634  -0.596 125.108  0.00  0.00    +0.008 A 
ATOM      7  C   LIG A   1      -8.706   0.610 125.814  0.00  0.00    +0.004 A 
ENDROOT
BRANCH   5   8
ATOM      8  C   LIG A   1      -8.085  -3.070 124.932  0.00  0.00    +0.017 C 
ATOM      9  C   LIG A   1      -9.300  -3.248 124.016  0.00  0.00    +0.012 C 
ATOM     10  C   LIG A   1      -6.783  -3.164 124.131  0.00  0.00    +0.012 C 
ENDBRANCH   5   8
BRANCH   4  11
ATOM     11  O   LIG A   1      -7.363  -2.887 127.707  0.00  0.00    -0.426 OA
BRANCH  11  12
ATOM     12  C   LIG A   1      -8.081  -3.436 128.770  0.00  0.00    +0.309 C 
ATOM     13  C   LIG A   1      -9.264  -4.181 128.225  0.00  0.00    +0.136 C 
ATOM     14  O   LIG A   1      -7.797  -3.381 129.959  0.00  0.00    -0.251 OA
ENDBRANCH  11  12
ENDBRANCH   4  11
TORSDOF 3
ENDMDL
