MODEL 1
REMARK VINA RESULT:      -6.3      0.000      0.000
REMARK  Name = NuBBE_1517
REMARK  9 active torsions:
REMARK  status: ('A' for Active; 'I' for Inactive)
REMARK    1  A    between atoms: C_7  and  C_9
REMARK    2  A    between atoms: C_9  and  C_10
REMARK    3  A    between atoms: C_10  and  C_11
REMARK    4  A    between atoms: C_11  and  C_12
REMARK    5  A    between atoms: C_12  and  C_13
REMARK    6  A    between atoms: C_13  and  C_14
REMARK    7  A    between atoms: C_14  and  C_15
REMARK    8  A    between atoms: C_15  and  C_16
REMARK    9  A    between atoms: C_16  and  C_17
REMARK                            x       y       z     vdW  Elec       q    Type
REMARK                         _______ _______ _______ _____ _____    ______ ____
ROOT
ATOM      1  O   LIG A   1     -12.583   6.443 131.827  0.00  0.00    -0.287 OA
ATOM      2  C   LIG A   1     -11.663   6.697 131.097  0.00  0.00    +0.190 A 
ATOM      3  C   LIG A   1     -11.859   7.022 129.645  0.00  0.00    +0.045 A 
ATOM      4  C   LIG A   1     -10.736   7.326 128.876  0.00  0.00    +0.050 A 
ATOM      5  N   LIG A   1      -9.460   7.439 129.489  0.00  0.00    -0.358 N 
ATOM      6  H   LIG A   1      -8.668   7.581 128.882  0.00  0.00    +0.166 HD
ATOM      7  C   LIG A   1      -9.218   6.957 130.785  0.00  0.00    +0.020 A 
ATOM      8  C   LIG A   1     -10.251   6.608 131.570  0.00  0.00    +0.072 A 
ATOM      9  C   LIG A   1     -10.913   7.484 127.491  0.00  0.00    +0.026 A 
ATOM     10  C   LIG A   1     -12.185   7.356 126.903  0.00  0.00    +0.002 A 
ATOM     11  C   LIG A   1     -13.305   7.106 127.692  0.00  0.00    +0.001 A 
ATOM     12  C   LIG A   1     -13.138   6.928 129.079  0.00  0.00    +0.013 A 
ENDROOT
BRANCH   7  13
ATOM     13  C   LIG A   1      -7.760   6.604 131.146  0.00  0.00    +0.053 C 
BRANCH  13  14
ATOM     14  C   LIG A   1      -7.143   5.198 130.991  0.00  0.00    +0.006 C 
BRANCH  14  15
ATOM     15  C   LIG A   1      -7.591   4.250 129.882  0.00  0.00    +0.000 C 
BRANCH  15  16
ATOM     16  C   LIG A   1      -8.571   3.129 130.199  0.00  0.00    +0.000 C 
BRANCH  16  17
ATOM     17  C   LIG A   1      -8.315   2.506 131.597  0.00  0.00    -0.000 C 
BRANCH  17  18
ATOM     18  C   LIG A   1      -9.376   2.603 132.754  0.00  0.00    -0.000 C 
BRANCH  18  19
ATOM     19  C   LIG A   1      -9.296   3.741 133.809  0.00  0.00    -0.000 C 
BRANCH  19  20
ATOM     20  C   LIG A   1      -7.901   4.057 134.413  0.00  0.00    -0.003 C 
ATOM     21  C   LIG A   1      -7.779   5.531 134.838  0.00  0.00    +0.004 C 
ENDBRANCH  19  20
ENDBRANCH  18  19
ENDBRANCH  17  18
ENDBRANCH  16  17
ENDBRANCH  15  16
ENDBRANCH  14  15
ENDBRANCH  13  14
ENDBRANCH   7  13
TORSDOF 8
ENDMDL
MODEL 2
REMARK VINA RESULT:      -6.2      0.949      2.230
REMARK  Name = NuBBE_1517
REMARK  9 active torsions:
REMARK  status: ('A' for Active; 'I' for Inactive)
REMARK    1  A    between atoms: C_7  and  C_9
REMARK    2  A    between atoms: C_9  and  C_10
REMARK    3  A    between atoms: C_10  and  C_11
REMARK    4  A    between atoms: C_11  and  C_12
REMARK    5  A    between atoms: C_12  and  C_13
REMARK    6  A    between atoms: C_13  and  C_14
REMARK    7  A    between atoms: C_14  and  C_15
REMARK    8  A    between atoms: C_15  and  C_16
REMARK    9  A    between atoms: C_16  and  C_17
REMARK                            x       y       z     vdW  Elec       q    Type
REMARK                         _______ _______ _______ _____ _____    ______ ____
ROOT
ATOM      1  O   LIG A   1     -12.771   6.812 131.825  0.00  0.00    -0.287 OA
ATOM      2  C   LIG A   1     -11.880   6.804 131.018  0.00  0.00    +0.190 A 
ATOM      3  C   LIG A   1     -12.121   7.051 129.557  0.00  0.00    +0.045 A 
ATOM      4  C   LIG A   1     -11.025   7.045 128.695  0.00  0.00    +0.050 A 
ATOM      5  N   LIG A   1      -9.708   6.927 129.214  0.00  0.00    -0.358 N 
ATOM      6  H   LIG A   1      -8.956   6.847 128.548  0.00  0.00    +0.166 HD
ATOM      7  C   LIG A   1      -9.469   6.506 130.531  0.00  0.00    +0.020 A 
ATOM      8  C   LIG A   1     -10.486   6.449 131.409  0.00  0.00    +0.072 A 
ATOM      9  C   LIG A   1     -11.276   7.130 127.315  0.00  0.00    +0.026 A 
ATOM     10  C   LIG A   1     -12.591   7.234 126.822  0.00  0.00    +0.002 A 
ATOM     11  C   LIG A   1     -13.670   7.293 127.699  0.00  0.00    +0.001 A 
ATOM     12  C   LIG A   1     -13.432   7.191 129.084  0.00  0.00    +0.013 A 
ENDROOT
BRANCH   7  13
ATOM     13  C   LIG A   1      -8.094   5.875 130.832  0.00  0.00    +0.053 C 
BRANCH  13  14
ATOM     14  C   LIG A   1      -6.975   6.571 131.635  0.00  0.00    +0.006 C 
BRANCH  14  15
ATOM     15  C   LIG A   1      -5.856   5.773 132.298  0.00  0.00    +0.000 C 
BRANCH  15  16
ATOM     16  C   LIG A   1      -5.873   5.559 133.805  0.00  0.00    +0.000 C 
BRANCH  16  17
ATOM     17  C   LIG A   1      -7.298   5.710 134.401  0.00  0.00    -0.000 C 
BRANCH  17  18
ATOM     18  C   LIG A   1      -8.156   4.460 134.823  0.00  0.00    -0.000 C 
BRANCH  18  19
ATOM     19  C   LIG A   1      -9.166   3.822 133.830  0.00  0.00    -0.000 C 
BRANCH  19  20
ATOM     20  C   LIG A   1      -8.685   2.594 133.012  0.00  0.00    -0.003 C 
ATOM     21  C   LIG A   1      -9.799   2.028 132.114  0.00  0.00    +0.004 C 
ENDBRANCH  19  20
ENDBRANCH  18  19
ENDBRANCH  17  18
ENDBRANCH  16  17
ENDBRANCH  15  16
ENDBRANCH  14  15
ENDBRANCH  13  14
ENDBRANCH   7  13
TORSDOF 8
ENDMDL
MODEL 3
REMARK VINA RESULT:      -6.2      9.299     11.782
REMARK  Name = NuBBE_1517
REMARK  9 active torsions:
REMARK  status: ('A' for Active; 'I' for Inactive)
REMARK    1  A    between atoms: C_7  and  C_9
REMARK    2  A    between atoms: C_9  and  C_10
REMARK    3  A    between atoms: C_10  and  C_11
REMARK    4  A    between atoms: C_11  and  C_12
REMARK    5  A    between atoms: C_12  and  C_13
REMARK    6  A    between atoms: C_13  and  C_14
REMARK    7  A    between atoms: C_14  and  C_15
REMARK    8  A    between atoms: C_15  and  C_16
REMARK    9  A    between atoms: C_16  and  C_17
REMARK                            x       y       z     vdW  Elec       q    Type
REMARK                         _______ _______ _______ _____ _____    ______ ____
ROOT
ATOM      1  O   LIG A   1      -5.216  -0.669 127.924  0.00  0.00    -0.287 OA
ATOM      2  C   LIG A   1      -5.889  -1.594 128.292  0.00  0.00    +0.190 A 
ATOM      3  C   LIG A   1      -5.464  -2.496 129.414  0.00  0.00    +0.045 A 
ATOM      4  C   LIG A   1      -6.318  -3.532 129.791  0.00  0.00    +0.050 A 
ATOM      5  N   LIG A   1      -7.605  -3.647 129.202  0.00  0.00    -0.358 N 
ATOM      6  H   LIG A   1      -8.153  -4.456 129.446  0.00  0.00    +0.166 HD
ATOM      7  C   LIG A   1      -7.946  -2.949 128.033  0.00  0.00    +0.020 A 
ATOM      8  C   LIG A   1      -7.150  -1.963 127.587  0.00  0.00    +0.072 A 
ATOM      9  C   LIG A   1      -5.849  -4.457 130.739  0.00  0.00    +0.026 A 
ATOM     10  C   LIG A   1      -4.564  -4.331 131.301  0.00  0.00    +0.002 A 
ATOM     11  C   LIG A   1      -3.745  -3.260 130.955  0.00  0.00    +0.001 A 
ATOM     12  C   LIG A   1      -4.197  -2.336 129.992  0.00  0.00    +0.013 A 
ENDROOT
BRANCH   7  13
ATOM     13  C   LIG A   1      -9.087  -3.531 127.171  0.00  0.00    +0.053 C 
BRANCH  13  14
ATOM     14  C   LIG A   1      -9.443  -3.038 125.752  0.00  0.00    +0.006 C 
BRANCH  14  15
ATOM     15  C   LIG A   1      -8.779  -3.632 124.513  0.00  0.00    +0.000 C 
BRANCH  15  16
ATOM     16  C   LIG A   1      -8.893  -2.910 123.178  0.00  0.00    +0.000 C 
BRANCH  16  17
ATOM     17  C   LIG A   1      -8.205  -1.519 123.204  0.00  0.00    -0.000 C 
BRANCH  17  18
ATOM     18  C   LIG A   1      -6.649  -1.367 123.385  0.00  0.00    -0.000 C 
BRANCH  18  19
ATOM     19  C   LIG A   1      -5.690  -2.527 122.998  0.00  0.00    -0.000 C 
BRANCH  19  20
ATOM     20  C   LIG A   1      -5.098  -3.379 124.153  0.00  0.00    -0.003 C 
ATOM     21  C   LIG A   1      -4.424  -4.662 123.634  0.00  0.00    +0.004 C 
ENDBRANCH  19  20
ENDBRANCH  18  19
ENDBRANCH  17  18
ENDBRANCH  16  17
ENDBRANCH  15  16
ENDBRANCH  14  15
ENDBRANCH  13  14
ENDBRANCH   7  13
TORSDOF 8
ENDMDL
MODEL 4
REMARK VINA RESULT:      -6.2      0.920      2.488
REMARK  Name = NuBBE_1517
REMARK  9 active torsions:
REMARK  status: ('A' for Active; 'I' for Inactive)
REMARK    1  A    between atoms: C_7  and  C_9
REMARK    2  A    between atoms: C_9  and  C_10
REMARK    3  A    between atoms: C_10  and  C_11
REMARK    4  A    between atoms: C_11  and  C_12
REMARK    5  A    between atoms: C_12  and  C_13
REMARK    6  A    between atoms: C_13  and  C_14
REMARK    7  A    between atoms: C_14  and  C_15
REMARK    8  A    between atoms: C_15  and  C_16
REMARK    9  A    between atoms: C_16  and  C_17
REMARK                            x       y       z     vdW  Elec       q    Type
REMARK                         _______ _______ _______ _____ _____    ______ ____
ROOT
ATOM      1  O   LIG A   1     -13.243   6.909 131.635  0.00  0.00    -0.287 OA
ATOM      2  C   LIG A   1     -12.163   6.908 131.106  0.00  0.00    +0.190 A 
ATOM      3  C   LIG A   1     -11.993   7.149 129.634  0.00  0.00    +0.045 A 
ATOM      4  C   LIG A   1     -10.701   7.153 129.108  0.00  0.00    +0.050 A 
ATOM      5  N   LIG A   1      -9.578   7.048 129.971  0.00  0.00    -0.358 N 
ATOM      6  H   LIG A   1      -8.671   6.974 129.539  0.00  0.00    +0.166 HD
ATOM      7  C   LIG A   1      -9.709   6.632 131.305  0.00  0.00    +0.020 A 
ATOM      8  C   LIG A   1     -10.928   6.568 131.868  0.00  0.00    +0.072 A 
ATOM      9  C   LIG A   1     -10.562   7.232 127.712  0.00  0.00    +0.026 A 
ATOM     10  C   LIG A   1     -11.690   7.322 126.875  0.00  0.00    +0.002 A 
ATOM     11  C   LIG A   1     -12.970   7.373 127.419  0.00  0.00    +0.001 A 
ATOM     12  C   LIG A   1     -13.124   7.276 128.816  0.00  0.00    +0.013 A 
ENDROOT
BRANCH   7  13
ATOM     13  C   LIG A   1      -8.465   6.015 131.978  0.00  0.00    +0.053 C 
BRANCH  13  14
ATOM     14  C   LIG A   1      -8.281   5.872 133.503  0.00  0.00    +0.006 C 
BRANCH  14  15
ATOM     15  C   LIG A   1      -8.511   4.540 134.211  0.00  0.00    +0.000 C 
BRANCH  15  16
ATOM     16  C   LIG A   1      -7.400   3.500 134.239  0.00  0.00    +0.000 C 
BRANCH  16  17
ATOM     17  C   LIG A   1      -7.683   2.316 133.277  0.00  0.00    -0.000 C 
BRANCH  17  18
ATOM     18  C   LIG A   1      -9.074   2.145 132.561  0.00  0.00    -0.000 C 
BRANCH  18  19
ATOM     19  C   LIG A   1      -9.150   1.899 131.028  0.00  0.00    -0.000 C 
BRANCH  19  20
ATOM     20  C   LIG A   1      -9.641   3.073 130.140  0.00  0.00    -0.003 C 
ATOM     21  C   LIG A   1      -8.535   3.587 129.202  0.00  0.00    +0.004 C 
ENDBRANCH  19  20
ENDBRANCH  18  19
ENDBRANCH  17  18
ENDBRANCH  16  17
ENDBRANCH  15  16
ENDBRANCH  14  15
ENDBRANCH  13  14
ENDBRANCH   7  13
TORSDOF 8
ENDMDL
MODEL 5
REMARK VINA RESULT:      -6.2      8.600     10.242
REMARK  Name = NuBBE_1517
REMARK  9 active torsions:
REMARK  status: ('A' for Active; 'I' for Inactive)
REMARK    1  A    between atoms: C_7  and  C_9
REMARK    2  A    between atoms: C_9  and  C_10
REMARK    3  A    between atoms: C_10  and  C_11
REMARK    4  A    between atoms: C_11  and  C_12
REMARK    5  A    between atoms: C_12  and  C_13
REMARK    6  A    between atoms: C_13  and  C_14
REMARK    7  A    between atoms: C_14  and  C_15
REMARK    8  A    between atoms: C_15  and  C_16
REMARK    9  A    between atoms: C_16  and  C_17
REMARK                            x       y       z     vdW  Elec       q    Type
REMARK                         _______ _______ _______ _____ _____    ______ ____
ROOT
ATOM      1  O   LIG A   1      -3.919   5.101 122.060  0.00  0.00    -0.287 OA
ATOM      2  C   LIG A   1      -4.986   4.557 121.954  0.00  0.00    +0.190 A 
ATOM      3  C   LIG A   1      -5.774   4.582 120.677  0.00  0.00    +0.045 A 
ATOM      4  C   LIG A   1      -6.992   3.905 120.636  0.00  0.00    +0.050 A 
ATOM      5  N   LIG A   1      -7.409   3.118 121.743  0.00  0.00    -0.358 N 
ATOM      6  H   LIG A   1      -8.332   2.714 121.699  0.00  0.00    +0.166 HD
ATOM      7  C   LIG A   1      -6.799   3.232 123.001  0.00  0.00    +0.020 A 
ATOM      8  C   LIG A   1      -5.641   3.904 123.123  0.00  0.00    +0.072 A 
ATOM      9  C   LIG A   1      -7.789   4.056 119.489  0.00  0.00    +0.026 A 
ATOM     10  C   LIG A   1      -7.361   4.851 118.409  0.00  0.00    +0.002 A 
ATOM     11  C   LIG A   1      -6.118   5.476 118.442  0.00  0.00    +0.001 A 
ATOM     12  C   LIG A   1      -5.318   5.347 119.595  0.00  0.00    +0.013 A 
ENDROOT
BRANCH   7  13
ATOM     13  C   LIG A   1      -7.629   2.804 124.230  0.00  0.00    +0.053 C 
BRANCH  13  14
ATOM     14  C   LIG A   1      -8.064   1.352 124.522  0.00  0.00    +0.006 C 
BRANCH  14  15
ATOM     15  C   LIG A   1      -9.471   0.862 124.193  0.00  0.00    +0.000 C 
BRANCH  15  16
ATOM     16  C   LIG A   1      -9.705   0.028 122.941  0.00  0.00    +0.000 C 
BRANCH  16  17
ATOM     17  C   LIG A   1      -8.753  -1.195 122.866  0.00  0.00    -0.000 C 
BRANCH  17  18
ATOM     18  C   LIG A   1      -9.199  -2.624 123.348  0.00  0.00    -0.000 C 
BRANCH  18  19
ATOM     19  C   LIG A   1      -8.355  -3.407 124.392  0.00  0.00    -0.000 C 
BRANCH  19  20
ATOM     20  C   LIG A   1      -8.816  -3.347 125.873  0.00  0.00    -0.003 C 
ATOM     21  C   LIG A   1      -8.527  -1.977 126.511  0.00  0.00    +0.004 C 
ENDBRANCH  19  20
ENDBRANCH  18  19
ENDBRANCH  17  18
ENDBRANCH  16  17
ENDBRANCH  15  16
ENDBRANCH  14  15
ENDBRANCH  13  14
ENDBRANCH   7  13
TORSDOF 8
ENDMDL
MODEL 6
REMARK VINA RESULT:      -6.1      8.346     10.174
REMARK  Name = NuBBE_1517
REMARK  9 active torsions:
REMARK  status: ('A' for Active; 'I' for Inactive)
REMARK    1  A    between atoms: C_7  and  C_9
REMARK    2  A    between atoms: C_9  and  C_10
REMARK    3  A    between atoms: C_10  and  C_11
REMARK    4  A    between atoms: C_11  and  C_12
REMARK    5  A    between atoms: C_12  and  C_13
REMARK    6  A    between atoms: C_13  and  C_14
REMARK    7  A    between atoms: C_14  and  C_15
REMARK    8  A    between atoms: C_15  and  C_16
REMARK    9  A    between atoms: C_16  and  C_17
REMARK                            x       y       z     vdW  Elec       q    Type
REMARK                         _______ _______ _______ _____ _____    ______ ____
ROOT
ATOM      1  O   LIG A   1      -9.321   2.991 120.908  0.00  0.00    -0.287 OA
ATOM      2  C   LIG A   1      -8.538   3.026 121.819  0.00  0.00    +0.190 A 
ATOM      3  C   LIG A   1      -7.198   3.691 121.698  0.00  0.00    +0.045 A 
ATOM      4  C   LIG A   1      -6.360   3.704 122.813  0.00  0.00    +0.050 A 
ATOM      5  N   LIG A   1      -6.822   3.202 124.059  0.00  0.00    -0.358 N 
ATOM      6  H   LIG A   1      -6.155   3.158 124.813  0.00  0.00    +0.166 HD
ATOM      7  C   LIG A   1      -7.977   2.410 124.153  0.00  0.00    +0.020 A 
ATOM      8  C   LIG A   1      -8.812   2.319 123.104  0.00  0.00    +0.072 A 
ATOM      9  C   LIG A   1      -5.055   4.197 122.647  0.00  0.00    +0.026 A 
ATOM     10  C   LIG A   1      -4.615   4.678 121.400  0.00  0.00    +0.002 A 
ATOM     11  C   LIG A   1      -5.480   4.710 120.310  0.00  0.00    +0.001 A 
ATOM     12  C   LIG A   1      -6.786   4.201 120.459  0.00  0.00    +0.013 A 
ENDROOT
BRANCH   7  13
ATOM     13  C   LIG A   1      -8.090   1.470 125.371  0.00  0.00    +0.053 C 
BRANCH  13  14
ATOM     14  C   LIG A   1      -9.167   0.376 125.528  0.00  0.00    +0.006 C 
BRANCH  14  15
ATOM     15  C   LIG A   1      -8.981  -1.016 124.932  0.00  0.00    +0.000 C 
BRANCH  15  16
ATOM     16  C   LIG A   1      -9.193  -1.231 123.440  0.00  0.00    +0.000 C 
BRANCH  16  17
ATOM     17  C   LIG A   1      -7.922  -1.785 122.742  0.00  0.00    -0.000 C 
BRANCH  17  18
ATOM     18  C   LIG A   1      -6.496  -1.653 123.393  0.00  0.00    -0.000 C 
BRANCH  18  19
ATOM     19  C   LIG A   1      -5.805  -2.884 124.043  0.00  0.00    -0.000 C 
BRANCH  19  20
ATOM     20  C   LIG A   1      -4.453  -3.346 123.439  0.00  0.00    -0.003 C 
ATOM     21  C   LIG A   1      -4.278  -4.873 123.520  0.00  0.00    +0.004 C 
ENDBRANCH  19  20
ENDBRANCH  18  19
ENDBRANCH  17  18
ENDBRANCH  16  17
ENDBRANCH  15  16
ENDBRANCH  14  15
ENDBRANCH  13  14
ENDBRANCH   7  13
TORSDOF 8
ENDMDL
MODEL 7
REMARK VINA RESULT:      -6.1      1.855      3.147
REMARK  Name = NuBBE_1517
REMARK  9 active torsions:
REMARK  status: ('A' for Active; 'I' for Inactive)
REMARK    1  A    between atoms: C_7  and  C_9
REMARK    2  A    between atoms: C_9  and  C_10
REMARK    3  A    between atoms: C_10  and  C_11
REMARK    4  A    between atoms: C_11  and  C_12
REMARK    5  A    between atoms: C_12  and  C_13
REMARK    6  A    between atoms: C_13  and  C_14
REMARK    7  A    between atoms: C_14  and  C_15
REMARK    8  A    between atoms: C_15  and  C_16
REMARK    9  A    between atoms: C_16  and  C_17
REMARK                            x       y       z     vdW  Elec       q    Type
REMARK                         _______ _______ _______ _____ _____    ______ ____
ROOT
ATOM      1  O   LIG A   1     -13.186   6.869 131.636  0.00  0.00    -0.287 OA
ATOM      2  C   LIG A   1     -12.127   6.887 131.069  0.00  0.00    +0.190 A 
ATOM      3  C   LIG A   1     -12.010   7.152 129.596  0.00  0.00    +0.045 A 
ATOM      4  C   LIG A   1     -10.739   7.176 129.025  0.00  0.00    +0.050 A 
ATOM      5  N   LIG A   1      -9.585   7.069 129.846  0.00  0.00    -0.358 N 
ATOM      6  H   LIG A   1      -8.693   7.010 129.381  0.00  0.00    +0.166 HD
ATOM      7  C   LIG A   1      -9.665   6.631 131.177  0.00  0.00    +0.020 A 
ATOM      8  C   LIG A   1     -10.862   6.546 131.782  0.00  0.00    +0.072 A 
ATOM      9  C   LIG A   1     -10.650   7.279 127.627  0.00  0.00    +0.026 A 
ATOM     10  C   LIG A   1     -11.807   7.371 126.831  0.00  0.00    +0.002 A 
ATOM     11  C   LIG A   1     -13.068   7.401 127.421  0.00  0.00    +0.001 A 
ATOM     12  C   LIG A   1     -13.171   7.281 128.821  0.00  0.00    +0.013 A 
ENDROOT
BRANCH   7  13
ATOM     13  C   LIG A   1      -8.391   6.016 131.795  0.00  0.00    +0.053 C 
BRANCH  13  14
ATOM     14  C   LIG A   1      -8.312   4.591 132.383  0.00  0.00    +0.006 C 
BRANCH  14  15
ATOM     15  C   LIG A   1      -8.625   4.317 133.851  0.00  0.00    +0.000 C 
BRANCH  15  16
ATOM     16  C   LIG A   1      -7.589   4.643 134.917  0.00  0.00    +0.000 C 
BRANCH  16  17
ATOM     17  C   LIG A   1      -7.897   5.980 135.642  0.00  0.00    -0.000 C 
BRANCH  17  18
ATOM     18  C   LIG A   1      -7.301   6.310 137.060  0.00  0.00    -0.000 C 
BRANCH  18  19
ATOM     19  C   LIG A   1      -8.230   6.750 138.226  0.00  0.00    -0.000 C 
BRANCH  19  20
ATOM     20  C   LIG A   1      -8.500   8.270 138.389  0.00  0.00    -0.003 C 
ATOM     21  C   LIG A   1      -9.386   8.821 137.259  0.00  0.00    +0.004 C 
ENDBRANCH  19  20
ENDBRANCH  18  19
ENDBRANCH  17  18
ENDBRANCH  16  17
ENDBRANCH  15  16
ENDBRANCH  14  15
ENDBRANCH  13  14
ENDBRANCH   7  13
TORSDOF 8
ENDMDL
MODEL 8
REMARK VINA RESULT:      -6.0      2.440      4.306
REMARK  Name = NuBBE_1517
REMARK  9 active torsions:
REMARK  status: ('A' for Active; 'I' for Inactive)
REMARK    1  A    between atoms: C_7  and  C_9
REMARK    2  A    between atoms: C_9  and  C_10
REMARK    3  A    between atoms: C_10  and  C_11
REMARK    4  A    between atoms: C_11  and  C_12
REMARK    5  A    between atoms: C_12  and  C_13
REMARK    6  A    between atoms: C_13  and  C_14
REMARK    7  A    between atoms: C_14  and  C_15
REMARK    8  A    between atoms: C_15  and  C_16
REMARK    9  A    between atoms: C_16  and  C_17
REMARK                            x       y       z     vdW  Elec       q    Type
REMARK                         _______ _______ _______ _____ _____    ______ ____
ROOT
ATOM      1  O   LIG A   1     -13.153   6.810 131.550  0.00  0.00    -0.287 OA
ATOM      2  C   LIG A   1     -12.112   6.889 130.954  0.00  0.00    +0.190 A 
ATOM      3  C   LIG A   1     -12.054   7.127 129.473  0.00  0.00    +0.045 A 
ATOM      4  C   LIG A   1     -10.803   7.227 128.866  0.00  0.00    +0.050 A 
ATOM      5  N   LIG A   1      -9.623   7.222 129.657  0.00  0.00    -0.358 N 
ATOM      6  H   LIG A   1      -8.741   7.215 129.169  0.00  0.00    +0.166 HD
ATOM      7  C   LIG A   1      -9.636   6.812 130.999  0.00  0.00    +0.020 A 
ATOM      8  C   LIG A   1     -10.808   6.657 131.638  0.00  0.00    +0.072 A 
ATOM      9  C   LIG A   1     -10.758   7.301 127.464  0.00  0.00    +0.026 A 
ATOM     10  C   LIG A   1     -11.940   7.292 126.699  0.00  0.00    +0.002 A 
ATOM     11  C   LIG A   1     -13.183   7.247 127.323  0.00  0.00    +0.001 A 
ATOM     12  C   LIG A   1     -13.241   7.154 128.727  0.00  0.00    +0.013 A 
ENDROOT
BRANCH   7  13
ATOM     13  C   LIG A   1      -8.306   6.303 131.595  0.00  0.00    +0.053 C 
BRANCH  13  14
ATOM     14  C   LIG A   1      -6.911   6.686 131.058  0.00  0.00    +0.006 C 
BRANCH  14  15
ATOM     15  C   LIG A   1      -5.643   6.383 131.851  0.00  0.00    +0.000 C 
BRANCH  15  16
ATOM     16  C   LIG A   1      -4.338   7.073 131.478  0.00  0.00    +0.000 C 
BRANCH  16  17
ATOM     17  C   LIG A   1      -4.403   7.727 130.073  0.00  0.00    -0.000 C 
BRANCH  17  18
ATOM     18  C   LIG A   1      -3.242   7.557 129.025  0.00  0.00    -0.000 C 
BRANCH  18  19
ATOM     19  C   LIG A   1      -2.653   6.152 128.718  0.00  0.00    -0.000 C 
BRANCH  19  20
ATOM     20  C   LIG A   1      -3.656   4.981 128.537  0.00  0.00    -0.003 C 
ATOM     21  C   LIG A   1      -4.497   5.137 127.258  0.00  0.00    +0.004 C 
ENDBRANCH  19  20
ENDBRANCH  18  19
ENDBRANCH  17  18
ENDBRANCH  16  17
ENDBRANCH  15  16
ENDBRANCH  14  15
ENDBRANCH  13  14
ENDBRANCH   7  13
TORSDOF 8
ENDMDL
MODEL 9
REMARK VINA RESULT:      -6.0      8.014      9.862
REMARK  Name = NuBBE_1517
REMARK  9 active torsions:
REMARK  status: ('A' for Active; 'I' for Inactive)
REMARK    1  A    between atoms: C_7  and  C_9
REMARK    2  A    between atoms: C_9  and  C_10
REMARK    3  A    between atoms: C_10  and  C_11
REMARK    4  A    between atoms: C_11  and  C_12
REMARK    5  A    between atoms: C_12  and  C_13
REMARK    6  A    between atoms: C_13  and  C_14
REMARK    7  A    between atoms: C_14  and  C_15
REMARK    8  A    between atoms: C_15  and  C_16
REMARK    9  A    between atoms: C_16  and  C_17
REMARK                            x       y       z     vdW  Elec       q    Type
REMARK                         _______ _______ _______ _____ _____    ______ ____
ROOT
ATOM      1  O   LIG A   1      -4.976   3.954 124.729  0.00  0.00    -0.287 OA
ATOM      2  C   LIG A   1      -5.885   3.609 124.022  0.00  0.00    +0.190 A 
ATOM      3  C   LIG A   1      -5.902   3.884 122.546  0.00  0.00    +0.045 A 
ATOM      4  C   LIG A   1      -6.987   3.427 121.799  0.00  0.00    +0.050 A 
ATOM      5  N   LIG A   1      -7.985   2.621 122.408  0.00  0.00    -0.358 N 
ATOM      6  H   LIG A   1      -8.789   2.383 121.850  0.00  0.00    +0.166 HD
ATOM      7  C   LIG A   1      -8.097   2.514 123.803  0.00  0.00    +0.020 A 
ATOM      8  C   LIG A   1      -7.106   2.968 124.590  0.00  0.00    +0.072 A 
ATOM      9  C   LIG A   1      -7.064   3.815 120.451  0.00  0.00    +0.026 A 
ATOM     10  C   LIG A   1      -6.070   4.625 119.871  0.00  0.00    +0.002 A 
ATOM     11  C   LIG A   1      -4.965   5.027 120.616  0.00  0.00    +0.001 A 
ATOM     12  C   LIG A   1      -4.885   4.660 121.974  0.00  0.00    +0.013 A 
ENDROOT
BRANCH   7  13
ATOM     13  C   LIG A   1      -9.476   2.118 124.372  0.00  0.00    +0.053 C 
BRANCH  13  14
ATOM     14  C   LIG A   1      -9.750   0.821 125.162  0.00  0.00    +0.006 C 
BRANCH  14  15
ATOM     15  C   LIG A   1      -8.734   0.262 126.153  0.00  0.00    +0.000 C 
BRANCH  15  16
ATOM     16  C   LIG A   1      -8.416  -1.227 126.148  0.00  0.00    +0.000 C 
BRANCH  16  17
ATOM     17  C   LIG A   1      -6.997  -1.520 125.592  0.00  0.00    -0.000 C 
BRANCH  17  18
ATOM     18  C   LIG A   1      -6.688  -1.485 124.049  0.00  0.00    -0.000 C 
BRANCH  18  19
ATOM     19  C   LIG A   1      -5.608  -2.419 123.437  0.00  0.00    -0.000 C 
BRANCH  19  20
ATOM     20  C   LIG A   1      -5.406  -3.808 124.099  0.00  0.00    -0.003 C 
ATOM     21  C   LIG A   1      -4.202  -4.560 123.506  0.00  0.00    +0.004 C 
ENDBRANCH  19  20
ENDBRANCH  18  19
ENDBRANCH  17  18
ENDBRANCH  16  17
ENDBRANCH  15  16
ENDBRANCH  14  15
ENDBRANCH  13  14
ENDBRANCH   7  13
TORSDOF 8
ENDMDL
