MODEL 1
REMARK VINA RESULT:      -8.2      0.000      0.000
REMARK  Name = NuBBE_1284
REMARK  12 active torsions:
REMARK  status: ('A' for Active; 'I' for Inactive)
REMARK    1  A    between atoms: O_1  and  C_2
REMARK    2  A    between atoms: C_4  and  O_5
REMARK    3  A    between atoms: C_8  and  O_9
REMARK    4  A    between atoms: O_9  and  C_10
REMARK    5  A    between atoms: C_11  and  O_13
REMARK    6  A    between atoms: C_14  and  O_16
REMARK    7  A    between atoms: C_17  and  O_19
REMARK    8  A    between atoms: C_20  and  C_22
REMARK    9  A    between atoms: C_24  and  C_28
REMARK   10  A    between atoms: C_30  and  O_31
REMARK   11  A    between atoms: C_32  and  O_36
REMARK   12  A    between atoms: C_33  and  O_34
REMARK                            x       y       z     vdW  Elec       q    Type
REMARK                         _______ _______ _______ _____ _____    ______ ____
ROOT
ATOM      1  C   LIG A   1      -3.088   3.729 127.423  0.00  0.00    +0.124 A 
ATOM      2  C   LIG A   1      -3.612   2.687 128.188  0.00  0.00    +0.091 A 
ATOM      3  C   LIG A   1      -4.841   2.141 127.828  0.00  0.00    +0.135 A 
ATOM      4  C   LIG A   1      -5.536   2.645 126.724  0.00  0.00    +0.109 A 
ATOM      5  C   LIG A   1      -6.915   2.266 126.403  0.00  0.00    +0.238 A 
ATOM      6  C   LIG A   1      -7.312   2.374 124.965  0.00  0.00    +0.214 A 
ATOM      7  C   LIG A   1      -6.606   3.270 124.231  0.00  0.00    +0.181 A 
ATOM      8  O   LIG A   1      -5.559   4.037 124.755  0.00  0.00    -0.451 OA
ATOM      9  C   LIG A   1      -4.959   3.612 125.913  0.00  0.00    +0.146 A 
ATOM     10  C   LIG A   1      -3.739   4.180 126.275  0.00  0.00    +0.092 A 
ATOM     11  O   LIG A   1      -7.697   1.946 127.295  0.00  0.00    -0.283 OA
ENDROOT
BRANCH   7  12
ATOM     12  C   LIG A   1      -6.849   3.550 122.784  0.00  0.00    +0.028 A 
ATOM     13  C   LIG A   1      -8.118   3.392 122.187  0.00  0.00    +0.061 A 
ATOM     14  C   LIG A   1      -8.301   3.637 120.826  0.00  0.00    +0.163 A 
ATOM     15  C   LIG A   1      -7.247   4.090 120.049  0.00  0.00    +0.201 A 
ATOM     16  C   LIG A   1      -6.003   4.293 120.621  0.00  0.00    +0.163 A 
ATOM     17  C   LIG A   1      -5.794   4.022 121.973  0.00  0.00    +0.061 A 
BRANCH  14  18
ATOM     18  O   LIG A   1      -9.507   3.444 120.212  0.00  0.00    -0.503 OA
ATOM     19  H   LIG A   1      -9.674   4.195 119.614  0.00  0.00    +0.292 HD
ENDBRANCH  14  18
BRANCH  16  20
ATOM     20  O   LIG A   1      -4.970   4.760 119.860  0.00  0.00    -0.503 OA
ATOM     21  H   LIG A   1      -5.007   4.224 119.040  0.00  0.00    +0.292 HD
ENDBRANCH  16  20
BRANCH  15  22
ATOM     22  O   LIG A   1      -7.422   4.347 118.716  0.00  0.00    -0.501 OA
ATOM     23  H   LIG A   1      -8.359   4.621 118.645  0.00  0.00    +0.292 HD
ENDBRANCH  15  22
ENDBRANCH   7  12
BRANCH   1  24
ATOM     24  O   LIG A   1      -1.916   4.334 127.768  0.00  0.00    -0.506 OA
ATOM     25  H   LIG A   1      -1.582   4.845 127.012  0.00  0.00    +0.292 HD
ENDBRANCH   1  24
BRANCH   3  26
ATOM     26  O   LIG A   1      -5.344   1.081 128.528  0.00  0.00    -0.506 OA
ATOM     27  H   LIG A   1      -5.072   1.124 129.459  0.00  0.00    +0.292 HD
ENDBRANCH   3  26
BRANCH   6  28
ATOM     28  O   LIG A   1      -8.324   1.603 124.408  0.00  0.00    -0.453 OA
BRANCH  28  29
ATOM     29  C   LIG A   1      -8.122   0.189 124.246  0.00  0.00    +0.340 C 
ATOM     30  C   LIG A   1      -8.906  -0.238 122.981  0.00  0.00    +0.214 C 
ATOM     31  C   LIG A   1      -8.811  -1.752 122.789  0.00  0.00    +0.180 C 
ATOM     32  C   LIG A   1      -9.171  -2.504 124.084  0.00  0.00    +0.174 C 
ATOM     33  C   LIG A   1      -8.376  -1.920 125.269  0.00  0.00    +0.150 C 
ATOM     34  C   LIG A   1      -8.735  -2.586 126.592  0.00  0.00    +0.040 C 
ATOM     35  O   LIG A   1      -8.639  -0.513 125.386  0.00  0.00    -0.334 OA
BRANCH  30  36
ATOM     36  O   LIG A   1     -10.293   0.135 123.085  0.00  0.00    -0.383 OA
ATOM     37  H   LIG A   1     -10.294   1.109 123.115  0.00  0.00    +0.210 HD
ENDBRANCH  30  36
BRANCH  31  38
ATOM     38  O   LIG A   1      -7.483  -2.119 122.385  0.00  0.00    -0.386 OA
ATOM     39  H   LIG A   1      -7.175  -2.735 123.081  0.00  0.00    +0.210 HD
ENDBRANCH  31  38
BRANCH  32  40
ATOM     40  O   LIG A   1      -8.876  -3.893 123.882  0.00  0.00    -0.387 OA
ATOM     41  H   LIG A   1      -9.501  -4.401 124.431  0.00  0.00    +0.210 HD
ENDBRANCH  32  40
ENDBRANCH  28  29
ENDBRANCH   6  28
TORSDOF 11
ENDMDL
MODEL 2
REMARK VINA RESULT:      -8.1      1.910      6.078
REMARK  Name = NuBBE_1284
REMARK  12 active torsions:
REMARK  status: ('A' for Active; 'I' for Inactive)
REMARK    1  A    between atoms: O_1  and  C_2
REMARK    2  A    between atoms: C_4  and  O_5
REMARK    3  A    between atoms: C_8  and  O_9
REMARK    4  A    between atoms: O_9  and  C_10
REMARK    5  A    between atoms: C_11  and  O_13
REMARK    6  A    between atoms: C_14  and  O_16
REMARK    7  A    between atoms: C_17  and  O_19
REMARK    8  A    between atoms: C_20  and  C_22
REMARK    9  A    between atoms: C_24  and  C_28
REMARK   10  A    between atoms: C_30  and  O_31
REMARK   11  A    between atoms: C_32  and  O_36
REMARK   12  A    between atoms: C_33  and  O_34
REMARK                            x       y       z     vdW  Elec       q    Type
REMARK                         _______ _______ _______ _____ _____    ______ ____
ROOT
ATOM      1  C   LIG A   1      -5.880   5.019 119.663  0.00  0.00    +0.124 A 
ATOM      2  C   LIG A   1      -7.192   4.555 119.595  0.00  0.00    +0.091 A 
ATOM      3  C   LIG A   1      -7.709   3.838 120.672  0.00  0.00    +0.135 A 
ATOM      4  C   LIG A   1      -6.910   3.583 121.792  0.00  0.00    +0.109 A 
ATOM      5  C   LIG A   1      -7.305   2.673 122.870  0.00  0.00    +0.238 A 
ATOM      6  C   LIG A   1      -6.702   2.937 124.213  0.00  0.00    +0.214 A 
ATOM      7  C   LIG A   1      -5.511   3.586 124.199  0.00  0.00    +0.181 A 
ATOM      8  O   LIG A   1      -4.880   4.009 123.024  0.00  0.00    -0.451 OA
ATOM      9  C   LIG A   1      -5.640   4.135 121.889  0.00  0.00    +0.146 A 
ATOM     10  C   LIG A   1      -5.107   4.837 120.808  0.00  0.00    +0.092 A 
ATOM     11  O   LIG A   1      -8.041   1.716 122.638  0.00  0.00    -0.283 OA
ENDROOT
BRANCH   7  12
ATOM     12  C   LIG A   1      -4.727   3.932 125.423  0.00  0.00    +0.028 A 
ATOM     13  C   LIG A   1      -5.037   5.050 126.227  0.00  0.00    +0.061 A 
ATOM     14  C   LIG A   1      -4.266   5.358 127.347  0.00  0.00    +0.163 A 
ATOM     15  C   LIG A   1      -3.212   4.538 127.718  0.00  0.00    +0.201 A 
ATOM     16  C   LIG A   1      -2.916   3.411 126.969  0.00  0.00    +0.163 A 
ATOM     17  C   LIG A   1      -3.656   3.107 125.828  0.00  0.00    +0.061 A 
BRANCH  14  18
ATOM     18  O   LIG A   1      -4.512   6.462 128.114  0.00  0.00    -0.503 OA
ATOM     19  H   LIG A   1      -5.446   6.445 128.391  0.00  0.00    +0.292 HD
ENDBRANCH  14  18
BRANCH  16  20
ATOM     20  O   LIG A   1      -1.891   2.592 127.348  0.00  0.00    -0.503 OA
ATOM     21  H   LIG A   1      -2.286   1.997 128.019  0.00  0.00    +0.292 HD
ENDBRANCH  16  20
BRANCH  15  22
ATOM     22  O   LIG A   1      -2.460   4.824 128.825  0.00  0.00    -0.501 OA
ATOM     23  H   LIG A   1      -3.072   5.315 129.412  0.00  0.00    +0.292 HD
ENDBRANCH  15  22
ENDBRANCH   7  12
BRANCH   1  24
ATOM     24  O   LIG A   1      -5.312   5.675 118.611  0.00  0.00    -0.506 OA
ATOM     25  H   LIG A   1      -5.807   5.472 117.799  0.00  0.00    +0.292 HD
ENDBRANCH   1  24
BRANCH   3  26
ATOM     26  O   LIG A   1      -9.011   3.425 120.652  0.00  0.00    -0.506 OA
ATOM     27  H   LIG A   1      -9.297   3.238 119.744  0.00  0.00    +0.292 HD
ENDBRANCH   3  26
BRANCH   6  28
ATOM     28  O   LIG A   1      -7.320   2.559 125.397  0.00  0.00    -0.453 OA
BRANCH  28  29
ATOM     29  C   LIG A   1      -7.069   1.249 125.934  0.00  0.00    +0.340 C 
ATOM     30  C   LIG A   1      -8.433   0.518 126.000  0.00  0.00    +0.214 C 
ATOM     31  C   LIG A   1      -8.263  -0.858 126.643  0.00  0.00    +0.180 C 
ATOM     32  C   LIG A   1      -7.491  -0.763 127.972  0.00  0.00    +0.174 C 
ATOM     33  C   LIG A   1      -6.200   0.057 127.772  0.00  0.00    +0.150 C 
ATOM     34  C   LIG A   1      -5.421   0.237 129.070  0.00  0.00    +0.040 C 
ATOM     35  O   LIG A   1      -6.524   1.357 127.257  0.00  0.00    -0.334 OA
BRANCH  30  36
ATOM     36  O   LIG A   1      -9.388   1.277 126.764  0.00  0.00    -0.383 OA
ATOM     37  H   LIG A   1      -9.644   0.696 127.503  0.00  0.00    +0.210 HD
ENDBRANCH  30  36
BRANCH  31  38
ATOM     38  O   LIG A   1      -7.560  -1.739 125.752  0.00  0.00    -0.386 OA
ATOM     39  H   LIG A   1      -7.434  -1.215 124.935  0.00  0.00    +0.210 HD
ENDBRANCH  31  38
BRANCH  32  40
ATOM     40  O   LIG A   1      -7.207  -2.098 128.412  0.00  0.00    -0.387 OA
ATOM     41  H   LIG A   1      -7.727  -2.249 129.223  0.00  0.00    +0.210 HD
ENDBRANCH  32  40
ENDBRANCH  28  29
ENDBRANCH   6  28
TORSDOF 11
ENDMDL
MODEL 3
REMARK VINA RESULT:      -8.0      6.010      9.704
REMARK  Name = NuBBE_1284
REMARK  12 active torsions:
REMARK  status: ('A' for Active; 'I' for Inactive)
REMARK    1  A    between atoms: O_1  and  C_2
REMARK    2  A    between atoms: C_4  and  O_5
REMARK    3  A    between atoms: C_8  and  O_9
REMARK    4  A    between atoms: O_9  and  C_10
REMARK    5  A    between atoms: C_11  and  O_13
REMARK    6  A    between atoms: C_14  and  O_16
REMARK    7  A    between atoms: C_17  and  O_19
REMARK    8  A    between atoms: C_20  and  C_22
REMARK    9  A    between atoms: C_24  and  C_28
REMARK   10  A    between atoms: C_30  and  O_31
REMARK   11  A    between atoms: C_32  and  O_36
REMARK   12  A    between atoms: C_33  and  O_34
REMARK                            x       y       z     vdW  Elec       q    Type
REMARK                         _______ _______ _______ _____ _____    ______ ____
ROOT
ATOM      1  C   LIG A   1     -13.017   9.093 128.553  0.00  0.00    +0.124 A 
ATOM      2  C   LIG A   1     -13.120   8.371 127.365  0.00  0.00    +0.091 A 
ATOM      3  C   LIG A   1     -12.172   7.387 127.091  0.00  0.00    +0.135 A 
ATOM      4  C   LIG A   1     -11.132   7.146 127.995  0.00  0.00    +0.109 A 
ATOM      5  C   LIG A   1      -9.991   6.278 127.692  0.00  0.00    +0.238 A 
ATOM      6  C   LIG A   1      -9.313   5.644 128.864  0.00  0.00    +0.214 A 
ATOM      7  C   LIG A   1      -9.439   6.309 130.040  0.00  0.00    +0.181 A 
ATOM      8  O   LIG A   1     -10.166   7.497 130.177  0.00  0.00    -0.451 OA
ATOM      9  C   LIG A   1     -11.099   7.801 129.218  0.00  0.00    +0.146 A 
ATOM     10  C   LIG A   1     -12.030   8.801 129.493  0.00  0.00    +0.092 A 
ATOM     11  O   LIG A   1      -9.596   6.151 126.535  0.00  0.00    -0.283 OA
ENDROOT
BRANCH   7  12
ATOM     12  C   LIG A   1      -8.827   5.863 131.328  0.00  0.00    +0.028 A 
ATOM     13  C   LIG A   1      -7.528   6.252 131.721  0.00  0.00    +0.061 A 
ATOM     14  C   LIG A   1      -6.979   5.794 132.919  0.00  0.00    +0.163 A 
ATOM     15  C   LIG A   1      -7.723   4.989 133.767  0.00  0.00    +0.201 A 
ATOM     16  C   LIG A   1      -9.015   4.629 133.422  0.00  0.00    +0.163 A 
ATOM     17  C   LIG A   1      -9.568   5.051 132.214  0.00  0.00    +0.061 A 
BRANCH  14  18
ATOM     18  O   LIG A   1      -5.706   6.113 133.300  0.00  0.00    -0.503 OA
ATOM     19  H   LIG A   1      -5.503   5.642 134.128  0.00  0.00    +0.292 HD
ENDBRANCH  14  18
BRANCH  16  20
ATOM     20  O   LIG A   1      -9.755   3.853 134.268  0.00  0.00    -0.503 OA
ATOM     21  H   LIG A   1     -10.161   4.489 134.894  0.00  0.00    +0.292 HD
ENDBRANCH  16  20
BRANCH  15  22
ATOM     22  O   LIG A   1      -7.197   4.547 134.951  0.00  0.00    -0.501 OA
ATOM     23  H   LIG A   1      -7.531   3.631 135.035  0.00  0.00    +0.292 HD
ENDBRANCH  15  22
ENDBRANCH   7  12
BRANCH   1  24
ATOM     24  O   LIG A   1     -13.887  10.104 128.838  0.00  0.00    -0.506 OA
ATOM     25  H   LIG A   1     -14.533   9.797 129.497  0.00  0.00    +0.292 HD
ENDBRANCH   1  24
BRANCH   3  26
ATOM     26  O   LIG A   1     -12.288   6.628 125.962  0.00  0.00    -0.506 OA
ATOM     27  H   LIG A   1     -12.957   5.935 126.082  0.00  0.00    +0.292 HD
ENDBRANCH   3  26
BRANCH   6  28
ATOM     28  O   LIG A   1      -8.613   4.449 128.767  0.00  0.00    -0.453 OA
BRANCH  28  29
ATOM     29  C   LIG A   1      -7.196   4.482 128.525  0.00  0.00    +0.340 C 
ATOM     30  C   LIG A   1      -6.967   3.927 127.097  0.00  0.00    +0.214 C 
ATOM     31  C   LIG A   1      -5.470   3.850 126.796  0.00  0.00    +0.180 C 
ATOM     32  C   LIG A   1      -4.709   3.128 127.924  0.00  0.00    +0.174 C 
ATOM     33  C   LIG A   1      -5.096   3.733 129.289  0.00  0.00    +0.150 C 
ATOM     34  C   LIG A   1      -4.418   3.018 130.452  0.00  0.00    +0.040 C 
ATOM     35  O   LIG A   1      -6.517   3.648 129.474  0.00  0.00    -0.334 OA
BRANCH  30  36
ATOM     36  O   LIG A   1      -7.541   2.614 126.958  0.00  0.00    -0.383 OA
ATOM     37  H   LIG A   1      -8.314   2.609 127.551  0.00  0.00    +0.210 HD
ENDBRANCH  30  36
BRANCH  31  38
ATOM     38  O   LIG A   1      -4.928   5.169 126.631  0.00  0.00    -0.386 OA
ATOM     39  H   LIG A   1      -4.845   5.282 125.661  0.00  0.00    +0.210 HD
ENDBRANCH  31  38
BRANCH  32  40
ATOM     40  O   LIG A   1      -3.306   3.264 127.664  0.00  0.00    -0.387 OA
ATOM     41  H   LIG A   1      -2.852   3.261 128.526  0.00  0.00    +0.210 HD
ENDBRANCH  32  40
ENDBRANCH  28  29
ENDBRANCH   6  28
TORSDOF 11
ENDMDL
MODEL 4
REMARK VINA RESULT:      -7.9      3.972      6.990
REMARK  Name = NuBBE_1284
REMARK  12 active torsions:
REMARK  status: ('A' for Active; 'I' for Inactive)
REMARK    1  A    between atoms: O_1  and  C_2
REMARK    2  A    between atoms: C_4  and  O_5
REMARK    3  A    between atoms: C_8  and  O_9
REMARK    4  A    between atoms: O_9  and  C_10
REMARK    5  A    between atoms: C_11  and  O_13
REMARK    6  A    between atoms: C_14  and  O_16
REMARK    7  A    between atoms: C_17  and  O_19
REMARK    8  A    between atoms: C_20  and  C_22
REMARK    9  A    between atoms: C_24  and  C_28
REMARK   10  A    between atoms: C_30  and  O_31
REMARK   11  A    between atoms: C_32  and  O_36
REMARK   12  A    between atoms: C_33  and  O_34
REMARK                            x       y       z     vdW  Elec       q    Type
REMARK                         _______ _______ _______ _____ _____    ______ ____
ROOT
ATOM      1  C   LIG A   1      -2.619   3.530 126.726  0.00  0.00    +0.124 A 
ATOM      2  C   LIG A   1      -3.116   4.643 127.402  0.00  0.00    +0.091 A 
ATOM      3  C   LIG A   1      -4.475   4.697 127.701  0.00  0.00    +0.135 A 
ATOM      4  C   LIG A   1      -5.320   3.652 127.312  0.00  0.00    +0.109 A 
ATOM      5  C   LIG A   1      -6.780   3.723 127.406  0.00  0.00    +0.238 A 
ATOM      6  C   LIG A   1      -7.498   2.418 127.541  0.00  0.00    +0.214 A 
ATOM      7  C   LIG A   1      -6.846   1.340 127.038  0.00  0.00    +0.181 A 
ATOM      8  O   LIG A   1      -5.579   1.414 126.450  0.00  0.00    -0.451 OA
ATOM      9  C   LIG A   1      -4.797   2.506 126.728  0.00  0.00    +0.146 A 
ATOM     10  C   LIG A   1      -3.442   2.451 126.407  0.00  0.00    +0.092 A 
ATOM     11  O   LIG A   1      -7.358   4.803 127.312  0.00  0.00    -0.283 OA
ENDROOT
BRANCH   7  12
ATOM     12  C   LIG A   1      -7.389  -0.052 127.050  0.00  0.00    +0.028 A 
ATOM     13  C   LIG A   1      -8.274  -0.526 126.057  0.00  0.00    +0.061 A 
ATOM     14  C   LIG A   1      -8.781  -1.824 126.116  0.00  0.00    +0.163 A 
ATOM     15  C   LIG A   1      -8.383  -2.686 127.125  0.00  0.00    +0.201 A 
ATOM     16  C   LIG A   1      -7.484  -2.256 128.086  0.00  0.00    +0.163 A 
ATOM     17  C   LIG A   1      -6.991  -0.953 128.062  0.00  0.00    +0.061 A 
BRANCH  14  18
ATOM     18  O   LIG A   1      -9.678  -2.292 125.196  0.00  0.00    -0.503 OA
ATOM     19  H   LIG A   1      -9.775  -1.627 124.492  0.00  0.00    +0.292 HD
ENDBRANCH  14  18
BRANCH  16  20
ATOM     20  O   LIG A   1      -7.075  -3.113 129.068  0.00  0.00    -0.503 OA
ATOM     21  H   LIG A   1      -7.637  -3.908 128.952  0.00  0.00    +0.292 HD
ENDBRANCH  16  20
BRANCH  15  22
ATOM     22  O   LIG A   1      -8.865  -3.966 127.181  0.00  0.00    -0.501 OA
ATOM     23  H   LIG A   1      -9.348  -4.078 126.337  0.00  0.00    +0.292 HD
ENDBRANCH  15  22
ENDBRANCH   7  12
BRANCH   1  24
ATOM     24  O   LIG A   1      -1.306   3.457 126.362  0.00  0.00    -0.506 OA
ATOM     25  H   LIG A   1      -0.993   2.543 126.465  0.00  0.00    +0.292 HD
ENDBRANCH   1  24
BRANCH   3  26
ATOM     26  O   LIG A   1      -4.972   5.750 128.415  0.00  0.00    -0.506 OA
ATOM     27  H   LIG A   1      -4.727   5.676 129.351  0.00  0.00    +0.292 HD
ENDBRANCH   3  26
BRANCH   6  28
ATOM     28  O   LIG A   1      -8.742   2.308 128.149  0.00  0.00    -0.453 OA
BRANCH  28  29
ATOM     29  C   LIG A   1      -8.817   2.195 129.580  0.00  0.00    +0.340 C 
ATOM     30  C   LIG A   1      -9.803   3.285 130.069  0.00  0.00    +0.214 C 
ATOM     31  C   LIG A   1      -9.871   3.285 131.597  0.00  0.00    +0.180 C 
ATOM     32  C   LIG A   1      -8.463   3.328 132.219  0.00  0.00    +0.174 C 
ATOM     33  C   LIG A   1      -7.573   2.243 131.581  0.00  0.00    +0.150 C 
ATOM     34  C   LIG A   1      -6.146   2.276 132.117  0.00  0.00    +0.040 C 
ATOM     35  O   LIG A   1      -7.525   2.428 130.159  0.00  0.00    -0.334 OA
BRANCH  30  36
ATOM     36  O   LIG A   1      -9.392   4.589 129.619  0.00  0.00    -0.383 OA
ATOM     37  H   LIG A   1     -10.220   5.064 129.423  0.00  0.00    +0.210 HD
ENDBRANCH  30  36
BRANCH  31  38
ATOM     38  O   LIG A   1     -10.557   2.113 132.063  0.00  0.00    -0.386 OA
ATOM     39  H   LIG A   1      -9.874   1.603 132.547  0.00  0.00    +0.210 HD
ENDBRANCH  31  38
BRANCH  32  40
ATOM     40  O   LIG A   1      -8.603   3.134 133.634  0.00  0.00    -0.387 OA
ATOM     41  H   LIG A   1      -9.350   2.523 133.767  0.00  0.00    +0.210 HD
ENDBRANCH  32  40
ENDBRANCH  28  29
ENDBRANCH   6  28
TORSDOF 11
ENDMDL
MODEL 5
REMARK VINA RESULT:      -7.7      3.566      6.606
REMARK  Name = NuBBE_1284
REMARK  12 active torsions:
REMARK  status: ('A' for Active; 'I' for Inactive)
REMARK    1  A    between atoms: O_1  and  C_2
REMARK    2  A    between atoms: C_4  and  O_5
REMARK    3  A    between atoms: C_8  and  O_9
REMARK    4  A    between atoms: O_9  and  C_10
REMARK    5  A    between atoms: C_11  and  O_13
REMARK    6  A    between atoms: C_14  and  O_16
REMARK    7  A    between atoms: C_17  and  O_19
REMARK    8  A    between atoms: C_20  and  C_22
REMARK    9  A    between atoms: C_24  and  C_28
REMARK   10  A    between atoms: C_30  and  O_31
REMARK   11  A    between atoms: C_32  and  O_36
REMARK   12  A    between atoms: C_33  and  O_34
REMARK                            x       y       z     vdW  Elec       q    Type
REMARK                         _______ _______ _______ _____ _____    ______ ____
ROOT
ATOM      1  C   LIG A   1      -2.588   5.587 128.164  0.00  0.00    +0.124 A 
ATOM      2  C   LIG A   1      -2.388   4.468 127.358  0.00  0.00    +0.091 A 
ATOM      3  C   LIG A   1      -3.292   3.410 127.439  0.00  0.00    +0.135 A 
ATOM      4  C   LIG A   1      -4.370   3.477 128.327  0.00  0.00    +0.109 A 
ATOM      5  C   LIG A   1      -5.242   2.336 128.618  0.00  0.00    +0.238 A 
ATOM      6  C   LIG A   1      -6.631   2.662 129.066  0.00  0.00    +0.214 A 
ATOM      7  C   LIG A   1      -6.782   3.873 129.660  0.00  0.00    +0.181 A 
ATOM      8  O   LIG A   1      -5.731   4.780 129.833  0.00  0.00    -0.451 OA
ATOM      9  C   LIG A   1      -4.614   4.637 129.050  0.00  0.00    +0.146 A 
ATOM     10  C   LIG A   1      -3.705   5.692 128.991  0.00  0.00    +0.092 A 
ATOM     11  O   LIG A   1      -4.808   1.188 128.551  0.00  0.00    -0.283 OA
ENDROOT
BRANCH   7  12
ATOM     12  C   LIG A   1      -8.077   4.390 130.198  0.00  0.00    +0.028 A 
ATOM     13  C   LIG A   1      -8.413   4.307 131.566  0.00  0.00    +0.061 A 
ATOM     14  C   LIG A   1      -9.642   4.776 132.027  0.00  0.00    +0.163 A 
ATOM     15  C   LIG A   1     -10.534   5.379 131.154  0.00  0.00    +0.201 A 
ATOM     16  C   LIG A   1     -10.208   5.510 129.815  0.00  0.00    +0.163 A 
ATOM     17  C   LIG A   1      -8.997   5.017 129.330  0.00  0.00    +0.061 A 
BRANCH  14  18
ATOM     18  O   LIG A   1     -10.014   4.663 133.338  0.00  0.00    -0.503 OA
ATOM     19  H   LIG A   1     -10.845   5.154 133.467  0.00  0.00    +0.292 HD
ENDBRANCH  14  18
BRANCH  16  20
ATOM     20  O   LIG A   1     -11.077   6.124 128.959  0.00  0.00    -0.503 OA
ATOM     21  H   LIG A   1     -11.503   6.822 129.499  0.00  0.00    +0.292 HD
ENDBRANCH  16  20
BRANCH  15  22
ATOM     22  O   LIG A   1     -11.736   5.856 131.602  0.00  0.00    -0.501 OA
ATOM     23  H   LIG A   1     -11.611   6.826 131.641  0.00  0.00    +0.292 HD
ENDBRANCH  15  22
ENDBRANCH   7  12
BRANCH   1  24
ATOM     24  O   LIG A   1      -1.700   6.622 128.162  0.00  0.00    -0.506 OA
ATOM     25  H   LIG A   1      -2.100   7.391 128.602  0.00  0.00    +0.292 HD
ENDBRANCH   1  24
BRANCH   3  26
ATOM     26  O   LIG A   1      -3.148   2.330 126.616  0.00  0.00    -0.506 OA
ATOM     27  H   LIG A   1      -2.578   2.547 125.861  0.00  0.00    +0.292 HD
ENDBRANCH   3  26
BRANCH   6  28
ATOM     28  O   LIG A   1      -7.700   1.797 128.878  0.00  0.00    -0.453 OA
BRANCH  28  29
ATOM     29  C   LIG A   1      -8.325   1.720 127.586  0.00  0.00    +0.340 C 
ATOM     30  C   LIG A   1      -8.243   0.242 127.130  0.00  0.00    +0.214 C 
ATOM     31  C   LIG A   1      -8.813   0.094 125.719  0.00  0.00    +0.180 C 
ATOM     32  C   LIG A   1      -8.195   1.126 124.756  0.00  0.00    +0.174 C 
ATOM     33  C   LIG A   1      -8.275   2.536 125.374  0.00  0.00    +0.150 C 
ATOM     34  C   LIG A   1      -7.625   3.594 124.490  0.00  0.00    +0.040 C 
ATOM     35  O   LIG A   1      -7.616   2.546 126.650  0.00  0.00    -0.334 OA
BRANCH  30  36
ATOM     36  O   LIG A   1      -6.882  -0.224 127.137  0.00  0.00    -0.383 OA
ATOM     37  H   LIG A   1      -6.916  -1.109 127.544  0.00  0.00    +0.210 HD
ENDBRANCH  30  36
BRANCH  31  38
ATOM     38  O   LIG A   1     -10.239   0.262 125.738  0.00  0.00    -0.386 OA
ATOM     39  H   LIG A   1     -10.493   0.321 124.794  0.00  0.00    +0.210 HD
ENDBRANCH  31  38
BRANCH  32  40
ATOM     40  O   LIG A   1      -8.911   1.051 123.515  0.00  0.00    -0.387 OA
ATOM     41  H   LIG A   1      -9.641   1.694 123.565  0.00  0.00    +0.210 HD
ENDBRANCH  32  40
ENDBRANCH  28  29
ENDBRANCH   6  28
TORSDOF 11
ENDMDL
MODEL 6
REMARK VINA RESULT:      -7.7      3.388      5.089
REMARK  Name = NuBBE_1284
REMARK  12 active torsions:
REMARK  status: ('A' for Active; 'I' for Inactive)
REMARK    1  A    between atoms: O_1  and  C_2
REMARK    2  A    between atoms: C_4  and  O_5
REMARK    3  A    between atoms: C_8  and  O_9
REMARK    4  A    between atoms: O_9  and  C_10
REMARK    5  A    between atoms: C_11  and  O_13
REMARK    6  A    between atoms: C_14  and  O_16
REMARK    7  A    between atoms: C_17  and  O_19
REMARK    8  A    between atoms: C_20  and  C_22
REMARK    9  A    between atoms: C_24  and  C_28
REMARK   10  A    between atoms: C_30  and  O_31
REMARK   11  A    between atoms: C_32  and  O_36
REMARK   12  A    between atoms: C_33  and  O_34
REMARK                            x       y       z     vdW  Elec       q    Type
REMARK                         _______ _______ _______ _____ _____    ______ ____
ROOT
ATOM      1  C   LIG A   1      -9.551   3.783 132.287  0.00  0.00    +0.124 A 
ATOM      2  C   LIG A   1      -8.977   2.712 132.971  0.00  0.00    +0.091 A 
ATOM      3  C   LIG A   1      -8.444   1.655 132.238  0.00  0.00    +0.135 A 
ATOM      4  C   LIG A   1      -8.500   1.672 130.841  0.00  0.00    +0.109 A 
ATOM      5  C   LIG A   1      -8.147   0.518 130.009  0.00  0.00    +0.238 A 
ATOM      6  C   LIG A   1      -7.678   0.821 128.622  0.00  0.00    +0.214 A 
ATOM      7  C   LIG A   1      -8.118   1.995 128.102  0.00  0.00    +0.181 A 
ATOM      8  O   LIG A   1      -8.936   2.887 128.804  0.00  0.00    -0.451 OA
ATOM      9  C   LIG A   1      -8.983   2.788 130.171  0.00  0.00    +0.146 A 
ATOM     10  C   LIG A   1      -9.538   3.842 130.894  0.00  0.00    +0.092 A 
ATOM     11  O   LIG A   1      -8.301  -0.625 130.433  0.00  0.00    -0.283 OA
ENDROOT
BRANCH   7  12
ATOM     12  C   LIG A   1      -7.787   2.483 126.729  0.00  0.00    +0.028 A 
ATOM     13  C   LIG A   1      -6.527   3.029 126.405  0.00  0.00    +0.061 A 
ATOM     14  C   LIG A   1      -6.263   3.500 125.119  0.00  0.00    +0.163 A 
ATOM     15  C   LIG A   1      -7.222   3.391 124.124  0.00  0.00    +0.201 A 
ATOM     16  C   LIG A   1      -8.451   2.821 124.408  0.00  0.00    +0.163 A 
ATOM     17  C   LIG A   1      -8.743   2.375 125.696  0.00  0.00    +0.061 A 
BRANCH  14  18
ATOM     18  O   LIG A   1      -5.069   4.079 124.791  0.00  0.00    -0.503 OA
ATOM     19  H   LIG A   1      -5.186   5.045 124.780  0.00  0.00    +0.292 HD
ENDBRANCH  14  18
BRANCH  16  20
ATOM     20  O   LIG A   1      -9.387   2.694 123.422  0.00  0.00    -0.503 OA
ATOM     21  H   LIG A   1      -9.948   3.493 123.511  0.00  0.00    +0.292 HD
ENDBRANCH  16  20
BRANCH  15  22
ATOM     22  O   LIG A   1      -6.966   3.837 122.856  0.00  0.00    -0.501 OA
ATOM     23  H   LIG A   1      -6.084   4.258 122.922  0.00  0.00    +0.292 HD
ENDBRANCH  15  22
ENDBRANCH   7  12
BRANCH   1  24
ATOM     24  O   LIG A   1     -10.137   4.814 132.961  0.00  0.00    -0.506 OA
ATOM     25  H   LIG A   1     -10.283   5.557 132.351  0.00  0.00    +0.292 HD
ENDBRANCH   1  24
BRANCH   3  26
ATOM     26  O   LIG A   1      -7.824   0.625 132.886  0.00  0.00    -0.506 OA
ATOM     27  H   LIG A   1      -6.879   0.814 133.006  0.00  0.00    +0.292 HD
ENDBRANCH   3  26
BRANCH   6  28
ATOM     28  O   LIG A   1      -6.840  -0.028 127.913  0.00  0.00    -0.453 OA
BRANCH  28  29
ATOM     29  C   LIG A   1      -7.365  -0.760 126.793  0.00  0.00    +0.340 C 
ATOM     30  C   LIG A   1      -8.245  -1.898 127.367  0.00  0.00    +0.214 C 
ATOM     31  C   LIG A   1      -8.773  -2.778 126.233  0.00  0.00    +0.180 C 
ATOM     32  C   LIG A   1      -7.636  -3.222 125.294  0.00  0.00    +0.174 C 
ATOM     33  C   LIG A   1      -6.798  -1.999 124.868  0.00  0.00    +0.150 C 
ATOM     34  C   LIG A   1      -5.619  -2.384 123.983  0.00  0.00    +0.040 C 
ATOM     35  O   LIG A   1      -6.289  -1.329 126.032  0.00  0.00    -0.334 OA
BRANCH  30  36
ATOM     36  O   LIG A   1      -7.496  -2.715 128.284  0.00  0.00    -0.383 OA
ATOM     37  H   LIG A   1      -7.623  -3.630 127.975  0.00  0.00    +0.210 HD
ENDBRANCH  30  36
BRANCH  31  38
ATOM     38  O   LIG A   1      -9.762  -2.068 125.473  0.00  0.00    -0.386 OA
ATOM     39  H   LIG A   1      -9.565  -1.122 125.633  0.00  0.00    +0.210 HD
ENDBRANCH  31  38
BRANCH  32  40
ATOM     40  O   LIG A   1      -8.230  -3.875 124.164  0.00  0.00    -0.387 OA
ATOM     41  H   LIG A   1      -9.169  -3.617 124.145  0.00  0.00    +0.210 HD
ENDBRANCH  32  40
ENDBRANCH  28  29
ENDBRANCH   6  28
TORSDOF 11
ENDMDL
MODEL 7
REMARK VINA RESULT:      -7.7      3.674      7.488
REMARK  Name = NuBBE_1284
REMARK  12 active torsions:
REMARK  status: ('A' for Active; 'I' for Inactive)
REMARK    1  A    between atoms: O_1  and  C_2
REMARK    2  A    between atoms: C_4  and  O_5
REMARK    3  A    between atoms: C_8  and  O_9
REMARK    4  A    between atoms: O_9  and  C_10
REMARK    5  A    between atoms: C_11  and  O_13
REMARK    6  A    between atoms: C_14  and  O_16
REMARK    7  A    between atoms: C_17  and  O_19
REMARK    8  A    between atoms: C_20  and  C_22
REMARK    9  A    between atoms: C_24  and  C_28
REMARK   10  A    between atoms: C_30  and  O_31
REMARK   11  A    between atoms: C_32  and  O_36
REMARK   12  A    between atoms: C_33  and  O_34
REMARK                            x       y       z     vdW  Elec       q    Type
REMARK                         _______ _______ _______ _____ _____    ______ ____
ROOT
ATOM      1  C   LIG A   1      -6.514  -2.436 130.304  0.00  0.00    +0.124 A 
ATOM      2  C   LIG A   1      -6.281  -2.747 128.965  0.00  0.00    +0.091 A 
ATOM      3  C   LIG A   1      -6.780  -1.897 127.980  0.00  0.00    +0.135 A 
ATOM      4  C   LIG A   1      -7.511  -0.761 128.341  0.00  0.00    +0.109 A 
ATOM      5  C   LIG A   1      -8.236   0.067 127.373  0.00  0.00    +0.238 A 
ATOM      6  C   LIG A   1      -8.447   1.498 127.754  0.00  0.00    +0.214 A 
ATOM      7  C   LIG A   1      -8.452   1.751 129.087  0.00  0.00    +0.181 A 
ATOM      8  O   LIG A   1      -8.253   0.763 130.058  0.00  0.00    -0.451 OA
ATOM      9  C   LIG A   1      -7.650  -0.409 129.676  0.00  0.00    +0.146 A 
ATOM     10  C   LIG A   1      -7.173  -1.263 130.669  0.00  0.00    +0.092 A 
ATOM     11  O   LIG A   1      -8.690  -0.430 126.345  0.00  0.00    -0.283 OA
ENDROOT
BRANCH   7  12
ATOM     12  C   LIG A   1      -8.665   3.103 129.686  0.00  0.00    +0.028 A 
ATOM     13  C   LIG A   1      -7.654   4.088 129.706  0.00  0.00    +0.061 A 
ATOM     14  C   LIG A   1      -7.881   5.330 130.298  0.00  0.00    +0.163 A 
ATOM     15  C   LIG A   1      -9.123   5.635 130.832  0.00  0.00    +0.201 A 
ATOM     16  C   LIG A   1     -10.143   4.699 130.786  0.00  0.00    +0.163 A 
ATOM     17  C   LIG A   1      -9.924   3.441 130.227  0.00  0.00    +0.061 A 
BRANCH  14  18
ATOM     18  O   LIG A   1      -6.904   6.284 130.376  0.00  0.00    -0.503 OA
ATOM     19  H   LIG A   1      -7.324   7.144 130.552  0.00  0.00    +0.292 HD
ENDBRANCH  14  18
BRANCH  16  20
ATOM     20  O   LIG A   1     -11.373   5.008 131.293  0.00  0.00    -0.503 OA
ATOM     21  H   LIG A   1     -11.267   5.907 131.668  0.00  0.00    +0.292 HD
ENDBRANCH  16  20
BRANCH  15  22
ATOM     22  O   LIG A   1      -9.358   6.857 131.402  0.00  0.00    -0.501 OA
ATOM     23  H   LIG A   1      -9.193   7.495 130.678  0.00  0.00    +0.292 HD
ENDBRANCH  15  22
ENDBRANCH   7  12
BRANCH   1  24
ATOM     24  O   LIG A   1      -6.095  -3.267 131.301  0.00  0.00    -0.506 OA
ATOM     25  H   LIG A   1      -5.382  -2.836 131.801  0.00  0.00    +0.292 HD
ENDBRANCH   1  24
BRANCH   3  26
ATOM     26  O   LIG A   1      -6.513  -2.151 126.665  0.00  0.00    -0.506 OA
ATOM     27  H   LIG A   1      -5.571  -2.349 126.539  0.00  0.00    +0.292 HD
ENDBRANCH   3  26
BRANCH   6  28
ATOM     28  O   LIG A   1      -8.615   2.506 126.814  0.00  0.00    -0.453 OA
BRANCH  28  29
ATOM     29  C   LIG A   1      -7.495   2.910 126.010  0.00  0.00    +0.340 C 
ATOM     30  C   LIG A   1      -7.473   4.459 126.008  0.00  0.00    +0.214 C 
ATOM     31  C   LIG A   1      -6.355   4.969 125.099  0.00  0.00    +0.180 C 
ATOM     32  C   LIG A   1      -6.412   4.300 123.713  0.00  0.00    +0.174 C 
ATOM     33  C   LIG A   1      -6.511   2.769 123.872  0.00  0.00    +0.150 C 
ATOM     34  C   LIG A   1      -6.631   2.054 122.531  0.00  0.00    +0.040 C 
ATOM     35  O   LIG A   1      -7.660   2.435 124.665  0.00  0.00    -0.334 OA
BRANCH  30  36
ATOM     36  O   LIG A   1      -8.730   4.990 125.549  0.00  0.00    -0.383 OA
ATOM     37  H   LIG A   1      -9.273   5.093 126.351  0.00  0.00    +0.210 HD
ENDBRANCH  30  36
BRANCH  31  38
ATOM     38  O   LIG A   1      -5.074   4.711 125.694  0.00  0.00    -0.386 OA
ATOM     39  H   LIG A   1      -4.537   5.501 125.476  0.00  0.00    +0.210 HD
ENDBRANCH  31  38
BRANCH  32  40
ATOM     40  O   LIG A   1      -5.233   4.682 122.992  0.00  0.00    -0.387 OA
ATOM     41  H   LIG A   1      -4.529   4.057 123.242  0.00  0.00    +0.210 HD
ENDBRANCH  32  40
ENDBRANCH  28  29
ENDBRANCH   6  28
TORSDOF 11
ENDMDL
MODEL 8
REMARK VINA RESULT:      -7.7      5.870      8.155
REMARK  Name = NuBBE_1284
REMARK  12 active torsions:
REMARK  status: ('A' for Active; 'I' for Inactive)
REMARK    1  A    between atoms: O_1  and  C_2
REMARK    2  A    between atoms: C_4  and  O_5
REMARK    3  A    between atoms: C_8  and  O_9
REMARK    4  A    between atoms: O_9  and  C_10
REMARK    5  A    between atoms: C_11  and  O_13
REMARK    6  A    between atoms: C_14  and  O_16
REMARK    7  A    between atoms: C_17  and  O_19
REMARK    8  A    between atoms: C_20  and  C_22
REMARK    9  A    between atoms: C_24  and  C_28
REMARK   10  A    between atoms: C_30  and  O_31
REMARK   11  A    between atoms: C_32  and  O_36
REMARK   12  A    between atoms: C_33  and  O_34
REMARK                            x       y       z     vdW  Elec       q    Type
REMARK                         _______ _______ _______ _____ _____    ______ ____
ROOT
ATOM      1  C   LIG A   1      -6.397   4.156 135.268  0.00  0.00    +0.124 A 
ATOM      2  C   LIG A   1      -5.802   3.074 134.620  0.00  0.00    +0.091 A 
ATOM      3  C   LIG A   1      -6.363   2.611 133.432  0.00  0.00    +0.135 A 
ATOM      4  C   LIG A   1      -7.510   3.221 132.914  0.00  0.00    +0.109 A 
ATOM      5  C   LIG A   1      -8.272   2.673 131.789  0.00  0.00    +0.238 A 
ATOM      6  C   LIG A   1      -9.055   3.657 130.979  0.00  0.00    +0.214 A 
ATOM      7  C   LIG A   1      -9.419   4.789 131.631  0.00  0.00    +0.181 A 
ATOM      8  O   LIG A   1      -9.079   5.052 132.963  0.00  0.00    -0.451 OA
ATOM      9  C   LIG A   1      -8.033   4.358 133.515  0.00  0.00    +0.146 A 
ATOM     10  C   LIG A   1      -7.492   4.817 134.715  0.00  0.00    +0.092 A 
ATOM     11  O   LIG A   1      -8.300   1.461 131.587  0.00  0.00    -0.283 OA
ENDROOT
BRANCH   7  12
ATOM     12  C   LIG A   1     -10.220   5.893 131.019  0.00  0.00    +0.028 A 
ATOM     13  C   LIG A   1      -9.728   6.682 129.957  0.00  0.00    +0.061 A 
ATOM     14  C   LIG A   1     -10.494   7.721 129.429  0.00  0.00    +0.163 A 
ATOM     15  C   LIG A   1     -11.773   7.961 129.906  0.00  0.00    +0.201 A 
ATOM     16  C   LIG A   1     -12.292   7.172 130.918  0.00  0.00    +0.163 A 
ATOM     17  C   LIG A   1     -11.529   6.150 131.480  0.00  0.00    +0.061 A 
BRANCH  14  18
ATOM     18  O   LIG A   1     -10.023   8.534 128.435  0.00  0.00    -0.503 OA
ATOM     19  H   LIG A   1      -9.097   8.761 128.633  0.00  0.00    +0.292 HD
ENDBRANCH  14  18
BRANCH  16  20
ATOM     20  O   LIG A   1     -13.560   7.396 131.373  0.00  0.00    -0.503 OA
ATOM     21  H   LIG A   1     -13.805   8.269 131.003  0.00  0.00    +0.292 HD
ENDBRANCH  16  20
BRANCH  15  22
ATOM     22  O   LIG A   1     -12.536   8.970 129.382  0.00  0.00    -0.501 OA
ATOM     23  H   LIG A   1     -12.283   8.997 128.437  0.00  0.00    +0.292 HD
ENDBRANCH  15  22
ENDBRANCH   7  12
BRANCH   1  24
ATOM     24  O   LIG A   1      -5.918   4.608 136.463  0.00  0.00    -0.506 OA
ATOM     25  H   LIG A   1      -6.593   5.162 136.891  0.00  0.00    +0.292 HD
ENDBRANCH   1  24
BRANCH   3  26
ATOM     26  O   LIG A   1      -5.762   1.591 132.749  0.00  0.00    -0.506 OA
ATOM     27  H   LIG A   1      -6.015   0.732 133.124  0.00  0.00    +0.292 HD
ENDBRANCH   3  26
BRANCH   6  28
ATOM     28  O   LIG A   1      -9.380   3.439 129.647  0.00  0.00    -0.453 OA
BRANCH  28  29
ATOM     29  C   LIG A   1      -8.410   2.832 128.777  0.00  0.00    +0.340 C 
ATOM     30  C   LIG A   1      -7.649   3.983 128.073  0.00  0.00    +0.214 C 
ATOM     31  C   LIG A   1      -6.653   3.416 127.062  0.00  0.00    +0.180 C 
ATOM     32  C   LIG A   1      -7.326   2.391 126.130  0.00  0.00    +0.174 C 
ATOM     33  C   LIG A   1      -8.109   1.356 126.963  0.00  0.00    +0.150 C 
ATOM     34  C   LIG A   1      -8.847   0.348 126.090  0.00  0.00    +0.040 C 
ATOM     35  O   LIG A   1      -9.072   2.027 127.791  0.00  0.00    -0.334 OA
BRANCH  30  36
ATOM     36  O   LIG A   1      -8.562   4.861 127.389  0.00  0.00    -0.383 OA
ATOM     37  H   LIG A   1      -8.428   4.682 126.441  0.00  0.00    +0.210 HD
ENDBRANCH  30  36
BRANCH  31  38
ATOM     38  O   LIG A   1      -5.558   2.785 127.744  0.00  0.00    -0.386 OA
ATOM     39  H   LIG A   1      -5.857   2.709 128.674  0.00  0.00    +0.210 HD
ENDBRANCH  31  38
BRANCH  32  40
ATOM     40  O   LIG A   1      -6.298   1.769 125.346  0.00  0.00    -0.387 OA
ATOM     41  H   LIG A   1      -5.446   1.992 125.762  0.00  0.00    +0.210 HD
ENDBRANCH  32  40
ENDBRANCH  28  29
ENDBRANCH   6  28
TORSDOF 11
ENDMDL
MODEL 9
REMARK VINA RESULT:      -7.6      6.816      9.945
REMARK  Name = NuBBE_1284
REMARK  12 active torsions:
REMARK  status: ('A' for Active; 'I' for Inactive)
REMARK    1  A    between atoms: O_1  and  C_2
REMARK    2  A    between atoms: C_4  and  O_5
REMARK    3  A    between atoms: C_8  and  O_9
REMARK    4  A    between atoms: O_9  and  C_10
REMARK    5  A    between atoms: C_11  and  O_13
REMARK    6  A    between atoms: C_14  and  O_16
REMARK    7  A    between atoms: C_17  and  O_19
REMARK    8  A    between atoms: C_20  and  C_22
REMARK    9  A    between atoms: C_24  and  C_28
REMARK   10  A    between atoms: C_30  and  O_31
REMARK   11  A    between atoms: C_32  and  O_36
REMARK   12  A    between atoms: C_33  and  O_34
REMARK                            x       y       z     vdW  Elec       q    Type
REMARK                         _______ _______ _______ _____ _____    ______ ____
ROOT
ATOM      1  C   LIG A   1      -6.703   5.917 136.835  0.00  0.00    +0.124 A 
ATOM      2  C   LIG A   1      -5.524   5.302 136.416  0.00  0.00    +0.091 A 
ATOM      3  C   LIG A   1      -5.453   4.796 135.120  0.00  0.00    +0.135 A 
ATOM      4  C   LIG A   1      -6.556   4.898 134.266  0.00  0.00    +0.109 A 
ATOM      5  C   LIG A   1      -6.633   4.220 132.970  0.00  0.00    +0.238 A 
ATOM      6  C   LIG A   1      -7.519   4.852 131.945  0.00  0.00    +0.214 A 
ATOM      7  C   LIG A   1      -8.528   5.613 132.437  0.00  0.00    +0.181 A 
ATOM      8  O   LIG A   1      -8.734   5.826 133.804  0.00  0.00    -0.451 OA
ATOM      9  C   LIG A   1      -7.686   5.601 134.661  0.00  0.00    +0.146 A 
ATOM     10  C   LIG A   1      -7.776   6.093 135.962  0.00  0.00    +0.092 A 
ATOM     11  O   LIG A   1      -6.043   3.157 132.788  0.00  0.00    -0.283 OA
ENDROOT
BRANCH   7  12
ATOM     12  C   LIG A   1      -9.539   6.318 131.592  0.00  0.00    +0.028 A 
ATOM     13  C   LIG A   1      -9.192   6.984 130.396  0.00  0.00    +0.061 A 
ATOM     14  C   LIG A   1     -10.159   7.655 129.648  0.00  0.00    +0.163 A 
ATOM     15  C   LIG A   1     -11.487   7.634 130.041  0.00  0.00    +0.201 A 
ATOM     16  C   LIG A   1     -11.858   6.952 131.188  0.00  0.00    +0.163 A 
ATOM     17  C   LIG A   1     -10.900   6.304 131.966  0.00  0.00    +0.061 A 
BRANCH  14  18
ATOM     18  O   LIG A   1      -9.842   8.349 128.513  0.00  0.00    -0.503 OA
ATOM     19  H   LIG A   1      -9.004   8.822 128.664  0.00  0.00    +0.292 HD
ENDBRANCH  14  18
BRANCH  16  20
ATOM     20  O   LIG A   1     -13.171   6.915 131.564  0.00  0.00    -0.503 OA
ATOM     21  H   LIG A   1     -13.588   7.654 131.075  0.00  0.00    +0.292 HD
ENDBRANCH  16  20
BRANCH  15  22
ATOM     22  O   LIG A   1     -12.444   8.278 129.304  0.00  0.00    -0.501 OA
ATOM     23  H   LIG A   1     -12.086   9.181 129.180  0.00  0.00    +0.292 HD
ENDBRANCH  15  22
ENDBRANCH   7  12
BRANCH   1  24
ATOM     24  O   LIG A   1      -6.841   6.377 138.111  0.00  0.00    -0.506 OA
ATOM     25  H   LIG A   1      -6.731   5.638 138.733  0.00  0.00    +0.292 HD
ENDBRANCH   1  24
BRANCH   3  26
ATOM     26  O   LIG A   1      -4.288   4.243 134.670  0.00  0.00    -0.506 OA
ATOM     27  H   LIG A   1      -3.814   3.804 135.395  0.00  0.00    +0.292 HD
ENDBRANCH   3  26
BRANCH   6  28
ATOM     28  O   LIG A   1      -7.321   4.686 130.580  0.00  0.00    -0.453 OA
BRANCH  28  29
ATOM     29  C   LIG A   1      -6.232   5.372 129.940  0.00  0.00    +0.340 C 
ATOM     30  C   LIG A   1      -5.427   4.308 129.153  0.00  0.00    +0.214 C 
ATOM     31  C   LIG A   1      -4.196   4.948 128.511  0.00  0.00    +0.180 C 
ATOM     32  C   LIG A   1      -3.394   5.771 129.536  0.00  0.00    +0.174 C 
ATOM     33  C   LIG A   1      -4.336   6.726 130.296  0.00  0.00    +0.150 C 
ATOM     34  C   LIG A   1      -3.606   7.526 131.369  0.00  0.00    +0.040 C 
ATOM     35  O   LIG A   1      -5.384   5.976 130.928  0.00  0.00    -0.334 OA
BRANCH  30  36
ATOM     36  O   LIG A   1      -5.001   3.241 130.020  0.00  0.00    -0.383 OA
ATOM     37  H   LIG A   1      -5.784   2.672 130.129  0.00  0.00    +0.210 HD
ENDBRANCH  30  36
BRANCH  31  38
ATOM     38  O   LIG A   1      -4.590   5.803 127.426  0.00  0.00    -0.386 OA
ATOM     39  H   LIG A   1      -5.208   6.446 127.831  0.00  0.00    +0.210 HD
ENDBRANCH  31  38
BRANCH  32  40
ATOM     40  O   LIG A   1      -2.375   6.487 128.824  0.00  0.00    -0.387 OA
ATOM     41  H   LIG A   1      -2.272   6.053 127.958  0.00  0.00    +0.210 HD
ENDBRANCH  32  40
ENDBRANCH  28  29
ENDBRANCH   6  28
TORSDOF 11
ENDMDL
