MODEL 1
REMARK VINA RESULT:      -5.4      0.000      0.000
REMARK  Name = NuBBE_2133
REMARK  6 active torsions:
REMARK  status: ('A' for Active; 'I' for Inactive)
REMARK    1  A    between atoms: C_1  and  C_2
REMARK    2  A    between atoms: C_2  and  C_3
REMARK    3  A    between atoms: C_3  and  C_4
REMARK    4  A    between atoms: C_4  and  C_5
REMARK    5  A    between atoms: C_5  and  C_6
REMARK    6  A    between atoms: C_6  and  C_7
REMARK                            x       y       z     vdW  Elec       q    Type
REMARK                         _______ _______ _______ _____ _____    ______ ____
ROOT
ATOM      1  C   LIG A   1     -12.995   6.906 129.872  0.00  0.00    +0.003 C 
ENDROOT
BRANCH   1   2
ATOM      2  C   LIG A   1     -13.205   8.131 128.941  0.00  0.00    -0.011 C 
ATOM      3  C   LIG A   1     -12.027   9.099 128.763  0.00  0.00    +0.003 C 
ATOM      4  C   LIG A   1     -10.798   8.390 128.203  0.00  0.00    +0.000 C 
ATOM      5  C   LIG A   1     -11.117   7.843 126.816  0.00  0.00    +0.000 C 
ATOM      6  C   LIG A   1     -12.392   6.995 126.789  0.00  0.00    +0.000 C 
ATOM      7  C   LIG A   1     -13.577   7.652 127.518  0.00  0.00    +0.003 C 
ENDBRANCH   1   2
BRANCH   1   8
ATOM      8  C   LIG A   1     -12.490   7.161 131.301  0.00  0.00    +0.000 C 
BRANCH   8   9
ATOM      9  C   LIG A   1     -11.242   6.364 131.675  0.00  0.00    -0.000 C 
BRANCH   9  10
ATOM     10  C   LIG A   1     -10.701   5.431 130.592  0.00  0.00    -0.000 C 
BRANCH  10  12
ATOM     11  C   LIG A   1      -8.669   6.933 130.818  0.00  0.00    +0.004 C 
ATOM     12  C   LIG A   1      -9.257   5.686 130.180  0.00  0.00    -0.003 C 
ENDBRANCH  10  12
ENDBRANCH   9  10
ENDBRANCH   8   9
ENDBRANCH   1   8
TORSDOF 5
ENDMDL
MODEL 2
REMARK VINA RESULT:      -5.1     10.883     11.623
REMARK  Name = NuBBE_2133
REMARK  6 active torsions:
REMARK  status: ('A' for Active; 'I' for Inactive)
REMARK    1  A    between atoms: C_1  and  C_2
REMARK    2  A    between atoms: C_2  and  C_3
REMARK    3  A    between atoms: C_3  and  C_4
REMARK    4  A    between atoms: C_4  and  C_5
REMARK    5  A    between atoms: C_5  and  C_6
REMARK    6  A    between atoms: C_6  and  C_7
REMARK                            x       y       z     vdW  Elec       q    Type
REMARK                         _______ _______ _______ _____ _____    ______ ____
ROOT
ATOM      1  C   LIG A   1      -9.061  -2.721 125.942  0.00  0.00    +0.003 C 
ENDROOT
BRANCH   1   2
ATOM      2  C   LIG A   1      -8.833  -3.633 124.706  0.00  0.00    -0.011 C 
ATOM      3  C   LIG A   1      -9.494  -3.215 123.384  0.00  0.00    +0.003 C 
ATOM      4  C   LIG A   1      -9.031  -1.832 122.938  0.00  0.00    +0.000 C 
ATOM      5  C   LIG A   1      -7.529  -1.859 122.678  0.00  0.00    +0.000 C 
ATOM      6  C   LIG A   1      -6.731  -2.435 123.852  0.00  0.00    +0.000 C 
ATOM      7  C   LIG A   1      -7.321  -3.745 124.406  0.00  0.00    +0.003 C 
ENDBRANCH   1   2
BRANCH   1   8
ATOM      8  C   LIG A   1      -8.091  -2.853 127.128  0.00  0.00    +0.000 C 
BRANCH   8   9
ATOM      9  C   LIG A   1      -8.677  -3.577 128.338  0.00  0.00    -0.000 C 
BRANCH   9  10
ATOM     10  C   LIG A   1      -7.958  -3.337 129.666  0.00  0.00    -0.000 C 
BRANCH  10  12
ATOM     11  C   LIG A   1      -5.841  -4.459 130.499  0.00  0.00    +0.004 C 
ATOM     12  C   LIG A   1      -6.438  -3.392 129.597  0.00  0.00    -0.003 C 
ENDBRANCH  10  12
ENDBRANCH   9  10
ENDBRANCH   8   9
ENDBRANCH   1   8
TORSDOF 5
ENDMDL
MODEL 3
REMARK VINA RESULT:      -4.9     10.326     11.384
REMARK  Name = NuBBE_2133
REMARK  6 active torsions:
REMARK  status: ('A' for Active; 'I' for Inactive)
REMARK    1  A    between atoms: C_1  and  C_2
REMARK    2  A    between atoms: C_2  and  C_3
REMARK    3  A    between atoms: C_3  and  C_4
REMARK    4  A    between atoms: C_4  and  C_5
REMARK    5  A    between atoms: C_5  and  C_6
REMARK    6  A    between atoms: C_6  and  C_7
REMARK                            x       y       z     vdW  Elec       q    Type
REMARK                         _______ _______ _______ _____ _____    ______ ____
ROOT
ATOM      1  C   LIG A   1      -8.864  -2.979 126.045  0.00  0.00    +0.003 C 
ENDROOT
BRANCH   1   2
ATOM      2  C   LIG A   1      -8.654  -3.761 124.720  0.00  0.00    -0.011 C 
ATOM      3  C   LIG A   1      -9.404  -3.266 123.476  0.00  0.00    +0.003 C 
ATOM      4  C   LIG A   1      -9.041  -1.823 123.139  0.00  0.00    +0.000 C 
ATOM      5  C   LIG A   1      -7.556  -1.739 122.806  0.00  0.00    +0.000 C 
ATOM      6  C   LIG A   1      -6.667  -2.371 123.882  0.00  0.00    +0.000 C 
ATOM      7  C   LIG A   1      -7.155  -3.757 124.339  0.00  0.00    +0.003 C 
ENDBRANCH   1   2
BRANCH   1   8
ATOM      8  C   LIG A   1      -9.083  -3.786 127.336  0.00  0.00    +0.000 C 
BRANCH   8   9
ATOM      9  C   LIG A   1      -8.296  -3.268 128.538  0.00  0.00    -0.000 C 
BRANCH   9  10
ATOM     10  C   LIG A   1      -7.542  -1.957 128.323  0.00  0.00    -0.000 C 
BRANCH  10  12
ATOM     11  C   LIG A   1      -5.446  -1.227 127.095  0.00  0.00    +0.004 C 
ATOM     12  C   LIG A   1      -6.030  -2.093 128.197  0.00  0.00    -0.003 C 
ENDBRANCH  10  12
ENDBRANCH   9  10
ENDBRANCH   8   9
ENDBRANCH   1   8
TORSDOF 5
ENDMDL
MODEL 4
REMARK VINA RESULT:      -4.9     10.401     11.943
REMARK  Name = NuBBE_2133
REMARK  6 active torsions:
REMARK  status: ('A' for Active; 'I' for Inactive)
REMARK    1  A    between atoms: C_1  and  C_2
REMARK    2  A    between atoms: C_2  and  C_3
REMARK    3  A    between atoms: C_3  and  C_4
REMARK    4  A    between atoms: C_4  and  C_5
REMARK    5  A    between atoms: C_5  and  C_6
REMARK    6  A    between atoms: C_6  and  C_7
REMARK                            x       y       z     vdW  Elec       q    Type
REMARK                         _______ _______ _______ _____ _____    ______ ____
ROOT
ATOM      1  C   LIG A   1      -7.225  -1.212 123.163  0.00  0.00    +0.003 C 
ENDROOT
BRANCH   1   2
ATOM      2  C   LIG A   1      -8.775  -1.208 123.272  0.00  0.00    -0.011 C 
ATOM      3  C   LIG A   1      -9.497  -2.558 123.159  0.00  0.00    +0.003 C 
ATOM      4  C   LIG A   1      -9.034  -3.535 124.234  0.00  0.00    +0.000 C 
ATOM      5  C   LIG A   1      -9.379  -2.977 125.610  0.00  0.00    +0.000 C 
ATOM      6  C   LIG A   1      -8.881  -1.543 125.814  0.00  0.00    +0.000 C 
ATOM      7  C   LIG A   1      -9.204  -0.611 124.632  0.00  0.00    +0.003 C 
ENDBRANCH   1   2
BRANCH   1   8
ATOM      8  C   LIG A   1      -6.417  -0.581 124.309  0.00  0.00    +0.000 C 
BRANCH   8   9
ATOM      9  C   LIG A   1      -5.346  -1.498 124.897  0.00  0.00    -0.000 C 
BRANCH   9  10
ATOM     10  C   LIG A   1      -5.444  -2.971 124.502  0.00  0.00    -0.000 C 
BRANCH  10  12
ATOM     11  C   LIG A   1      -4.266  -4.948 123.434  0.00  0.00    +0.004 C 
ATOM     12  C   LIG A   1      -4.412  -3.437 123.482  0.00  0.00    -0.003 C 
ENDBRANCH  10  12
ENDBRANCH   9  10
ENDBRANCH   8   9
ENDBRANCH   1   8
TORSDOF 5
ENDMDL
MODEL 5
REMARK VINA RESULT:      -4.8     10.141     12.242
REMARK  Name = NuBBE_2133
REMARK  6 active torsions:
REMARK  status: ('A' for Active; 'I' for Inactive)
REMARK    1  A    between atoms: C_1  and  C_2
REMARK    2  A    between atoms: C_2  and  C_3
REMARK    3  A    between atoms: C_3  and  C_4
REMARK    4  A    between atoms: C_4  and  C_5
REMARK    5  A    between atoms: C_5  and  C_6
REMARK    6  A    between atoms: C_6  and  C_7
REMARK                            x       y       z     vdW  Elec       q    Type
REMARK                         _______ _______ _______ _____ _____    ______ ____
ROOT
ATOM      1  C   LIG A   1      -6.138  -2.112 126.854  0.00  0.00    +0.003 C 
ENDROOT
BRANCH   1   2
ATOM      2  C   LIG A   1      -7.509  -1.555 127.325  0.00  0.00    -0.011 C 
ATOM      3  C   LIG A   1      -8.767  -2.068 126.610  0.00  0.00    +0.003 C 
ATOM      4  C   LIG A   1      -8.902  -3.583 126.729  0.00  0.00    +0.000 C 
ATOM      5  C   LIG A   1      -9.055  -3.965 128.196  0.00  0.00    +0.000 C 
ATOM      6  C   LIG A   1      -7.962  -3.365 129.086  0.00  0.00    +0.000 C 
ATOM      7  C   LIG A   1      -7.717  -1.868 128.824  0.00  0.00    +0.003 C 
ENDBRANCH   1   2
BRANCH   1   8
ATOM      8  C   LIG A   1      -5.629  -1.704 125.463  0.00  0.00    +0.000 C 
BRANCH   8   9
ATOM      9  C   LIG A   1      -6.270  -2.474 124.310  0.00  0.00    -0.000 C 
BRANCH   9  10
ATOM     10  C   LIG A   1      -5.378  -2.707 123.091  0.00  0.00    -0.000 C 
BRANCH  10  12
ATOM     11  C   LIG A   1      -4.373  -4.991 123.555  0.00  0.00    +0.004 C 
ATOM     12  C   LIG A   1      -4.110  -3.507 123.361  0.00  0.00    -0.003 C 
ENDBRANCH  10  12
ENDBRANCH   9  10
ENDBRANCH   8   9
ENDBRANCH   1   8
TORSDOF 5
ENDMDL
MODEL 6
REMARK VINA RESULT:      -4.7     10.067     11.797
REMARK  Name = NuBBE_2133
REMARK  6 active torsions:
REMARK  status: ('A' for Active; 'I' for Inactive)
REMARK    1  A    between atoms: C_1  and  C_2
REMARK    2  A    between atoms: C_2  and  C_3
REMARK    3  A    between atoms: C_3  and  C_4
REMARK    4  A    between atoms: C_4  and  C_5
REMARK    5  A    between atoms: C_5  and  C_6
REMARK    6  A    between atoms: C_6  and  C_7
REMARK                            x       y       z     vdW  Elec       q    Type
REMARK                         _______ _______ _______ _____ _____    ______ ____
ROOT
ATOM      1  C   LIG A   1      -6.132  -2.102 126.400  0.00  0.00    +0.003 C 
ENDROOT
BRANCH   1   2
ATOM      2  C   LIG A   1      -7.444  -1.526 127.001  0.00  0.00    -0.011 C 
ATOM      3  C   LIG A   1      -8.772  -2.004 126.397  0.00  0.00    +0.003 C 
ATOM      4  C   LIG A   1      -8.925  -3.518 126.506  0.00  0.00    +0.000 C 
ATOM      5  C   LIG A   1      -8.953  -3.921 127.975  0.00  0.00    +0.000 C 
ATOM      6  C   LIG A   1      -7.772  -3.355 128.770  0.00  0.00    +0.000 C 
ATOM      7  C   LIG A   1      -7.521  -1.859 128.509  0.00  0.00    +0.003 C 
ENDBRANCH   1   2
BRANCH   1   8
ATOM      8  C   LIG A   1      -5.593  -1.475 125.105  0.00  0.00    +0.000 C 
BRANCH   8   9
ATOM      9  C   LIG A   1      -5.725  -2.369 123.873  0.00  0.00    -0.000 C 
BRANCH   9  10
ATOM     10  C   LIG A   1      -6.617  -1.830 122.756  0.00  0.00    -0.000 C 
BRANCH  10  12
ATOM     11  C   LIG A   1      -9.059  -1.157 122.898  0.00  0.00    +0.004 C 
ATOM     12  C   LIG A   1      -8.065  -2.302 122.801  0.00  0.00    -0.003 C 
ENDBRANCH  10  12
ENDBRANCH   9  10
ENDBRANCH   8   9
ENDBRANCH   1   8
TORSDOF 5
ENDMDL
MODEL 7
REMARK VINA RESULT:      -4.7     10.378     11.729
REMARK  Name = NuBBE_2133
REMARK  6 active torsions:
REMARK  status: ('A' for Active; 'I' for Inactive)
REMARK    1  A    between atoms: C_1  and  C_2
REMARK    2  A    between atoms: C_2  and  C_3
REMARK    3  A    between atoms: C_3  and  C_4
REMARK    4  A    between atoms: C_4  and  C_5
REMARK    5  A    between atoms: C_5  and  C_6
REMARK    6  A    between atoms: C_6  and  C_7
REMARK                            x       y       z     vdW  Elec       q    Type
REMARK                         _______ _______ _______ _____ _____    ______ ____
ROOT
ATOM      1  C   LIG A   1      -6.128  -1.484 125.226  0.00  0.00    +0.003 C 
ENDROOT
BRANCH   1   2
ATOM      2  C   LIG A   1      -6.087  -2.494 124.047  0.00  0.00    -0.011 C 
ATOM      3  C   LIG A   1      -6.760  -3.857 124.255  0.00  0.00    +0.003 C 
ATOM      4  C   LIG A   1      -8.241  -3.707 124.587  0.00  0.00    +0.000 C 
ATOM      5  C   LIG A   1      -8.960  -3.049 123.416  0.00  0.00    +0.000 C 
ATOM      6  C   LIG A   1      -8.289  -1.749 122.960  0.00  0.00    +0.000 C 
ATOM      7  C   LIG A   1      -6.763  -1.874 122.802  0.00  0.00    +0.003 C 
ENDBRANCH   1   2
BRANCH   1   8
ATOM      8  C   LIG A   1      -5.528  -1.919 126.573  0.00  0.00    +0.000 C 
BRANCH   8   9
ATOM      9  C   LIG A   1      -6.398  -1.587 127.783  0.00  0.00    -0.000 C 
BRANCH   9  10
ATOM     10  C   LIG A   1      -7.847  -2.066 127.709  0.00  0.00    -0.000 C 
BRANCH  10  12
ATOM     11  C   LIG A   1      -9.273  -4.126 128.112  0.00  0.00    +0.004 C 
ATOM     12  C   LIG A   1      -8.203  -3.200 128.663  0.00  0.00    -0.003 C 
ENDBRANCH  10  12
ENDBRANCH   9  10
ENDBRANCH   8   9
ENDBRANCH   1   8
TORSDOF 5
ENDMDL
MODEL 8
REMARK VINA RESULT:      -4.7     10.257     11.965
REMARK  Name = NuBBE_2133
REMARK  6 active torsions:
REMARK  status: ('A' for Active; 'I' for Inactive)
REMARK    1  A    between atoms: C_1  and  C_2
REMARK    2  A    between atoms: C_2  and  C_3
REMARK    3  A    between atoms: C_3  and  C_4
REMARK    4  A    between atoms: C_4  and  C_5
REMARK    5  A    between atoms: C_5  and  C_6
REMARK    6  A    between atoms: C_6  and  C_7
REMARK                            x       y       z     vdW  Elec       q    Type
REMARK                         _______ _______ _______ _____ _____    ______ ____
ROOT
ATOM      1  C   LIG A   1      -8.581  -3.350 127.039  0.00  0.00    +0.003 C 
ENDROOT
BRANCH   1   2
ATOM      2  C   LIG A   1      -8.200  -2.222 128.037  0.00  0.00    -0.011 C 
ATOM      3  C   LIG A   1      -7.912  -2.627 129.490  0.00  0.00    +0.003 C 
ATOM      4  C   LIG A   1      -6.763  -3.627 129.576  0.00  0.00    +0.000 C 
ATOM      5  C   LIG A   1      -5.488  -2.981 129.049  0.00  0.00    +0.000 C 
ATOM      6  C   LIG A   1      -5.666  -2.355 127.663  0.00  0.00    +0.000 C 
ATOM      7  C   LIG A   1      -6.932  -1.489 127.543  0.00  0.00    +0.003 C 
ENDBRANCH   1   2
BRANCH   1   8
ATOM      8  C   LIG A   1      -9.444  -2.980 125.823  0.00  0.00    +0.000 C 
BRANCH   8   9
ATOM      9  C   LIG A   1      -8.840  -3.385 124.480  0.00  0.00    -0.000 C 
BRANCH   9  10
ATOM     10  C   LIG A   1      -7.393  -3.874 124.524  0.00  0.00    -0.000 C 
BRANCH  10  12
ATOM     11  C   LIG A   1      -4.964  -3.484 123.901  0.00  0.00    +0.004 C 
ATOM     12  C   LIG A   1      -6.363  -2.896 123.973  0.00  0.00    -0.003 C 
ENDBRANCH  10  12
ENDBRANCH   9  10
ENDBRANCH   8   9
ENDBRANCH   1   8
TORSDOF 5
ENDMDL
MODEL 9
REMARK VINA RESULT:      -4.6     10.423     11.405
REMARK  Name = NuBBE_2133
REMARK  6 active torsions:
REMARK  status: ('A' for Active; 'I' for Inactive)
REMARK    1  A    between atoms: C_1  and  C_2
REMARK    2  A    between atoms: C_2  and  C_3
REMARK    3  A    between atoms: C_3  and  C_4
REMARK    4  A    between atoms: C_4  and  C_5
REMARK    5  A    between atoms: C_5  and  C_6
REMARK    6  A    between atoms: C_6  and  C_7
REMARK                            x       y       z     vdW  Elec       q    Type
REMARK                         _______ _______ _______ _____ _____    ______ ____
ROOT
ATOM      1  C   LIG A   1      -8.611  -3.584 127.691  0.00  0.00    +0.003 C 
ENDROOT
BRANCH   1   2
ATOM      2  C   LIG A   1      -8.795  -2.462 126.632  0.00  0.00    -0.011 C 
ATOM      3  C   LIG A   1      -7.568  -1.611 126.279  0.00  0.00    +0.003 C 
ATOM      4  C   LIG A   1      -6.425  -2.468 125.744  0.00  0.00    +0.000 C 
ATOM      5  C   LIG A   1      -6.863  -3.147 124.451  0.00  0.00    +0.000 C 
ATOM      6  C   LIG A   1      -8.192  -3.897 124.592  0.00  0.00    +0.000 C 
ATOM      7  C   LIG A   1      -9.284  -3.074 125.299  0.00  0.00    +0.003 C 
ENDBRANCH   1   2
BRANCH   1   8
ATOM      8  C   LIG A   1      -8.250  -3.172 129.127  0.00  0.00    +0.000 C 
BRANCH   8   9
ATOM      9  C   LIG A   1      -6.885  -3.671 129.597  0.00  0.00    -0.000 C 
BRANCH   9  10
ATOM     10  C   LIG A   1      -5.761  -2.636 129.587  0.00  0.00    -0.000 C 
BRANCH  10  12
ATOM     11  C   LIG A   1      -3.377  -3.505 129.549  0.00  0.00    +0.004 C 
ATOM     12  C   LIG A   1      -4.554  -3.000 128.731  0.00  0.00    -0.003 C 
ENDBRANCH  10  12
ENDBRANCH   9  10
ENDBRANCH   8   9
ENDBRANCH   1   8
TORSDOF 5
ENDMDL
