MODEL 1
REMARK VINA RESULT:      -9.5      0.000      0.000
REMARK  Name = NuBBE_407
REMARK  9 active torsions:
REMARK  status: ('A' for Active; 'I' for Inactive)
REMARK    1  A    between atoms: C_3  and  O_4
REMARK    2  A    between atoms: C_5  and  C_6
REMARK    3  A    between atoms: C_11  and  C_26
REMARK    4  A    between atoms: C_14  and  C_15
REMARK    5  A    between atoms: C_19  and  C_20
REMARK    6  A    between atoms: C_19  and  C_21
REMARK    7  A    between atoms: C_21  and  O_22
REMARK    8  A    between atoms: C_27  and  C_28
REMARK    9  A    between atoms: C_31  and  C_32
REMARK                            x       y       z     vdW  Elec       q    Type
REMARK                         _______ _______ _______ _____ _____    ______ ____
ROOT
ATOM      1  O   LIG A   1     -12.532   7.378 132.019  0.00  0.00    -0.284 OA
ATOM      2  C   LIG A   1     -11.674   6.831 131.330  0.00  0.00    +0.221 C 
ATOM      3  C   LIG A   1     -11.516   7.212 129.901  0.00  0.00    +0.167 C 
ATOM      4  C   LIG A   1     -10.599   6.602 129.128  0.00  0.00    +0.002 C 
ATOM      5  C   LIG A   1     -10.388   7.035 127.698  0.00  0.00    +0.048 C 
ATOM      6  C   LIG A   1      -9.747   5.538 129.708  0.00  0.00    -0.014 C 
ATOM      7  C   LIG A   1      -8.867   4.865 128.943  0.00  0.00    +0.008 C 
ATOM      8  C   LIG A   1      -7.847   3.995 129.469  0.00  0.00    +0.001 C 
ATOM      9  C   LIG A   1      -7.742   3.693 130.777  0.00  0.00    -0.053 C 
ATOM     10  C   LIG A   1      -6.417   3.133 131.420  0.00  0.00    -0.004 C 
ATOM     11  C   LIG A   1      -5.307   2.835 130.327  0.00  0.00    +0.012 C 
ATOM     12  C   LIG A   1      -3.875   2.861 130.855  0.00  0.00    +0.008 C 
ATOM     13  C   LIG A   1      -3.470   4.272 131.353  0.00  0.00    -0.029 C 
ATOM     14  C   LIG A   1      -2.399   4.080 132.458  0.00  0.00    +0.011 C 
ATOM     15  C   LIG A   1      -4.746   5.082 131.764  0.00  0.00    +0.003 C 
ATOM     16  C   LIG A   1      -4.348   6.450 132.356  0.00  0.00    +0.022 C 
ATOM     17  C   LIG A   1      -3.621   7.318 131.285  0.00  0.00    +0.065 C 
ATOM     18  C   LIG A   1      -3.038   8.583 131.940  0.00  0.00    +0.023 C 
ATOM     19  C   LIG A   1      -2.451   6.529 130.631  0.00  0.00    +0.018 C 
ATOM     20  C   LIG A   1      -2.801   5.089 130.212  0.00  0.00    +0.008 C 
ATOM     21  C   LIG A   1      -6.715   1.753 132.063  0.00  0.00    +0.016 C 
ATOM     22  C   LIG A   1      -5.861   4.231 132.487  0.00  0.00    -0.020 C 
ATOM     23  C   LIG A   1      -5.315   3.592 133.786  0.00  0.00    +0.012 C 
ATOM     24  C   LIG A   1      -7.010   5.190 132.942  0.00  0.00    +0.009 C 
ATOM     25  C   LIG A   1      -8.345   4.470 133.102  0.00  0.00    +0.016 C 
ATOM     26  C   LIG A   1      -8.923   4.066 131.719  0.00  0.00    +0.015 C 
ATOM     27  C   LIG A   1      -9.859   2.842 131.882  0.00  0.00    +0.021 C 
ATOM     28  C   LIG A   1      -9.826   5.200 131.142  0.00  0.00    -0.026 C 
ATOM     29  C   LIG A   1     -10.770   5.810 131.888  0.00  0.00    +0.059 C 
ENDROOT
BRANCH   3  30
ATOM     30  O   LIG A   1     -12.343   8.219 129.433  0.00  0.00    -0.503 OA
ATOM     31  H   LIG A   1     -12.831   7.814 128.684  0.00  0.00    +0.292 HD
ENDBRANCH   3  30
BRANCH  17  32
ATOM     32  C   LIG A   1      -4.601   7.775 130.182  0.00  0.00    +0.311 C 
ATOM     33  O   LIG A   1      -5.818   7.727 130.272  0.00  0.00    -0.250 OA
BRANCH  32  34
ATOM     34  O   LIG A   1      -4.012   8.246 129.059  0.00  0.00    -0.480 OA
ATOM     35  H   LIG A   1      -3.163   8.704 129.189  0.00  0.00    +0.295 HD
ENDBRANCH  32  34
ENDBRANCH  17  32
TORSDOF 3
ENDMDL
MODEL 2
REMARK VINA RESULT:      -9.1      4.117      6.535
REMARK  Name = NuBBE_407
REMARK  9 active torsions:
REMARK  status: ('A' for Active; 'I' for Inactive)
REMARK    1  A    between atoms: C_3  and  O_4
REMARK    2  A    between atoms: C_5  and  C_6
REMARK    3  A    between atoms: C_11  and  C_26
REMARK    4  A    between atoms: C_14  and  C_15
REMARK    5  A    between atoms: C_19  and  C_20
REMARK    6  A    between atoms: C_19  and  C_21
REMARK    7  A    between atoms: C_21  and  O_22
REMARK    8  A    between atoms: C_27  and  C_28
REMARK    9  A    between atoms: C_31  and  C_32
REMARK                            x       y       z     vdW  Elec       q    Type
REMARK                         _______ _______ _______ _____ _____    ______ ____
ROOT
ATOM      1  O   LIG A   1      -5.873  -1.052 125.033  0.00  0.00    -0.284 OA
ATOM      2  C   LIG A   1      -5.854   0.170 125.167  0.00  0.00    +0.221 C 
ATOM      3  C   LIG A   1      -6.763   1.019 124.353  0.00  0.00    +0.167 C 
ATOM      4  C   LIG A   1      -6.734   2.360 124.469  0.00  0.00    +0.002 C 
ATOM      5  C   LIG A   1      -7.703   3.220 123.697  0.00  0.00    +0.048 C 
ATOM      6  C   LIG A   1      -5.781   2.990 125.412  0.00  0.00    -0.014 C 
ATOM      7  C   LIG A   1      -5.683   4.329 125.502  0.00  0.00    +0.008 C 
ATOM      8  C   LIG A   1      -4.967   5.013 126.547  0.00  0.00    +0.001 C 
ATOM      9  C   LIG A   1      -4.238   4.372 127.481  0.00  0.00    -0.053 C 
ATOM     10  C   LIG A   1      -3.831   5.034 128.851  0.00  0.00    -0.004 C 
ATOM     11  C   LIG A   1      -4.249   6.563 128.917  0.00  0.00    +0.012 C 
ATOM     12  C   LIG A   1      -4.435   7.108 130.331  0.00  0.00    +0.008 C 
ATOM     13  C   LIG A   1      -5.615   6.417 131.063  0.00  0.00    -0.029 C 
ATOM     14  C   LIG A   1      -5.302   6.463 132.582  0.00  0.00    +0.011 C 
ATOM     15  C   LIG A   1      -5.866   4.997 130.453  0.00  0.00    +0.003 C 
ATOM     16  C   LIG A   1      -6.971   4.261 131.240  0.00  0.00    +0.022 C 
ATOM     17  C   LIG A   1      -8.326   5.022 131.120  0.00  0.00    +0.065 C 
ATOM     18  C   LIG A   1      -9.362   4.406 132.079  0.00  0.00    +0.023 C 
ATOM     19  C   LIG A   1      -8.156   6.523 131.490  0.00  0.00    +0.018 C 
ATOM     20  C   LIG A   1      -6.935   7.209 130.850  0.00  0.00    +0.008 C 
ATOM     21  C   LIG A   1      -2.285   5.044 128.965  0.00  0.00    +0.016 C 
ATOM     22  C   LIG A   1      -4.558   4.211 130.054  0.00  0.00    -0.020 C 
ATOM     23  C   LIG A   1      -3.642   3.999 131.283  0.00  0.00    +0.012 C 
ATOM     24  C   LIG A   1      -4.960   2.776 129.577  0.00  0.00    +0.009 C 
ATOM     25  C   LIG A   1      -3.921   2.156 128.648  0.00  0.00    +0.016 C 
ATOM     26  C   LIG A   1      -3.926   2.862 127.266  0.00  0.00    +0.015 C 
ATOM     27  C   LIG A   1      -2.536   2.712 126.597  0.00  0.00    +0.021 C 
ATOM     28  C   LIG A   1      -4.928   2.168 126.292  0.00  0.00    -0.026 C 
ATOM     29  C   LIG A   1      -4.960   0.828 126.137  0.00  0.00    +0.059 C 
ENDROOT
BRANCH   3  30
ATOM     30  O   LIG A   1      -7.629   0.359 123.499  0.00  0.00    -0.503 OA
ATOM     31  H   LIG A   1      -8.415   0.152 124.050  0.00  0.00    +0.292 HD
ENDBRANCH   3  30
BRANCH  17  32
ATOM     32  C   LIG A   1      -8.898   4.916 129.689  0.00  0.00    +0.311 C 
ATOM     33  O   LIG A   1      -9.237   5.870 129.006  0.00  0.00    -0.250 OA
BRANCH  32  34
ATOM     34  O   LIG A   1      -9.012   3.654 129.215  0.00  0.00    -0.480 OA
ATOM     35  H   LIG A   1      -8.356   3.018 129.549  0.00  0.00    +0.295 HD
ENDBRANCH  32  34
ENDBRANCH  17  32
TORSDOF 3
ENDMDL
MODEL 3
REMARK VINA RESULT:      -9.1      5.421      7.664
REMARK  Name = NuBBE_407
REMARK  9 active torsions:
REMARK  status: ('A' for Active; 'I' for Inactive)
REMARK    1  A    between atoms: C_3  and  O_4
REMARK    2  A    between atoms: C_5  and  C_6
REMARK    3  A    between atoms: C_11  and  C_26
REMARK    4  A    between atoms: C_14  and  C_15
REMARK    5  A    between atoms: C_19  and  C_20
REMARK    6  A    between atoms: C_19  and  C_21
REMARK    7  A    between atoms: C_21  and  O_22
REMARK    8  A    between atoms: C_27  and  C_28
REMARK    9  A    between atoms: C_31  and  C_32
REMARK                            x       y       z     vdW  Elec       q    Type
REMARK                         _______ _______ _______ _____ _____    ______ ____
ROOT
ATOM      1  O   LIG A   1      -9.950  -0.647 122.765  0.00  0.00    -0.284 OA
ATOM      2  C   LIG A   1      -9.039  -0.233 123.479  0.00  0.00    +0.221 C 
ATOM      3  C   LIG A   1      -8.594   1.181 123.368  0.00  0.00    +0.167 C 
ATOM      4  C   LIG A   1      -7.580   1.642 124.124  0.00  0.00    +0.002 C 
ATOM      5  C   LIG A   1      -7.173   3.093 124.065  0.00  0.00    +0.048 C 
ATOM      6  C   LIG A   1      -6.900   0.725 125.068  0.00  0.00    -0.014 C 
ATOM      7  C   LIG A   1      -5.841   1.138 125.788  0.00  0.00    +0.008 C 
ATOM      8  C   LIG A   1      -5.279   0.397 126.888  0.00  0.00    +0.001 C 
ATOM      9  C   LIG A   1      -5.700  -0.835 127.235  0.00  0.00    -0.053 C 
ATOM     10  C   LIG A   1      -5.431  -1.460 128.656  0.00  0.00    -0.004 C 
ATOM     11  C   LIG A   1      -4.494  -0.537 129.542  0.00  0.00    +0.012 C 
ATOM     12  C   LIG A   1      -4.649  -0.737 131.048  0.00  0.00    +0.008 C 
ATOM     13  C   LIG A   1      -6.062  -0.332 131.540  0.00  0.00    -0.029 C 
ATOM     14  C   LIG A   1      -6.371  -1.184 132.799  0.00  0.00    +0.011 C 
ATOM     15  C   LIG A   1      -7.090  -0.440 130.364  0.00  0.00    +0.003 C 
ATOM     16  C   LIG A   1      -8.517  -0.137 130.868  0.00  0.00    +0.022 C 
ATOM     17  C   LIG A   1      -8.614   1.330 131.383  0.00  0.00    +0.065 C 
ATOM     18  C   LIG A   1      -9.969   1.554 132.079  0.00  0.00    +0.023 C 
ATOM     19  C   LIG A   1      -7.486   1.635 132.409  0.00  0.00    +0.018 C 
ATOM     20  C   LIG A   1      -6.085   1.157 131.986  0.00  0.00    +0.008 C 
ATOM     21  C   LIG A   1      -4.633  -2.778 128.481  0.00  0.00    +0.016 C 
ATOM     22  C   LIG A   1      -6.863  -1.671 129.403  0.00  0.00    -0.020 C 
ATOM     23  C   LIG A   1      -6.951  -3.006 130.181  0.00  0.00    +0.012 C 
ATOM     24  C   LIG A   1      -8.029  -1.716 128.360  0.00  0.00    +0.009 C 
ATOM     25  C   LIG A   1      -7.639  -2.444 127.078  0.00  0.00    +0.016 C 
ATOM     26  C   LIG A   1      -6.629  -1.603 126.251  0.00  0.00    +0.015 C 
ATOM     27  C   LIG A   1      -5.775  -2.540 125.360  0.00  0.00    +0.021 C 
ATOM     28  C   LIG A   1      -7.376  -0.659 125.258  0.00  0.00    -0.026 C 
ATOM     29  C   LIG A   1      -8.378  -1.100 124.470  0.00  0.00    +0.059 C 
ENDROOT
BRANCH   3  30
ATOM     30  O   LIG A   1      -9.282   1.979 122.470  0.00  0.00    -0.503 OA
ATOM     31  H   LIG A   1     -10.165   2.112 122.878  0.00  0.00    +0.292 HD
ENDBRANCH   3  30
BRANCH  17  32
ATOM     32  C   LIG A   1      -8.520   2.336 130.215  0.00  0.00    +0.311 C 
ATOM     33  O   LIG A   1      -8.825   2.087 129.058  0.00  0.00    -0.250 OA
BRANCH  32  34
ATOM     34  O   LIG A   1      -8.055   3.560 130.556  0.00  0.00    -0.480 OA
ATOM     35  H   LIG A   1      -7.830   3.678 131.495  0.00  0.00    +0.295 HD
ENDBRANCH  32  34
ENDBRANCH  17  32
TORSDOF 3
ENDMDL
MODEL 4
REMARK VINA RESULT:      -8.9      5.499      8.314
REMARK  Name = NuBBE_407
REMARK  9 active torsions:
REMARK  status: ('A' for Active; 'I' for Inactive)
REMARK    1  A    between atoms: C_3  and  O_4
REMARK    2  A    between atoms: C_5  and  C_6
REMARK    3  A    between atoms: C_11  and  C_26
REMARK    4  A    between atoms: C_14  and  C_15
REMARK    5  A    between atoms: C_19  and  C_20
REMARK    6  A    between atoms: C_19  and  C_21
REMARK    7  A    between atoms: C_21  and  O_22
REMARK    8  A    between atoms: C_27  and  C_28
REMARK    9  A    between atoms: C_31  and  C_32
REMARK                            x       y       z     vdW  Elec       q    Type
REMARK                         _______ _______ _______ _____ _____    ______ ____
ROOT
ATOM      1  O   LIG A   1      -4.877  -5.060 131.127  0.00  0.00    -0.284 OA
ATOM      2  C   LIG A   1      -5.497  -4.008 130.993  0.00  0.00    +0.221 C 
ATOM      3  C   LIG A   1      -5.681  -3.101 132.157  0.00  0.00    +0.167 C 
ATOM      4  C   LIG A   1      -6.381  -1.959 132.032  0.00  0.00    +0.002 C 
ATOM      5  C   LIG A   1      -6.509  -1.003 133.193  0.00  0.00    +0.048 C 
ATOM      6  C   LIG A   1      -6.980  -1.610 130.722  0.00  0.00    -0.014 C 
ATOM      7  C   LIG A   1      -7.740  -0.509 130.583  0.00  0.00    +0.008 C 
ATOM      8  C   LIG A   1      -8.155   0.024 129.312  0.00  0.00    +0.001 C 
ATOM      9  C   LIG A   1      -7.904  -0.590 128.139  0.00  0.00    -0.053 C 
ATOM     10  C   LIG A   1      -7.942   0.163 126.755  0.00  0.00    -0.004 C 
ATOM     11  C   LIG A   1      -8.451   1.656 126.907  0.00  0.00    +0.012 C 
ATOM     12  C   LIG A   1      -7.985   2.600 125.800  0.00  0.00    +0.008 C 
ATOM     13  C   LIG A   1      -6.445   2.779 125.808  0.00  0.00    -0.029 C 
ATOM     14  C   LIG A   1      -6.013   3.100 124.353  0.00  0.00    +0.011 C 
ATOM     15  C   LIG A   1      -5.764   1.535 126.472  0.00  0.00    +0.003 C 
ATOM     16  C   LIG A   1      -4.228   1.658 126.393  0.00  0.00    +0.022 C 
ATOM     17  C   LIG A   1      -3.736   2.894 127.204  0.00  0.00    +0.065 C 
ATOM     18  C   LIG A   1      -2.238   3.133 126.943  0.00  0.00    +0.023 C 
ATOM     19  C   LIG A   1      -4.511   4.176 126.788  0.00  0.00    +0.018 C 
ATOM     20  C   LIG A   1      -6.037   4.000 126.680  0.00  0.00    +0.008 C 
ATOM     21  C   LIG A   1      -8.992  -0.521 125.842  0.00  0.00    +0.016 C 
ATOM     22  C   LIG A   1      -6.440   0.152 126.125  0.00  0.00    -0.020 C 
ATOM     23  C   LIG A   1      -6.424  -0.106 124.600  0.00  0.00    +0.012 C 
ATOM     24  C   LIG A   1      -5.584  -0.997 126.754  0.00  0.00    +0.009 C 
ATOM     25  C   LIG A   1      -6.397  -2.264 127.000  0.00  0.00    +0.016 C 
ATOM     26  C   LIG A   1      -7.396  -2.061 128.170  0.00  0.00    +0.015 C 
ATOM     27  C   LIG A   1      -8.598  -3.025 128.004  0.00  0.00    +0.021 C 
ATOM     28  C   LIG A   1      -6.742  -2.449 129.532  0.00  0.00    -0.026 C 
ATOM     29  C   LIG A   1      -6.056  -3.601 129.692  0.00  0.00    +0.059 C 
ENDROOT
BRANCH   3  30
ATOM     30  O   LIG A   1      -5.087  -3.491 133.346  0.00  0.00    -0.503 OA
ATOM     31  H   LIG A   1      -5.818  -3.877 133.876  0.00  0.00    +0.292 HD
ENDBRANCH   3  30
BRANCH  17  32
ATOM     32  C   LIG A   1      -3.913   2.668 128.723  0.00  0.00    +0.311 C 
ATOM     33  O   LIG A   1      -4.159   3.550 129.531  0.00  0.00    -0.250 OA
BRANCH  32  34
ATOM     34  O   LIG A   1      -3.766   1.385 129.126  0.00  0.00    -0.480 OA
ATOM     35  H   LIG A   1      -4.038   1.199 130.042  0.00  0.00    +0.295 HD
ENDBRANCH  32  34
ENDBRANCH  17  32
TORSDOF 3
ENDMDL
MODEL 5
REMARK VINA RESULT:      -8.6      4.861      7.765
REMARK  Name = NuBBE_407
REMARK  9 active torsions:
REMARK  status: ('A' for Active; 'I' for Inactive)
REMARK    1  A    between atoms: C_3  and  O_4
REMARK    2  A    between atoms: C_5  and  C_6
REMARK    3  A    between atoms: C_11  and  C_26
REMARK    4  A    between atoms: C_14  and  C_15
REMARK    5  A    between atoms: C_19  and  C_20
REMARK    6  A    between atoms: C_19  and  C_21
REMARK    7  A    between atoms: C_21  and  O_22
REMARK    8  A    between atoms: C_27  and  C_28
REMARK    9  A    between atoms: C_31  and  C_32
REMARK                            x       y       z     vdW  Elec       q    Type
REMARK                         _______ _______ _______ _____ _____    ______ ____
ROOT
ATOM      1  O   LIG A   1      -4.635   2.958 134.014  0.00  0.00    -0.284 OA
ATOM      2  C   LIG A   1      -5.545   2.316 133.495  0.00  0.00    +0.221 C 
ATOM      3  C   LIG A   1      -6.933   2.851 133.512  0.00  0.00    +0.167 C 
ATOM      4  C   LIG A   1      -7.945   2.147 132.972  0.00  0.00    +0.002 C 
ATOM      5  C   LIG A   1      -9.340   2.718 132.926  0.00  0.00    +0.048 C 
ATOM      6  C   LIG A   1      -7.670   0.825 132.364  0.00  0.00    -0.014 C 
ATOM      7  C   LIG A   1      -8.670   0.069 131.875  0.00  0.00    +0.008 C 
ATOM      8  C   LIG A   1      -8.469  -1.103 131.064  0.00  0.00    +0.001 C 
ATOM      9  C   LIG A   1      -7.251  -1.614 130.800  0.00  0.00    -0.053 C 
ATOM     10  C   LIG A   1      -6.976  -2.586 129.591  0.00  0.00    -0.004 C 
ATOM     11  C   LIG A   1      -8.313  -2.994 128.843  0.00  0.00    +0.012 C 
ATOM     12  C   LIG A   1      -8.121  -3.419 127.389  0.00  0.00    +0.008 C 
ATOM     13  C   LIG A   1      -7.602  -2.251 126.512  0.00  0.00    -0.029 C 
ATOM     14  C   LIG A   1      -6.789  -2.876 125.348  0.00  0.00    +0.011 C 
ATOM     15  C   LIG A   1      -6.843  -1.209 127.402  0.00  0.00    +0.003 C 
ATOM     16  C   LIG A   1      -6.235  -0.094 126.525  0.00  0.00    +0.022 C 
ATOM     17  C   LIG A   1      -7.360   0.705 125.800  0.00  0.00    +0.065 C 
ATOM     18  C   LIG A   1      -6.741   1.666 124.768  0.00  0.00    +0.023 C 
ATOM     19  C   LIG A   1      -8.329  -0.252 125.051  0.00  0.00    +0.018 C 
ATOM     20  C   LIG A   1      -8.786  -1.474 125.869  0.00  0.00    +0.008 C 
ATOM     21  C   LIG A   1      -6.410  -3.922 130.140  0.00  0.00    +0.016 C 
ATOM     22  C   LIG A   1      -5.967  -1.841 128.552  0.00  0.00    -0.020 C 
ATOM     23  C   LIG A   1      -4.887  -2.785 127.972  0.00  0.00    +0.012 C 
ATOM     24  C   LIG A   1      -5.181  -0.695 129.271  0.00  0.00    +0.009 C 
ATOM     25  C   LIG A   1      -4.789  -1.062 130.699  0.00  0.00    +0.016 C 
ATOM     26  C   LIG A   1      -6.037  -1.092 131.623  0.00  0.00    +0.015 C 
ATOM     27  C   LIG A   1      -5.778  -2.043 132.819  0.00  0.00    +0.021 C 
ATOM     28  C   LIG A   1      -6.291   0.310 132.259  0.00  0.00    -0.026 C 
ATOM     29  C   LIG A   1      -5.300   1.025 132.829  0.00  0.00    +0.059 C 
ENDROOT
BRANCH   3  30
ATOM     30  O   LIG A   1      -7.110   4.096 134.093  0.00  0.00    -0.503 OA
ATOM     31  H   LIG A   1      -7.365   3.905 135.021  0.00  0.00    +0.292 HD
ENDBRANCH   3  30
BRANCH  17  32
ATOM     32  C   LIG A   1      -8.168   1.559 126.803  0.00  0.00    +0.311 C 
ATOM     33  O   LIG A   1      -9.387   1.588 126.864  0.00  0.00    -0.250 OA
BRANCH  32  34
ATOM     34  O   LIG A   1      -7.419   2.312 127.641  0.00  0.00    -0.480 OA
ATOM     35  H   LIG A   1      -7.317   3.247 127.390  0.00  0.00    +0.295 HD
ENDBRANCH  32  34
ENDBRANCH  17  32
TORSDOF 3
ENDMDL
MODEL 6
REMARK VINA RESULT:      -8.6      4.974      6.842
REMARK  Name = NuBBE_407
REMARK  9 active torsions:
REMARK  status: ('A' for Active; 'I' for Inactive)
REMARK    1  A    between atoms: C_3  and  O_4
REMARK    2  A    between atoms: C_5  and  C_6
REMARK    3  A    between atoms: C_11  and  C_26
REMARK    4  A    between atoms: C_14  and  C_15
REMARK    5  A    between atoms: C_19  and  C_20
REMARK    6  A    between atoms: C_19  and  C_21
REMARK    7  A    between atoms: C_21  and  O_22
REMARK    8  A    between atoms: C_27  and  C_28
REMARK    9  A    between atoms: C_31  and  C_32
REMARK                            x       y       z     vdW  Elec       q    Type
REMARK                         _______ _______ _______ _____ _____    ______ ____
ROOT
ATOM      1  O   LIG A   1      -9.844  -2.986 125.091  0.00  0.00    -0.284 OA
ATOM      2  C   LIG A   1      -8.992  -2.126 125.304  0.00  0.00    +0.221 C 
ATOM      3  C   LIG A   1      -8.786  -1.028 124.323  0.00  0.00    +0.167 C 
ATOM      4  C   LIG A   1      -7.839  -0.095 124.530  0.00  0.00    +0.002 C 
ATOM      5  C   LIG A   1      -7.675   1.060 123.573  0.00  0.00    +0.048 C 
ATOM      6  C   LIG A   1      -6.991  -0.171 125.742  0.00  0.00    -0.014 C 
ATOM      7  C   LIG A   1      -5.993   0.708 125.943  0.00  0.00    +0.008 C 
ATOM      8  C   LIG A   1      -5.287   0.851 127.190  0.00  0.00    +0.001 C 
ATOM      9  C   LIG A   1      -5.493   0.042 128.247  0.00  0.00    -0.053 C 
ATOM     10  C   LIG A   1      -5.085   0.438 129.717  0.00  0.00    -0.004 C 
ATOM     11  C   LIG A   1      -4.284   1.807 129.762  0.00  0.00    +0.012 C 
ATOM     12  C   LIG A   1      -4.361   2.542 131.098  0.00  0.00    +0.008 C 
ATOM     13  C   LIG A   1      -5.806   3.000 131.420  0.00  0.00    -0.029 C 
ATOM     14  C   LIG A   1      -5.936   3.055 132.965  0.00  0.00    +0.011 C 
ATOM     15  C   LIG A   1      -6.837   2.089 130.673  0.00  0.00    +0.003 C 
ATOM     16  C   LIG A   1      -8.279   2.473 131.066  0.00  0.00    +0.022 C 
ATOM     17  C   LIG A   1      -8.598   3.931 130.619  0.00  0.00    +0.065 C 
ATOM     18  C   LIG A   1      -9.950   4.377 131.203  0.00  0.00    +0.023 C 
ATOM     19  C   LIG A   1      -7.505   4.918 131.118  0.00  0.00    +0.018 C 
ATOM     20  C   LIG A   1      -6.057   4.442 130.895  0.00  0.00    +0.008 C 
ATOM     21  C   LIG A   1      -4.089  -0.618 130.263  0.00  0.00    +0.016 C 
ATOM     22  C   LIG A   1      -6.441   0.563 130.610  0.00  0.00    -0.020 C 
ATOM     23  C   LIG A   1      -6.288  -0.029 132.031  0.00  0.00    +0.012 C 
ATOM     24  C   LIG A   1      -7.614  -0.233 129.947  0.00  0.00    +0.009 C 
ATOM     25  C   LIG A   1      -7.148  -1.539 129.310  0.00  0.00    +0.016 C 
ATOM     26  C   LIG A   1      -6.313  -1.262 128.032  0.00  0.00    +0.015 C 
ATOM     27  C   LIG A   1      -5.344  -2.444 127.775  0.00  0.00    +0.021 C 
ATOM     28  C   LIG A   1      -7.231  -1.201 126.771  0.00  0.00    -0.026 C 
ATOM     29  C   LIG A   1      -8.171  -2.138 126.527  0.00  0.00    +0.059 C 
ENDROOT
BRANCH   3  30
ATOM     30  O   LIG A   1      -9.621  -1.019 123.218  0.00  0.00    -0.503 OA
ATOM     31  H   LIG A   1     -10.332  -0.383 123.447  0.00  0.00    +0.292 HD
ENDBRANCH   3  30
BRANCH  17  32
ATOM     32  C   LIG A   1      -8.702   4.029 129.080  0.00  0.00    +0.311 C 
ATOM     33  O   LIG A   1      -8.562   5.060 128.440  0.00  0.00    -0.250 OA
BRANCH  32  34
ATOM     34  O   LIG A   1      -8.974   2.861 128.454  0.00  0.00    -0.480 OA
ATOM     35  H   LIG A   1      -8.212   2.273 128.310  0.00  0.00    +0.295 HD
ENDBRANCH  32  34
ENDBRANCH  17  32
TORSDOF 3
ENDMDL
MODEL 7
REMARK VINA RESULT:      -8.5      3.889      6.195
REMARK  Name = NuBBE_407
REMARK  9 active torsions:
REMARK  status: ('A' for Active; 'I' for Inactive)
REMARK    1  A    between atoms: C_3  and  O_4
REMARK    2  A    between atoms: C_5  and  C_6
REMARK    3  A    between atoms: C_11  and  C_26
REMARK    4  A    between atoms: C_14  and  C_15
REMARK    5  A    between atoms: C_19  and  C_20
REMARK    6  A    between atoms: C_19  and  C_21
REMARK    7  A    between atoms: C_21  and  O_22
REMARK    8  A    between atoms: C_27  and  C_28
REMARK    9  A    between atoms: C_31  and  C_32
REMARK                            x       y       z     vdW  Elec       q    Type
REMARK                         _______ _______ _______ _____ _____    ______ ____
ROOT
ATOM      1  O   LIG A   1      -7.580   7.530 130.585  0.00  0.00    -0.284 OA
ATOM      2  C   LIG A   1      -8.105   6.422 130.672  0.00  0.00    +0.221 C 
ATOM      3  C   LIG A   1      -9.565   6.273 130.439  0.00  0.00    +0.167 C 
ATOM      4  C   LIG A   1     -10.158   5.070 130.557  0.00  0.00    +0.002 C 
ATOM      5  C   LIG A   1     -11.626   4.903 130.252  0.00  0.00    +0.048 C 
ATOM      6  C   LIG A   1      -9.345   3.890 130.932  0.00  0.00    -0.014 C 
ATOM      7  C   LIG A   1      -9.920   2.689 131.123  0.00  0.00    +0.008 C 
ATOM      8  C   LIG A   1      -9.185   1.458 131.252  0.00  0.00    +0.001 C 
ATOM      9  C   LIG A   1      -7.840   1.407 131.295  0.00  0.00    -0.053 C 
ATOM     10  C   LIG A   1      -7.025   0.093 130.988  0.00  0.00    -0.004 C 
ATOM     11  C   LIG A   1      -7.975  -1.159 130.781  0.00  0.00    +0.012 C 
ATOM     12  C   LIG A   1      -7.371  -2.280 129.939  0.00  0.00    +0.008 C 
ATOM     13  C   LIG A   1      -7.108  -1.827 128.480  0.00  0.00    -0.029 C 
ATOM     14  C   LIG A   1      -5.922  -2.670 127.944  0.00  0.00    +0.011 C 
ATOM     15  C   LIG A   1      -6.930  -0.272 128.426  0.00  0.00    +0.003 C 
ATOM     16  C   LIG A   1      -6.568   0.178 126.995  0.00  0.00    +0.022 C 
ATOM     17  C   LIG A   1      -7.728  -0.151 126.009  0.00  0.00    +0.065 C 
ATOM     18  C   LIG A   1      -7.274   0.101 124.559  0.00  0.00    +0.023 C 
ATOM     19  C   LIG A   1      -8.156  -1.641 126.130  0.00  0.00    +0.018 C 
ATOM     20  C   LIG A   1      -8.332  -2.144 127.575  0.00  0.00    +0.008 C 
ATOM     21  C   LIG A   1      -6.166  -0.266 132.229  0.00  0.00    +0.016 C 
ATOM     22  C   LIG A   1      -6.138   0.342 129.645  0.00  0.00    -0.020 C 
ATOM     23  C   LIG A   1      -4.714  -0.256 129.739  0.00  0.00    +0.012 C 
ATOM     24  C   LIG A   1      -5.935   1.873 129.392  0.00  0.00    +0.009 C 
ATOM     25  C   LIG A   1      -5.734   2.657 130.685  0.00  0.00    +0.016 C 
ATOM     26  C   LIG A   1      -7.056   2.736 131.495  0.00  0.00    +0.015 C 
ATOM     27  C   LIG A   1      -6.736   2.925 132.999  0.00  0.00    +0.021 C 
ATOM     28  C   LIG A   1      -7.882   3.995 131.087  0.00  0.00    -0.026 C 
ATOM     29  C   LIG A   1      -7.317   5.217 130.986  0.00  0.00    +0.059 C 
ENDROOT
BRANCH   3  30
ATOM     30  O   LIG A   1     -10.257   7.419 130.085  0.00  0.00    -0.503 OA
ATOM     31  H   LIG A   1      -9.871   8.127 130.645  0.00  0.00    +0.292 HD
ENDBRANCH   3  30
BRANCH  17  32
ATOM     32  C   LIG A   1      -8.955   0.750 126.274  0.00  0.00    +0.311 C 
ATOM     33  O   LIG A   1      -8.933   1.771 126.944  0.00  0.00    -0.250 OA
BRANCH  32  34
ATOM     34  O   LIG A   1     -10.106   0.325 125.705  0.00  0.00    -0.480 OA
ATOM     35  H   LIG A   1     -10.895   0.859 125.901  0.00  0.00    +0.295 HD
ENDBRANCH  32  34
ENDBRANCH  17  32
TORSDOF 3
ENDMDL
MODEL 8
REMARK VINA RESULT:      -8.4      3.965      6.112
REMARK  Name = NuBBE_407
REMARK  9 active torsions:
REMARK  status: ('A' for Active; 'I' for Inactive)
REMARK    1  A    between atoms: C_3  and  O_4
REMARK    2  A    between atoms: C_5  and  C_6
REMARK    3  A    between atoms: C_11  and  C_26
REMARK    4  A    between atoms: C_14  and  C_15
REMARK    5  A    between atoms: C_19  and  C_20
REMARK    6  A    between atoms: C_19  and  C_21
REMARK    7  A    between atoms: C_21  and  O_22
REMARK    8  A    between atoms: C_27  and  C_28
REMARK    9  A    between atoms: C_31  and  C_32
REMARK                            x       y       z     vdW  Elec       q    Type
REMARK                         _______ _______ _______ _____ _____    ______ ____
ROOT
ATOM      1  O   LIG A   1      -9.347  -1.510 125.416  0.00  0.00    -0.284 OA
ATOM      2  C   LIG A   1      -8.616  -0.595 125.786  0.00  0.00    +0.221 C 
ATOM      3  C   LIG A   1      -8.077   0.372 124.793  0.00  0.00    +0.167 C 
ATOM      4  C   LIG A   1      -7.254   1.364 125.179  0.00  0.00    +0.002 C 
ATOM      5  C   LIG A   1      -6.763   2.388 124.186  0.00  0.00    +0.048 C 
ATOM      6  C   LIG A   1      -6.877   1.484 126.607  0.00  0.00    -0.014 C 
ATOM      7  C   LIG A   1      -6.004   2.424 127.014  0.00  0.00    +0.008 C 
ATOM      8  C   LIG A   1      -5.770   2.759 128.394  0.00  0.00    +0.001 C 
ATOM      9  C   LIG A   1      -6.332   2.090 129.419  0.00  0.00    -0.053 C 
ATOM     10  C   LIG A   1      -6.454   2.693 130.869  0.00  0.00    -0.004 C 
ATOM     11  C   LIG A   1      -5.709   4.088 130.995  0.00  0.00    +0.012 C 
ATOM     12  C   LIG A   1      -6.237   4.989 132.109  0.00  0.00    +0.008 C 
ATOM     13  C   LIG A   1      -7.702   5.425 131.850  0.00  0.00    -0.029 C 
ATOM     14  C   LIG A   1      -8.357   5.678 133.234  0.00  0.00    +0.011 C 
ATOM     15  C   LIG A   1      -8.418   4.380 130.929  0.00  0.00    +0.003 C 
ATOM     16  C   LIG A   1      -9.905   4.752 130.748  0.00  0.00    +0.022 C 
ATOM     17  C   LIG A   1     -10.041   6.123 130.021  0.00  0.00    +0.065 C 
ATOM     18  C   LIG A   1     -11.509   6.585 130.040  0.00  0.00    +0.023 C 
ATOM     19  C   LIG A   1      -9.181   7.213 130.723  0.00  0.00    +0.018 C 
ATOM     20  C   LIG A   1      -7.749   6.773 131.076  0.00  0.00    +0.008 C 
ATOM     21  C   LIG A   1      -5.713   1.762 131.864  0.00  0.00    +0.016 C 
ATOM     22  C   LIG A   1      -8.034   2.877 131.217  0.00  0.00    -0.020 C 
ATOM     23  C   LIG A   1      -8.384   2.485 132.672  0.00  0.00    +0.012 C 
ATOM     24  C   LIG A   1      -8.911   1.952 130.310  0.00  0.00    +0.009 C 
ATOM     25  C   LIG A   1      -8.262   0.594 130.059  0.00  0.00    +0.016 C 
ATOM     26  C   LIG A   1      -7.036   0.735 129.118  0.00  0.00    +0.015 C 
ATOM     27  C   LIG A   1      -6.045  -0.429 129.375  0.00  0.00    +0.021 C 
ATOM     28  C   LIG A   1      -7.463   0.590 127.624  0.00  0.00    -0.026 C 
ATOM     29  C   LIG A   1      -8.266  -0.410 127.205  0.00  0.00    +0.059 C 
ENDROOT
BRANCH   3  30
ATOM     30  O   LIG A   1      -8.479   0.200 123.479  0.00  0.00    -0.503 OA
ATOM     31  H   LIG A   1      -7.693  -0.171 123.024  0.00  0.00    +0.292 HD
ENDBRANCH   3  30
BRANCH  17  32
ATOM     32  C   LIG A   1      -9.608   6.013 128.542  0.00  0.00    +0.311 C 
ATOM     33  O   LIG A   1      -8.845   5.165 128.104  0.00  0.00    -0.250 OA
BRANCH  32  34
ATOM     34  O   LIG A   1     -10.137   6.951 127.724  0.00  0.00    -0.480 OA
ATOM     35  H   LIG A   1      -9.614   7.765 127.622  0.00  0.00    +0.295 HD
ENDBRANCH  32  34
ENDBRANCH  17  32
TORSDOF 3
ENDMDL
MODEL 9
REMARK VINA RESULT:      -8.3      4.891      7.669
REMARK  Name = NuBBE_407
REMARK  9 active torsions:
REMARK  status: ('A' for Active; 'I' for Inactive)
REMARK    1  A    between atoms: C_3  and  O_4
REMARK    2  A    between atoms: C_5  and  C_6
REMARK    3  A    between atoms: C_11  and  C_26
REMARK    4  A    between atoms: C_14  and  C_15
REMARK    5  A    between atoms: C_19  and  C_20
REMARK    6  A    between atoms: C_19  and  C_21
REMARK    7  A    between atoms: C_21  and  O_22
REMARK    8  A    between atoms: C_27  and  C_28
REMARK    9  A    between atoms: C_31  and  C_32
REMARK                            x       y       z     vdW  Elec       q    Type
REMARK                         _______ _______ _______ _____ _____    ______ ____
ROOT
ATOM      1  O   LIG A   1      -9.674   4.333 129.591  0.00  0.00    -0.284 OA
ATOM      2  C   LIG A   1      -8.604   3.750 129.756  0.00  0.00    +0.221 C 
ATOM      3  C   LIG A   1      -7.580   4.325 130.669  0.00  0.00    +0.167 C 
ATOM      4  C   LIG A   1      -6.394   3.712 130.839  0.00  0.00    +0.002 C 
ATOM      5  C   LIG A   1      -5.381   4.254 131.817  0.00  0.00    +0.048 C 
ATOM      6  C   LIG A   1      -6.107   2.460 130.101  0.00  0.00    -0.014 C 
ATOM      7  C   LIG A   1      -4.906   1.861 130.200  0.00  0.00    +0.008 C 
ATOM      8  C   LIG A   1      -4.629   0.534 129.715  0.00  0.00    +0.001 C 
ATOM      9  C   LIG A   1      -5.523  -0.198 129.022  0.00  0.00    -0.053 C 
ATOM     10  C   LIG A   1      -5.417  -1.763 128.878  0.00  0.00    -0.004 C 
ATOM     11  C   LIG A   1      -4.075  -2.327 129.506  0.00  0.00    +0.012 C 
ATOM     12  C   LIG A   1      -4.142  -3.791 129.934  0.00  0.00    +0.008 C 
ATOM     13  C   LIG A   1      -5.156  -4.008 131.087  0.00  0.00    -0.029 C 
ATOM     14  C   LIG A   1      -5.682  -5.462 130.968  0.00  0.00    +0.011 C 
ATOM     15  C   LIG A   1      -6.240  -2.878 131.066  0.00  0.00    +0.003 C 
ATOM     16  C   LIG A   1      -7.311  -3.141 132.146  0.00  0.00    +0.022 C 
ATOM     17  C   LIG A   1      -6.676  -3.094 133.568  0.00  0.00    +0.065 C 
ATOM     18  C   LIG A   1      -7.698  -3.569 134.616  0.00  0.00    +0.023 C 
ATOM     19  C   LIG A   1      -5.430  -4.021 133.652  0.00  0.00    +0.018 C 
ATOM     20  C   LIG A   1      -4.453  -3.894 132.469  0.00  0.00    +0.008 C 
ATOM     21  C   LIG A   1      -5.328  -2.123 127.372  0.00  0.00    +0.016 C 
ATOM     22  C   LIG A   1      -6.700  -2.435 129.624  0.00  0.00    -0.020 C 
ATOM     23  C   LIG A   1      -7.301  -3.627 128.842  0.00  0.00    +0.012 C 
ATOM     24  C   LIG A   1      -7.863  -1.397 129.764  0.00  0.00    +0.009 C 
ATOM     25  C   LIG A   1      -7.985  -0.487 128.546  0.00  0.00    +0.016 C 
ATOM     26  C   LIG A   1      -6.799   0.512 128.483  0.00  0.00    +0.015 C 
ATOM     27  C   LIG A   1      -6.563   0.951 127.015  0.00  0.00    +0.021 C 
ATOM     28  C   LIG A   1      -7.136   1.825 129.256  0.00  0.00    -0.026 C 
ATOM     29  C   LIG A   1      -8.307   2.473 129.085  0.00  0.00    +0.059 C 
ENDROOT
BRANCH   3  30
ATOM     30  O   LIG A   1      -7.923   5.493 131.328  0.00  0.00    -0.503 OA
ATOM     31  H   LIG A   1      -7.930   5.251 132.279  0.00  0.00    +0.292 HD
ENDBRANCH   3  30
BRANCH  17  32
ATOM     32  C   LIG A   1      -6.260  -1.654 133.943  0.00  0.00    +0.311 C 
ATOM     33  O   LIG A   1      -5.227  -1.360 134.525  0.00  0.00    -0.250 OA
BRANCH  32  34
ATOM     34  O   LIG A   1      -7.145  -0.696 133.584  0.00  0.00    -0.480 OA
ATOM     35  H   LIG A   1      -7.943  -1.011 133.123  0.00  0.00    +0.295 HD
ENDBRANCH  32  34
ENDBRANCH  17  32
TORSDOF 3
ENDMDL
