MODEL 1
REMARK VINA RESULT:      -7.7      0.000      0.000
REMARK  Name = NuBBE_207
REMARK  21 active torsions:
REMARK  status: ('A' for Active; 'I' for Inactive)
REMARK    1  A    between atoms: C_1  and  O_2
REMARK    2  A    between atoms: O_2  and  C_3
REMARK    3  A    between atoms: C_4  and  O_49
REMARK    4  A    between atoms: C_5  and  O_6
REMARK    5  A    between atoms: O_6  and  C_7
REMARK    6  A    between atoms: C_9  and  C_38
REMARK    7  A    between atoms: C_11  and  C_20
REMARK    8  A    between atoms: C_13  and  C_18
REMARK    9  A    between atoms: C_18  and  O_19
REMARK   10  A    between atoms: C_20  and  O_21
REMARK   11  A    between atoms: O_21  and  C_22
REMARK   12  A    between atoms: C_24  and  O_37
REMARK   13  A    between atoms: C_26  and  O_36
REMARK   14  A    between atoms: C_28  and  O_35
REMARK   15  A    between atoms: C_30  and  C_33
REMARK   16  A    between atoms: C_33  and  O_34
REMARK   17  A    between atoms: C_40  and  O_41
REMARK   18  A    between atoms: O_41  and  C_42
REMARK   19  A    between atoms: C_43  and  O_48
REMARK   20  A    between atoms: C_44  and  O_45
REMARK   21  A    between atoms: O_45  and  C_46
REMARK                            x       y       z     vdW  Elec       q    Type
REMARK                         _______ _______ _______ _____ _____    ______ ____
ROOT
ATOM      1  C   LIG A   1      -3.970   4.759 128.709  0.00  0.00    +0.165 A 
ATOM      2  C   LIG A   1      -5.135   4.801 129.484  0.00  0.00    +0.201 A 
ATOM      3  C   LIG A   1      -6.356   4.285 129.021  0.00  0.00    +0.169 A 
ATOM      4  C   LIG A   1      -6.422   3.806 127.707  0.00  0.00    +0.009 A 
ATOM      5  C   LIG A   1      -7.757   3.408 127.044  0.00  0.00    +0.059 C 
ATOM      6  C   LIG A   1      -7.872   4.176 125.686  0.00  0.00    +0.032 C 
ATOM      7  C   LIG A   1      -6.592   4.087 124.789  0.00  0.00    +0.025 C 
ATOM      8  C   LIG A   1      -5.419   3.335 125.456  0.00  0.00    +0.041 C 
ATOM      9  C   LIG A   1      -5.267   3.781 126.891  0.00  0.00    -0.036 A 
ATOM     10  C   LIG A   1      -4.036   4.232 127.410  0.00  0.00    +0.053 A 
ENDROOT
BRANCH   5  11
ATOM     11  C   LIG A   1      -7.975   1.892 126.952  0.00  0.00    -0.032 A 
ATOM     12  C   LIG A   1      -7.432   1.003 127.891  0.00  0.00    +0.053 A 
ATOM     13  C   LIG A   1      -7.641  -0.378 127.815  0.00  0.00    +0.165 A 
ATOM     14  C   LIG A   1      -8.356  -0.885 126.721  0.00  0.00    +0.201 A 
ATOM     15  C   LIG A   1      -8.869  -0.035 125.738  0.00  0.00    +0.165 A 
ATOM     16  C   LIG A   1      -8.665   1.342 125.866  0.00  0.00    +0.053 A 
BRANCH  14  17
ATOM     17  O   LIG A   1      -8.526  -2.238 126.568  0.00  0.00    -0.501 OA
ATOM     18  H   LIG A   1      -9.246  -2.476 127.177  0.00  0.00    +0.292 HD
ENDBRANCH  14  17
BRANCH  15  19
ATOM     19  O   LIG A   1      -9.513  -0.612 124.671  0.00  0.00    -0.491 OA
ATOM     20  C   LIG A   1      -9.233  -0.047 123.394  0.00  0.00    +0.277 C 
ENDBRANCH  15  19
BRANCH  13  21
ATOM     21  O   LIG A   1      -7.168  -1.278 128.742  0.00  0.00    -0.491 OA
ATOM     22  C   LIG A   1      -7.785  -1.229 130.034  0.00  0.00    +0.277 C 
ENDBRANCH  13  21
ENDBRANCH   5  11
BRANCH   2  23
ATOM     23  O   LIG A   1      -5.157   5.541 130.630  0.00  0.00    -0.501 OA
ATOM     24  H   LIG A   1      -4.402   6.177 130.520  0.00  0.00    +0.292 HD
ENDBRANCH   2  23
BRANCH   1  26
ATOM     25  C   LIG A   1      -2.336   6.468 128.367  0.00  0.00    +0.277 C 
ATOM     26  O   LIG A   1      -2.762   5.304 129.071  0.00  0.00    -0.491 OA
ENDBRANCH   1  26
BRANCH   3  27
ATOM     27  O   LIG A   1      -7.532   4.314 129.727  0.00  0.00    -0.491 OA
ATOM     28  C   LIG A   1      -7.695   3.329 130.744  0.00  0.00    +0.277 C 
ENDBRANCH   3  27
BRANCH   6  29
ATOM     29  C   LIG A   1      -8.262   5.652 125.933  0.00  0.00    +0.168 C 
BRANCH  29  30
ATOM     30  O   LIG A   1      -9.616   5.762 126.346  0.00  0.00    -0.348 OA
BRANCH  30  31
ATOM     31  C   LIG A   1      -9.784   6.598 127.484  0.00  0.00    +0.282 C 
ATOM     32  C   LIG A   1     -10.744   7.759 127.109  0.00  0.00    +0.201 C 
ATOM     33  C   LIG A   1     -12.213   7.380 127.346  0.00  0.00    +0.179 C 
ATOM     34  C   LIG A   1     -12.442   6.770 128.749  0.00  0.00    +0.177 C 
ATOM     35  C   LIG A   1     -11.118   6.439 129.462  0.00  0.00    +0.178 C 
ATOM     36  O   LIG A   1     -10.219   5.791 128.575  0.00  0.00    -0.341 OA
BRANCH  32  37
ATOM     37  O   LIG A   1     -10.456   8.935 127.892  0.00  0.00    -0.384 OA
ATOM     38  H   LIG A   1     -11.166   9.023 128.553  0.00  0.00    +0.210 HD
ENDBRANCH  32  37
BRANCH  33  39
ATOM     39  O   LIG A   1     -12.651   6.472 126.328  0.00  0.00    -0.386 OA
ATOM     40  H   LIG A   1     -12.909   5.636 126.748  0.00  0.00    +0.210 HD
ENDBRANCH  33  39
BRANCH  34  41
ATOM     41  O   LIG A   1     -13.190   7.676 129.574  0.00  0.00    -0.387 OA
ATOM     42  H   LIG A   1     -12.833   8.570 129.429  0.00  0.00    +0.210 HD
ENDBRANCH  34  41
BRANCH  35  43
ATOM     43  C   LIG A   1     -11.329   5.491 130.653  0.00  0.00    +0.190 C 
BRANCH  43  44
ATOM     44  O   LIG A   1     -12.099   6.052 131.708  0.00  0.00    -0.392 OA
ATOM     45  H   LIG A   1     -11.490   6.523 132.307  0.00  0.00    +0.209 HD
ENDBRANCH  43  44
ENDBRANCH  35  43
ENDBRANCH  30  31
ENDBRANCH  29  30
ENDBRANCH   6  29
BRANCH   7  46
ATOM     46  C   LIG A   1      -6.916   3.499 123.404  0.00  0.00    +0.160 C 
BRANCH  46  47
ATOM     47  O   LIG A   1      -8.277   3.694 123.064  0.00  0.00    -0.395 OA
ATOM     48  H   LIG A   1      -8.811   3.109 123.628  0.00  0.00    +0.209 HD
ENDBRANCH  46  47
ENDBRANCH   7  46
TORSDOF 17
ENDMDL
MODEL 2
REMARK VINA RESULT:      -7.5      0.453      2.037
REMARK  Name = NuBBE_207
REMARK  21 active torsions:
REMARK  status: ('A' for Active; 'I' for Inactive)
REMARK    1  A    between atoms: C_1  and  O_2
REMARK    2  A    between atoms: O_2  and  C_3
REMARK    3  A    between atoms: C_4  and  O_49
REMARK    4  A    between atoms: C_5  and  O_6
REMARK    5  A    between atoms: O_6  and  C_7
REMARK    6  A    between atoms: C_9  and  C_38
REMARK    7  A    between atoms: C_11  and  C_20
REMARK    8  A    between atoms: C_13  and  C_18
REMARK    9  A    between atoms: C_18  and  O_19
REMARK   10  A    between atoms: C_20  and  O_21
REMARK   11  A    between atoms: O_21  and  C_22
REMARK   12  A    between atoms: C_24  and  O_37
REMARK   13  A    between atoms: C_26  and  O_36
REMARK   14  A    between atoms: C_28  and  O_35
REMARK   15  A    between atoms: C_30  and  C_33
REMARK   16  A    between atoms: C_33  and  O_34
REMARK   17  A    between atoms: C_40  and  O_41
REMARK   18  A    between atoms: O_41  and  C_42
REMARK   19  A    between atoms: C_43  and  O_48
REMARK   20  A    between atoms: C_44  and  O_45
REMARK   21  A    between atoms: O_45  and  C_46
REMARK                            x       y       z     vdW  Elec       q    Type
REMARK                         _______ _______ _______ _____ _____    ______ ____
ROOT
ATOM      1  C   LIG A   1      -3.979   4.744 128.645  0.00  0.00    +0.165 A 
ATOM      2  C   LIG A   1      -5.147   4.774 129.413  0.00  0.00    +0.201 A 
ATOM      3  C   LIG A   1      -6.369   4.277 128.931  0.00  0.00    +0.169 A 
ATOM      4  C   LIG A   1      -6.429   3.829 127.606  0.00  0.00    +0.009 A 
ATOM      5  C   LIG A   1      -7.762   3.454 126.926  0.00  0.00    +0.059 C 
ATOM      6  C   LIG A   1      -7.865   4.255 125.586  0.00  0.00    +0.032 C 
ATOM      7  C   LIG A   1      -6.580   4.180 124.694  0.00  0.00    +0.025 C 
ATOM      8  C   LIG A   1      -5.416   3.406 125.351  0.00  0.00    +0.041 C 
ATOM      9  C   LIG A   1      -5.270   3.817 126.796  0.00  0.00    -0.036 A 
ATOM     10  C   LIG A   1      -4.039   4.248 127.333  0.00  0.00    +0.053 A 
ENDROOT
BRANCH   5  11
ATOM     11  C   LIG A   1      -7.988   1.942 126.797  0.00  0.00    -0.032 A 
ATOM     12  C   LIG A   1      -8.758   1.390 125.764  0.00  0.00    +0.053 A 
ATOM     13  C   LIG A   1      -8.954   0.010 125.638  0.00  0.00    +0.165 A 
ATOM     14  C   LIG A   1      -8.421  -0.832 126.624  0.00  0.00    +0.201 A 
ATOM     15  C   LIG A   1      -7.691  -0.313 127.697  0.00  0.00    +0.165 A 
ATOM     16  C   LIG A   1      -7.490   1.068 127.770  0.00  0.00    +0.053 A 
BRANCH  14  17
ATOM     17  O   LIG A   1      -8.647  -2.185 126.581  0.00  0.00    -0.501 OA
ATOM     18  H   LIG A   1      -7.858  -2.561 126.155  0.00  0.00    +0.292 HD
ENDBRANCH  14  17
BRANCH  15  19
ATOM     19  O   LIG A   1      -7.245  -1.198 128.649  0.00  0.00    -0.491 OA
ATOM     20  C   LIG A   1      -7.194  -0.703 129.984  0.00  0.00    +0.277 C 
ENDBRANCH  15  19
BRANCH  13  21
ATOM     21  O   LIG A   1      -9.661  -0.575 124.613  0.00  0.00    -0.491 OA
ATOM     22  C   LIG A   1      -8.982  -0.660 123.354  0.00  0.00    +0.277 C 
ENDBRANCH  13  21
ENDBRANCH   5  11
BRANCH   2  23
ATOM     23  O   LIG A   1      -5.172   5.487 130.577  0.00  0.00    -0.501 OA
ATOM     24  H   LIG A   1      -5.483   4.831 131.254  0.00  0.00    +0.292 HD
ENDBRANCH   2  23
BRANCH   1  26
ATOM     25  C   LIG A   1      -2.335   6.454 128.356  0.00  0.00    +0.277 C 
ATOM     26  O   LIG A   1      -2.769   5.273 129.027  0.00  0.00    -0.491 OA
ENDBRANCH   1  26
BRANCH   3  27
ATOM     27  O   LIG A   1      -7.549   4.296 129.630  0.00  0.00    -0.491 OA
ATOM     28  C   LIG A   1      -7.722   3.289 130.626  0.00  0.00    +0.277 C 
ENDBRANCH   3  27
BRANCH   6  29
ATOM     29  C   LIG A   1      -8.248   5.727 125.865  0.00  0.00    +0.168 C 
BRANCH  29  30
ATOM     30  O   LIG A   1      -9.608   5.836 126.257  0.00  0.00    -0.348 OA
BRANCH  30  31
ATOM     31  C   LIG A   1      -9.790   6.648 127.411  0.00  0.00    +0.282 C 
ATOM     32  C   LIG A   1     -10.785   7.788 127.064  0.00  0.00    +0.201 C 
ATOM     33  C   LIG A   1     -12.241   7.364 127.306  0.00  0.00    +0.179 C 
ATOM     34  C   LIG A   1     -12.442   6.725 128.699  0.00  0.00    +0.177 C 
ATOM     35  C   LIG A   1     -11.104   6.418 129.396  0.00  0.00    +0.178 C 
ATOM     36  O   LIG A   1     -10.194   5.811 128.491  0.00  0.00    -0.341 OA
BRANCH  32  37
ATOM     37  O   LIG A   1     -10.523   8.959 127.864  0.00  0.00    -0.384 OA
ATOM     38  H   LIG A   1     -10.505   8.673 128.796  0.00  0.00    +0.210 HD
ENDBRANCH  32  37
BRANCH  33  39
ATOM     39  O   LIG A   1     -12.662   6.463 126.275  0.00  0.00    -0.386 OA
ATOM     40  H   LIG A   1     -13.243   6.941 125.662  0.00  0.00    +0.210 HD
ENDBRANCH  33  39
BRANCH  34  41
ATOM     41  O   LIG A   1     -13.208   7.595 129.545  0.00  0.00    -0.387 OA
ATOM     42  H   LIG A   1     -12.581   8.160 130.032  0.00  0.00    +0.210 HD
ENDBRANCH  34  41
BRANCH  35  43
ATOM     43  C   LIG A   1     -11.279   5.445 130.572  0.00  0.00    +0.190 C 
BRANCH  43  44
ATOM     44  O   LIG A   1     -11.258   4.074 130.197  0.00  0.00    -0.392 OA
ATOM     45  H   LIG A   1     -11.441   3.542 130.994  0.00  0.00    +0.209 HD
ENDBRANCH  43  44
ENDBRANCH  35  43
ENDBRANCH  30  31
ENDBRANCH  29  30
ENDBRANCH   6  29
BRANCH   7  46
ATOM     46  C   LIG A   1      -6.899   3.626 123.294  0.00  0.00    +0.160 C 
BRANCH  46  47
ATOM     47  O   LIG A   1      -8.291   3.644 123.035  0.00  0.00    -0.395 OA
ATOM     48  H   LIG A   1      -8.431   3.307 122.135  0.00  0.00    +0.209 HD
ENDBRANCH  46  47
ENDBRANCH   7  46
TORSDOF 17
ENDMDL
MODEL 3
REMARK VINA RESULT:      -7.2      2.712      4.916
REMARK  Name = NuBBE_207
REMARK  21 active torsions:
REMARK  status: ('A' for Active; 'I' for Inactive)
REMARK    1  A    between atoms: C_1  and  O_2
REMARK    2  A    between atoms: O_2  and  C_3
REMARK    3  A    between atoms: C_4  and  O_49
REMARK    4  A    between atoms: C_5  and  O_6
REMARK    5  A    between atoms: O_6  and  C_7
REMARK    6  A    between atoms: C_9  and  C_38
REMARK    7  A    between atoms: C_11  and  C_20
REMARK    8  A    between atoms: C_13  and  C_18
REMARK    9  A    between atoms: C_18  and  O_19
REMARK   10  A    between atoms: C_20  and  O_21
REMARK   11  A    between atoms: O_21  and  C_22
REMARK   12  A    between atoms: C_24  and  O_37
REMARK   13  A    between atoms: C_26  and  O_36
REMARK   14  A    between atoms: C_28  and  O_35
REMARK   15  A    between atoms: C_30  and  C_33
REMARK   16  A    between atoms: C_33  and  O_34
REMARK   17  A    between atoms: C_40  and  O_41
REMARK   18  A    between atoms: O_41  and  C_42
REMARK   19  A    between atoms: C_43  and  O_48
REMARK   20  A    between atoms: C_44  and  O_45
REMARK   21  A    between atoms: O_45  and  C_46
REMARK                            x       y       z     vdW  Elec       q    Type
REMARK                         _______ _______ _______ _____ _____    ______ ____
ROOT
ATOM      1  C   LIG A   1      -4.719  -1.420 130.252  0.00  0.00    +0.165 A 
ATOM      2  C   LIG A   1      -5.967  -2.030 130.417  0.00  0.00    +0.201 A 
ATOM      3  C   LIG A   1      -7.053  -1.746 129.573  0.00  0.00    +0.169 A 
ATOM      4  C   LIG A   1      -6.898  -0.750 128.602  0.00  0.00    +0.009 A 
ATOM      5  C   LIG A   1      -8.085  -0.227 127.765  0.00  0.00    +0.059 C 
ATOM      6  C   LIG A   1      -8.120   1.331 127.894  0.00  0.00    +0.032 C 
ATOM      7  C   LIG A   1      -6.737   2.025 127.654  0.00  0.00    +0.025 C 
ATOM      8  C   LIG A   1      -5.576   1.031 127.430  0.00  0.00    +0.041 C 
ATOM      9  C   LIG A   1      -5.656  -0.094 128.434  0.00  0.00    -0.036 A 
ATOM     10  C   LIG A   1      -4.560  -0.457 129.243  0.00  0.00    +0.053 A 
ENDROOT
BRANCH   5  11
ATOM     11  C   LIG A   1      -8.111  -0.761 126.327  0.00  0.00    -0.032 A 
ATOM     12  C   LIG A   1      -7.264  -1.793 125.900  0.00  0.00    +0.053 A 
ATOM     13  C   LIG A   1      -7.296  -2.289 124.592  0.00  0.00    +0.165 A 
ATOM     14  C   LIG A   1      -8.154  -1.677 123.668  0.00  0.00    +0.201 A 
ATOM     15  C   LIG A   1      -8.976  -0.611 124.043  0.00  0.00    +0.165 A 
ATOM     16  C   LIG A   1      -8.938  -0.165 125.367  0.00  0.00    +0.053 A 
BRANCH  14  17
ATOM     17  O   LIG A   1      -8.169  -2.083 122.357  0.00  0.00    -0.501 OA
ATOM     18  H   LIG A   1      -7.932  -1.293 121.843  0.00  0.00    +0.292 HD
ENDBRANCH  14  17
BRANCH  15  19
ATOM     19  O   LIG A   1      -9.751  -0.032 123.068  0.00  0.00    -0.491 OA
ATOM     20  C   LIG A   1      -9.819   1.391 123.090  0.00  0.00    +0.277 C 
ENDBRANCH  15  19
BRANCH  13  21
ATOM     21  O   LIG A   1      -6.518  -3.333 124.147  0.00  0.00    -0.491 OA
ATOM     22  C   LIG A   1      -5.127  -3.043 123.964  0.00  0.00    +0.277 C 
ENDBRANCH  13  21
ENDBRANCH   5  11
BRANCH   2  23
ATOM     23  O   LIG A   1      -6.217  -2.760 131.543  0.00  0.00    -0.501 OA
ATOM     24  H   LIG A   1      -6.163  -3.702 131.235  0.00  0.00    +0.292 HD
ENDBRANCH   2  23
BRANCH   1  26
ATOM     25  C   LIG A   1      -3.551  -0.762 132.230  0.00  0.00    +0.277 C 
ATOM     26  O   LIG A   1      -3.636  -1.600 131.079  0.00  0.00    -0.491 OA
ENDBRANCH   1  26
BRANCH   3  27
ATOM     27  O   LIG A   1      -8.302  -2.298 129.698  0.00  0.00    -0.491 OA
ATOM     28  C   LIG A   1      -8.549  -3.498 128.969  0.00  0.00    +0.277 C 
ENDBRANCH   3  27
BRANCH   6  29
ATOM     29  C   LIG A   1      -8.707   1.746 129.262  0.00  0.00    +0.168 C 
BRANCH  29  30
ATOM     30  O   LIG A   1      -9.254   3.055 129.209  0.00  0.00    -0.348 OA
BRANCH  30  31
ATOM     31  C   LIG A   1     -10.139   3.332 130.288  0.00  0.00    +0.282 C 
ATOM     32  C   LIG A   1      -9.315   3.387 131.603  0.00  0.00    +0.201 C 
ATOM     33  C   LIG A   1      -8.771   4.797 131.873  0.00  0.00    +0.179 C 
ATOM     34  C   LIG A   1      -9.864   5.883 131.741  0.00  0.00    +0.177 C 
ATOM     35  C   LIG A   1     -11.157   5.332 131.112  0.00  0.00    +0.178 C 
ATOM     36  O   LIG A   1     -10.861   4.522 129.985  0.00  0.00    -0.341 OA
BRANCH  32  37
ATOM     37  O   LIG A   1     -10.125   2.998 132.731  0.00  0.00    -0.384 OA
ATOM     38  H   LIG A   1      -9.782   3.474 133.510  0.00  0.00    +0.210 HD
ENDBRANCH  32  37
BRANCH  33  39
ATOM     39  O   LIG A   1      -7.680   5.075 130.987  0.00  0.00    -0.386 OA
ATOM     40  H   LIG A   1      -6.917   5.362 131.513  0.00  0.00    +0.210 HD
ENDBRANCH  33  39
BRANCH  34  41
ATOM     41  O   LIG A   1     -10.182   6.434 133.028  0.00  0.00    -0.387 OA
ATOM     42  H   LIG A   1     -11.153   6.483 133.096  0.00  0.00    +0.210 HD
ENDBRANCH  34  41
BRANCH  35  43
ATOM     43  C   LIG A   1     -12.081   6.459 130.621  0.00  0.00    +0.190 C 
BRANCH  43  44
ATOM     44  O   LIG A   1     -12.895   7.024 131.640  0.00  0.00    -0.392 OA
ATOM     45  H   LIG A   1     -12.791   6.480 132.444  0.00  0.00    +0.209 HD
ENDBRANCH  43  44
ENDBRANCH  35  43
ENDBRANCH  30  31
ENDBRANCH  29  30
ENDBRANCH   6  29
BRANCH   7  46
ATOM     46  C   LIG A   1      -6.815   3.057 126.515  0.00  0.00    +0.160 C 
BRANCH  46  47
ATOM     47  O   LIG A   1      -8.149   3.478 126.289  0.00  0.00    -0.395 OA
ATOM     48  H   LIG A   1      -8.227   3.730 125.353  0.00  0.00    +0.209 HD
ENDBRANCH  46  47
ENDBRANCH   7  46
TORSDOF 17
ENDMDL
MODEL 4
REMARK VINA RESULT:      -7.2      2.353      4.183
REMARK  Name = NuBBE_207
REMARK  21 active torsions:
REMARK  status: ('A' for Active; 'I' for Inactive)
REMARK    1  A    between atoms: C_1  and  O_2
REMARK    2  A    between atoms: O_2  and  C_3
REMARK    3  A    between atoms: C_4  and  O_49
REMARK    4  A    between atoms: C_5  and  O_6
REMARK    5  A    between atoms: O_6  and  C_7
REMARK    6  A    between atoms: C_9  and  C_38
REMARK    7  A    between atoms: C_11  and  C_20
REMARK    8  A    between atoms: C_13  and  C_18
REMARK    9  A    between atoms: C_18  and  O_19
REMARK   10  A    between atoms: C_20  and  O_21
REMARK   11  A    between atoms: O_21  and  C_22
REMARK   12  A    between atoms: C_24  and  O_37
REMARK   13  A    between atoms: C_26  and  O_36
REMARK   14  A    between atoms: C_28  and  O_35
REMARK   15  A    between atoms: C_30  and  C_33
REMARK   16  A    between atoms: C_33  and  O_34
REMARK   17  A    between atoms: C_40  and  O_41
REMARK   18  A    between atoms: O_41  and  C_42
REMARK   19  A    between atoms: C_43  and  O_48
REMARK   20  A    between atoms: C_44  and  O_45
REMARK   21  A    between atoms: O_45  and  C_46
REMARK                            x       y       z     vdW  Elec       q    Type
REMARK                         _______ _______ _______ _____ _____    ______ ____
ROOT
ATOM      1  C   LIG A   1      -4.675   0.159 131.616  0.00  0.00    +0.165 A 
ATOM      2  C   LIG A   1      -6.016   0.121 132.014  0.00  0.00    +0.201 A 
ATOM      3  C   LIG A   1      -7.060   0.492 131.151  0.00  0.00    +0.169 A 
ATOM      4  C   LIG A   1      -6.731   1.006 129.891  0.00  0.00    +0.009 A 
ATOM      5  C   LIG A   1      -7.790   1.624 128.955  0.00  0.00    +0.059 C 
ATOM      6  C   LIG A   1      -7.295   3.048 128.535  0.00  0.00    +0.032 C 
ATOM      7  C   LIG A   1      -5.811   3.089 128.036  0.00  0.00    +0.025 C 
ATOM      8  C   LIG A   1      -5.085   1.729 128.141  0.00  0.00    +0.041 C 
ATOM      9  C   LIG A   1      -5.382   1.086 129.475  0.00  0.00    -0.036 A 
ATOM     10  C   LIG A   1      -4.359   0.631 130.332  0.00  0.00    +0.053 A 
ENDROOT
BRANCH   5  11
ATOM     11  C   LIG A   1      -8.198   0.711 127.792  0.00  0.00    -0.032 A 
ATOM     12  C   LIG A   1      -8.970   1.173 126.717  0.00  0.00    +0.053 A 
ATOM     13  C   LIG A   1      -9.331   0.344 125.650  0.00  0.00    +0.165 A 
ATOM     14  C   LIG A   1      -8.968  -1.009 125.703  0.00  0.00    +0.201 A 
ATOM     15  C   LIG A   1      -8.243  -1.518 126.784  0.00  0.00    +0.165 A 
ATOM     16  C   LIG A   1      -7.873  -0.651 127.815  0.00  0.00    +0.053 A 
BRANCH  14  17
ATOM     17  O   LIG A   1      -9.361  -1.875 124.714  0.00  0.00    -0.501 OA
ATOM     18  H   LIG A   1      -9.319  -2.758 125.117  0.00  0.00    +0.292 HD
ENDBRANCH  14  17
BRANCH  15  19
ATOM     19  O   LIG A   1      -7.969  -2.864 126.788  0.00  0.00    -0.491 OA
ATOM     20  C   LIG A   1      -8.664  -3.638 127.761  0.00  0.00    +0.277 C 
ENDBRANCH  15  19
BRANCH  13  21
ATOM     21  O   LIG A   1     -10.045   0.770 124.553  0.00  0.00    -0.491 OA
ATOM     22  C   LIG A   1      -9.501   1.895 123.851  0.00  0.00    +0.277 C 
ENDBRANCH  13  21
ENDBRANCH   5  11
BRANCH   2  23
ATOM     23  O   LIG A   1      -6.324  -0.077 133.329  0.00  0.00    -0.501 OA
ATOM     24  H   LIG A   1      -5.737   0.561 133.812  0.00  0.00    +0.292 HD
ENDBRANCH   2  23
BRANCH   1  26
ATOM     25  C   LIG A   1      -3.155  -1.478 132.464  0.00  0.00    +0.277 C 
ATOM     26  O   LIG A   1      -3.603  -0.125 132.428  0.00  0.00    -0.491 OA
ENDBRANCH   1  26
BRANCH   3  27
ATOM     27  O   LIG A   1      -8.388   0.492 131.490  0.00  0.00    -0.491 OA
ATOM     28  C   LIG A   1      -8.867   1.625 132.211  0.00  0.00    +0.277 C 
ENDBRANCH   3  27
BRANCH   6  29
ATOM     29  C   LIG A   1      -7.508   4.055 129.689  0.00  0.00    +0.168 C 
BRANCH  29  30
ATOM     30  O   LIG A   1      -8.004   5.293 129.203  0.00  0.00    -0.348 OA
BRANCH  30  31
ATOM     31  C   LIG A   1      -9.403   5.269 128.946  0.00  0.00    +0.282 C 
ATOM     32  C   LIG A   1     -10.147   4.964 130.274  0.00  0.00    +0.201 C 
ATOM     33  C   LIG A   1     -10.456   6.248 131.058  0.00  0.00    +0.179 C 
ATOM     34  C   LIG A   1     -11.116   7.331 130.174  0.00  0.00    +0.177 C 
ATOM     35  C   LIG A   1     -11.058   6.973 128.677  0.00  0.00    +0.178 C 
ATOM     36  O   LIG A   1      -9.768   6.498 128.325  0.00  0.00    -0.341 OA
BRANCH  32  37
ATOM     37  O   LIG A   1     -11.393   4.286 130.020  0.00  0.00    -0.384 OA
ATOM     38  H   LIG A   1     -11.191   3.506 129.471  0.00  0.00    +0.210 HD
ENDBRANCH  32  37
BRANCH  33  39
ATOM     39  O   LIG A   1      -9.256   6.753 131.656  0.00  0.00    -0.386 OA
ATOM     40  H   LIG A   1      -9.498   7.326 132.402  0.00  0.00    +0.210 HD
ENDBRANCH  33  39
BRANCH  34  41
ATOM     41  O   LIG A   1     -12.491   7.513 130.545  0.00  0.00    -0.387 OA
ATOM     42  H   LIG A   1     -12.912   6.635 130.558  0.00  0.00    +0.210 HD
ENDBRANCH  34  41
BRANCH  35  43
ATOM     43  C   LIG A   1     -11.343   8.192 127.785  0.00  0.00    +0.190 C 
BRANCH  43  44
ATOM     44  O   LIG A   1     -12.040   9.241 128.444  0.00  0.00    -0.392 OA
ATOM     45  H   LIG A   1     -12.933   9.300 128.053  0.00  0.00    +0.209 HD
ENDBRANCH  43  44
ENDBRANCH  35  43
ENDBRANCH  30  31
ENDBRANCH  29  30
ENDBRANCH   6  29
BRANCH   7  46
ATOM     46  C   LIG A   1      -5.713   3.664 126.612  0.00  0.00    +0.160 C 
BRANCH  46  47
ATOM     47  O   LIG A   1      -6.380   4.909 126.510  0.00  0.00    -0.395 OA
ATOM     48  H   LIG A   1      -6.235   5.394 127.340  0.00  0.00    +0.209 HD
ENDBRANCH  46  47
ENDBRANCH   7  46
TORSDOF 17
ENDMDL
MODEL 5
REMARK VINA RESULT:      -7.2      3.157      8.910
REMARK  Name = NuBBE_207
REMARK  21 active torsions:
REMARK  status: ('A' for Active; 'I' for Inactive)
REMARK    1  A    between atoms: C_1  and  O_2
REMARK    2  A    between atoms: O_2  and  C_3
REMARK    3  A    between atoms: C_4  and  O_49
REMARK    4  A    between atoms: C_5  and  O_6
REMARK    5  A    between atoms: O_6  and  C_7
REMARK    6  A    between atoms: C_9  and  C_38
REMARK    7  A    between atoms: C_11  and  C_20
REMARK    8  A    between atoms: C_13  and  C_18
REMARK    9  A    between atoms: C_18  and  O_19
REMARK   10  A    between atoms: C_20  and  O_21
REMARK   11  A    between atoms: O_21  and  C_22
REMARK   12  A    between atoms: C_24  and  O_37
REMARK   13  A    between atoms: C_26  and  O_36
REMARK   14  A    between atoms: C_28  and  O_35
REMARK   15  A    between atoms: C_30  and  C_33
REMARK   16  A    between atoms: C_33  and  O_34
REMARK   17  A    between atoms: C_40  and  O_41
REMARK   18  A    between atoms: O_41  and  C_42
REMARK   19  A    between atoms: C_43  and  O_48
REMARK   20  A    between atoms: C_44  and  O_45
REMARK   21  A    between atoms: O_45  and  C_46
REMARK                            x       y       z     vdW  Elec       q    Type
REMARK                         _______ _______ _______ _____ _____    ______ ____
ROOT
ATOM      1  C   LIG A   1      -5.956  -2.609 123.952  0.00  0.00    +0.165 A 
ATOM      2  C   LIG A   1      -7.345  -2.621 124.118  0.00  0.00    +0.201 A 
ATOM      3  C   LIG A   1      -8.001  -1.715 124.968  0.00  0.00    +0.169 A 
ATOM      4  C   LIG A   1      -7.224  -0.845 125.741  0.00  0.00    +0.009 A 
ATOM      5  C   LIG A   1      -7.837   0.042 126.845  0.00  0.00    +0.059 C 
ATOM      6  C   LIG A   1      -7.040  -0.209 128.167  0.00  0.00    +0.032 C 
ATOM      7  C   LIG A   1      -5.484  -0.142 128.000  0.00  0.00    +0.025 C 
ATOM      8  C   LIG A   1      -5.027   0.066 126.539  0.00  0.00    +0.041 C 
ATOM      9  C   LIG A   1      -5.815  -0.833 125.616  0.00  0.00    -0.036 A 
ATOM     10  C   LIG A   1      -5.189  -1.698 124.696  0.00  0.00    +0.053 A 
ENDROOT
BRANCH   5  11
ATOM     11  C   LIG A   1      -7.983   1.517 126.445  0.00  0.00    -0.032 A 
ATOM     12  C   LIG A   1      -8.139   1.914 125.110  0.00  0.00    +0.053 A 
ATOM     13  C   LIG A   1      -8.285   3.257 124.746  0.00  0.00    +0.165 A 
ATOM     14  C   LIG A   1      -8.198   4.233 125.749  0.00  0.00    +0.201 A 
ATOM     15  C   LIG A   1      -7.991   3.878 127.085  0.00  0.00    +0.165 A 
ATOM     16  C   LIG A   1      -7.882   2.524 127.412  0.00  0.00    +0.053 A 
BRANCH  14  17
ATOM     17  O   LIG A   1      -8.265   5.566 125.430  0.00  0.00    -0.501 OA
ATOM     18  H   LIG A   1      -7.344   5.841 125.286  0.00  0.00    +0.292 HD
ENDBRANCH  14  17
BRANCH  15  19
ATOM     19  O   LIG A   1      -7.866   4.894 128.000  0.00  0.00    -0.491 OA
ATOM     20  C   LIG A   1      -8.268   4.586 129.332  0.00  0.00    +0.277 C 
ENDBRANCH  15  19
BRANCH  13  21
ATOM     21  O   LIG A   1      -8.490   3.685 123.455  0.00  0.00    -0.491 OA
ATOM     22  C   LIG A   1      -8.757   2.660 122.490  0.00  0.00    +0.277 C 
ENDBRANCH  13  21
ENDBRANCH   5  11
BRANCH   2  23
ATOM     23  O   LIG A   1      -8.076  -3.658 123.616  0.00  0.00    -0.501 OA
ATOM     24  H   LIG A   1      -7.405  -4.374 123.467  0.00  0.00    +0.292 HD
ENDBRANCH   2  23
BRANCH   1  26
ATOM     25  C   LIG A   1      -4.383  -4.407 123.885  0.00  0.00    +0.277 C 
ATOM     26  O   LIG A   1      -5.244  -3.506 123.191  0.00  0.00    -0.491 OA
ENDBRANCH   1  26
BRANCH   3  27
ATOM     27  O   LIG A   1      -9.355  -1.691 125.183  0.00  0.00    -0.491 OA
ATOM     28  C   LIG A   1      -9.904  -2.764 125.946  0.00  0.00    +0.277 C 
ENDBRANCH   3  27
BRANCH   6  29
ATOM     29  C   LIG A   1      -7.461  -1.553 128.803  0.00  0.00    +0.168 C 
BRANCH  29  30
ATOM     30  O   LIG A   1      -6.356  -2.438 128.909  0.00  0.00    -0.348 OA
BRANCH  30  31
ATOM     31  C   LIG A   1      -6.186  -2.960 130.222  0.00  0.00    +0.282 C 
ATOM     32  C   LIG A   1      -5.043  -4.011 130.193  0.00  0.00    +0.201 C 
ATOM     33  C   LIG A   1      -3.670  -3.364 130.424  0.00  0.00    +0.179 C 
ATOM     34  C   LIG A   1      -3.664  -2.427 131.654  0.00  0.00    +0.177 C 
ATOM     35  C   LIG A   1      -5.084  -2.154 132.184  0.00  0.00    +0.178 C 
ATOM     36  O   LIG A   1      -5.973  -1.871 131.115  0.00  0.00    -0.341 OA
BRANCH  32  37
ATOM     37  O   LIG A   1      -5.242  -5.012 131.212  0.00  0.00    -0.384 OA
ATOM     38  H   LIG A   1      -5.981  -4.711 131.772  0.00  0.00    +0.210 HD
ENDBRANCH  32  37
BRANCH  33  39
ATOM     39  O   LIG A   1      -3.264  -2.652 129.250  0.00  0.00    -0.386 OA
ATOM     40  H   LIG A   1      -2.626  -1.967 129.507  0.00  0.00    +0.210 HD
ENDBRANCH  33  39
BRANCH  34  41
ATOM     41  O   LIG A   1      -2.882  -2.996 132.715  0.00  0.00    -0.387 OA
ATOM     42  H   LIG A   1      -2.395  -2.270 133.145  0.00  0.00    +0.210 HD
ENDBRANCH  34  41
BRANCH  35  43
ATOM     43  C   LIG A   1      -5.121  -0.942 133.128  0.00  0.00    +0.190 C 
BRANCH  43  44
ATOM     44  O   LIG A   1      -4.047  -0.030 132.941  0.00  0.00    -0.392 OA
ATOM     45  H   LIG A   1      -3.616   0.109 133.806  0.00  0.00    +0.209 HD
ENDBRANCH  43  44
ENDBRANCH  35  43
ENDBRANCH  30  31
ENDBRANCH  29  30
ENDBRANCH   6  29
BRANCH   7  46
ATOM     46  C   LIG A   1      -4.863   0.912 128.933  0.00  0.00    +0.160 C 
BRANCH  46  47
ATOM     47  O   LIG A   1      -4.003   0.315 129.887  0.00  0.00    -0.395 OA
ATOM     48  H   LIG A   1      -3.206   0.012 129.421  0.00  0.00    +0.209 HD
ENDBRANCH  46  47
ENDBRANCH   7  46
TORSDOF 17
ENDMDL
MODEL 6
REMARK VINA RESULT:      -7.1      3.102      7.339
REMARK  Name = NuBBE_207
REMARK  21 active torsions:
REMARK  status: ('A' for Active; 'I' for Inactive)
REMARK    1  A    between atoms: C_1  and  O_2
REMARK    2  A    between atoms: O_2  and  C_3
REMARK    3  A    between atoms: C_4  and  O_49
REMARK    4  A    between atoms: C_5  and  O_6
REMARK    5  A    between atoms: O_6  and  C_7
REMARK    6  A    between atoms: C_9  and  C_38
REMARK    7  A    between atoms: C_11  and  C_20
REMARK    8  A    between atoms: C_13  and  C_18
REMARK    9  A    between atoms: C_18  and  O_19
REMARK   10  A    between atoms: C_20  and  O_21
REMARK   11  A    between atoms: O_21  and  C_22
REMARK   12  A    between atoms: C_24  and  O_37
REMARK   13  A    between atoms: C_26  and  O_36
REMARK   14  A    between atoms: C_28  and  O_35
REMARK   15  A    between atoms: C_30  and  C_33
REMARK   16  A    between atoms: C_33  and  O_34
REMARK   17  A    between atoms: C_40  and  O_41
REMARK   18  A    between atoms: O_41  and  C_42
REMARK   19  A    between atoms: C_43  and  O_48
REMARK   20  A    between atoms: C_44  and  O_45
REMARK   21  A    between atoms: O_45  and  C_46
REMARK                            x       y       z     vdW  Elec       q    Type
REMARK                         _______ _______ _______ _____ _____    ______ ____
ROOT
ATOM      1  C   LIG A   1      -7.338   0.672 132.563  0.00  0.00    +0.165 A 
ATOM      2  C   LIG A   1      -7.761   1.256 131.364  0.00  0.00    +0.201 A 
ATOM      3  C   LIG A   1      -7.498   2.601 131.057  0.00  0.00    +0.169 A 
ATOM      4  C   LIG A   1      -6.879   3.397 132.028  0.00  0.00    +0.009 A 
ATOM      5  C   LIG A   1      -6.730   4.924 131.865  0.00  0.00    +0.059 C 
ATOM      6  C   LIG A   1      -7.318   5.609 133.143  0.00  0.00    +0.032 C 
ATOM      7  C   LIG A   1      -6.805   4.996 134.490  0.00  0.00    +0.025 C 
ATOM      8  C   LIG A   1      -5.888   3.768 134.303  0.00  0.00    +0.041 C 
ATOM      9  C   LIG A   1      -6.470   2.840 133.262  0.00  0.00    -0.036 A 
ATOM     10  C   LIG A   1      -6.676   1.468 133.511  0.00  0.00    +0.053 A 
ENDROOT
BRANCH   5  11
ATOM     11  C   LIG A   1      -5.312   5.371 131.483  0.00  0.00    -0.032 A 
ATOM     12  C   LIG A   1      -4.705   6.494 132.060  0.00  0.00    +0.053 A 
ATOM     13  C   LIG A   1      -3.407   6.894 131.722  0.00  0.00    +0.165 A 
ATOM     14  C   LIG A   1      -2.731   6.186 130.720  0.00  0.00    +0.201 A 
ATOM     15  C   LIG A   1      -3.324   5.091 130.085  0.00  0.00    +0.165 A 
ATOM     16  C   LIG A   1      -4.609   4.703 130.473  0.00  0.00    +0.053 A 
BRANCH  14  17
ATOM     17  O   LIG A   1      -1.484   6.584 130.306  0.00  0.00    -0.501 OA
ATOM     18  H   LIG A   1      -1.176   7.204 130.988  0.00  0.00    +0.292 HD
ENDBRANCH  14  17
BRANCH  15  19
ATOM     19  O   LIG A   1      -2.617   4.481 129.078  0.00  0.00    -0.491 OA
ATOM     20  C   LIG A   1      -3.248   3.360 128.465  0.00  0.00    +0.277 C 
ENDBRANCH  15  19
BRANCH  13  21
ATOM     21  O   LIG A   1      -2.757   7.960 132.301  0.00  0.00    -0.491 OA
ATOM     22  C   LIG A   1      -2.554   7.876 133.716  0.00  0.00    +0.277 C 
ENDBRANCH  13  21
ENDBRANCH   5  11
BRANCH   2  23
ATOM     23  O   LIG A   1      -8.629   0.582 130.554  0.00  0.00    -0.501 OA
ATOM     24  H   LIG A   1      -8.731  -0.301 130.995  0.00  0.00    +0.292 HD
ENDBRANCH   2  23
BRANCH   1  26
ATOM     25  C   LIG A   1      -6.674  -1.623 132.603  0.00  0.00    +0.277 C 
ATOM     26  O   LIG A   1      -7.619  -0.614 132.957  0.00  0.00    -0.491 OA
ENDBRANCH   1  26
BRANCH   3  27
ATOM     27  O   LIG A   1      -7.901   3.231 129.908  0.00  0.00    -0.491 OA
ATOM     28  C   LIG A   1      -7.187   2.912 128.715  0.00  0.00    +0.277 C 
ENDBRANCH   3  27
BRANCH   6  29
ATOM     29  C   LIG A   1      -8.863   5.603 133.095  0.00  0.00    +0.168 C 
BRANCH  29  30
ATOM     30  O   LIG A   1      -9.353   6.640 132.258  0.00  0.00    -0.348 OA
BRANCH  30  31
ATOM     31  C   LIG A   1      -9.497   6.238 130.901  0.00  0.00    +0.282 C 
ATOM     32  C   LIG A   1     -10.616   5.164 130.818  0.00  0.00    +0.201 C 
ATOM     33  C   LIG A   1     -12.000   5.801 130.629  0.00  0.00    +0.179 C 
ATOM     34  C   LIG A   1     -12.014   6.847 129.491  0.00  0.00    +0.177 C 
ATOM     35  C   LIG A   1     -10.594   7.198 129.007  0.00  0.00    +0.178 C 
ATOM     36  O   LIG A   1      -9.724   7.400 130.109  0.00  0.00    -0.341 OA
BRANCH  32  37
ATOM     37  O   LIG A   1     -10.384   4.266 129.714  0.00  0.00    -0.384 OA
ATOM     38  H   LIG A   1     -10.441   3.358 130.064  0.00  0.00    +0.210 HD
ENDBRANCH  32  37
BRANCH  33  39
ATOM     39  O   LIG A   1     -12.435   6.393 131.859  0.00  0.00    -0.386 OA
ATOM     40  H   LIG A   1     -12.550   5.691 132.519  0.00  0.00    +0.210 HD
ENDBRANCH  33  39
BRANCH  34  41
ATOM     41  O   LIG A   1     -12.770   6.362 128.372  0.00  0.00    -0.387 OA
ATOM     42  H   LIG A   1     -13.712   6.382 128.621  0.00  0.00    +0.210 HD
ENDBRANCH  34  41
BRANCH  35  43
ATOM     43  C   LIG A   1     -10.574   8.492 128.179  0.00  0.00    +0.190 C 
BRANCH  43  44
ATOM     44  O   LIG A   1     -10.828   8.297 126.794  0.00  0.00    -0.392 OA
ATOM     45  H   LIG A   1     -11.667   7.807 126.709  0.00  0.00    +0.209 HD
ENDBRANCH  43  44
ENDBRANCH  35  43
ENDBRANCH  30  31
ENDBRANCH  29  30
ENDBRANCH   6  29
BRANCH   7  46
ATOM     46  C   LIG A   1      -6.135   6.063 135.374  0.00  0.00    +0.160 C 
BRANCH  46  47
ATOM     47  O   LIG A   1      -6.346   5.803 136.750  0.00  0.00    -0.395 OA
ATOM     48  H   LIG A   1      -7.183   6.226 137.008  0.00  0.00    +0.209 HD
ENDBRANCH  46  47
ENDBRANCH   7  46
TORSDOF 17
ENDMDL
MODEL 7
REMARK VINA RESULT:      -7.1      2.303      4.028
REMARK  Name = NuBBE_207
REMARK  21 active torsions:
REMARK  status: ('A' for Active; 'I' for Inactive)
REMARK    1  A    between atoms: C_1  and  O_2
REMARK    2  A    between atoms: O_2  and  C_3
REMARK    3  A    between atoms: C_4  and  O_49
REMARK    4  A    between atoms: C_5  and  O_6
REMARK    5  A    between atoms: O_6  and  C_7
REMARK    6  A    between atoms: C_9  and  C_38
REMARK    7  A    between atoms: C_11  and  C_20
REMARK    8  A    between atoms: C_13  and  C_18
REMARK    9  A    between atoms: C_18  and  O_19
REMARK   10  A    between atoms: C_20  and  O_21
REMARK   11  A    between atoms: O_21  and  C_22
REMARK   12  A    between atoms: C_24  and  O_37
REMARK   13  A    between atoms: C_26  and  O_36
REMARK   14  A    between atoms: C_28  and  O_35
REMARK   15  A    between atoms: C_30  and  C_33
REMARK   16  A    between atoms: C_33  and  O_34
REMARK   17  A    between atoms: C_40  and  O_41
REMARK   18  A    between atoms: O_41  and  C_42
REMARK   19  A    between atoms: C_43  and  O_48
REMARK   20  A    between atoms: C_44  and  O_45
REMARK   21  A    between atoms: O_45  and  C_46
REMARK                            x       y       z     vdW  Elec       q    Type
REMARK                         _______ _______ _______ _____ _____    ______ ____
ROOT
ATOM      1  C   LIG A   1      -5.194  -0.133 131.974  0.00  0.00    +0.165 A 
ATOM      2  C   LIG A   1      -6.566  -0.056 132.238  0.00  0.00    +0.201 A 
ATOM      3  C   LIG A   1      -7.479   0.444 131.296  0.00  0.00    +0.169 A 
ATOM      4  C   LIG A   1      -6.979   0.967 130.097  0.00  0.00    +0.009 A 
ATOM      5  C   LIG A   1      -7.877   1.716 129.090  0.00  0.00    +0.059 C 
ATOM      6  C   LIG A   1      -7.212   3.099 128.783  0.00  0.00    +0.032 C 
ATOM      7  C   LIG A   1      -5.688   3.013 128.432  0.00  0.00    +0.025 C 
ATOM      8  C   LIG A   1      -5.106   1.587 128.548  0.00  0.00    +0.041 C 
ATOM      9  C   LIG A   1      -5.593   0.930 129.817  0.00  0.00    -0.036 A 
ATOM     10  C   LIG A   1      -4.708   0.349 130.749  0.00  0.00    +0.053 A 
ENDROOT
BRANCH   5  11
ATOM     11  C   LIG A   1      -8.249   0.887 127.854  0.00  0.00    -0.032 A 
ATOM     12  C   LIG A   1      -8.025  -0.495 127.791  0.00  0.00    +0.053 A 
ATOM     13  C   LIG A   1      -8.376  -1.255 126.669  0.00  0.00    +0.165 A 
ATOM     14  C   LIG A   1      -8.900  -0.591 125.551  0.00  0.00    +0.201 A 
ATOM     15  C   LIG A   1      -9.090   0.794 125.559  0.00  0.00    +0.165 A 
ATOM     16  C   LIG A   1      -8.756   1.513 126.710  0.00  0.00    +0.053 A 
BRANCH  14  17
ATOM     17  O   LIG A   1      -9.193  -1.284 124.404  0.00  0.00    -0.501 OA
ATOM     18  H   LIG A   1      -8.446  -1.115 123.806  0.00  0.00    +0.292 HD
ENDBRANCH  14  17
BRANCH  15  19
ATOM     19  O   LIG A   1      -9.559   1.377 124.407  0.00  0.00    -0.491 OA
ATOM     20  C   LIG A   1      -8.897   2.571 123.999  0.00  0.00    +0.277 C 
ENDBRANCH  15  19
BRANCH  13  21
ATOM     21  O   LIG A   1      -8.219  -2.619 126.586  0.00  0.00    -0.491 OA
ATOM     22  C   LIG A   1      -8.497  -3.356 127.783  0.00  0.00    +0.277 C 
ENDBRANCH  13  21
ENDBRANCH   5  11
BRANCH   2  23
ATOM     23  O   LIG A   1      -7.022  -0.267 133.507  0.00  0.00    -0.501 OA
ATOM     24  H   LIG A   1      -7.631   0.499 133.674  0.00  0.00    +0.292 HD
ENDBRANCH   2  23
BRANCH   1  26
ATOM     25  C   LIG A   1      -3.404  -1.633 132.479  0.00  0.00    +0.277 C 
ATOM     26  O   LIG A   1      -4.240  -0.547 132.872  0.00  0.00    -0.491 OA
ENDBRANCH   1  26
BRANCH   3  27
ATOM     27  O   LIG A   1      -8.829   0.561 131.504  0.00  0.00    -0.491 OA
ATOM     28  C   LIG A   1      -9.271   1.711 132.223  0.00  0.00    +0.277 C 
ENDBRANCH   3  27
BRANCH   6  29
ATOM     29  C   LIG A   1      -7.446   4.081 129.954  0.00  0.00    +0.168 C 
BRANCH  29  30
ATOM     30  O   LIG A   1      -7.978   5.313 129.490  0.00  0.00    -0.348 OA
BRANCH  30  31
ATOM     31  C   LIG A   1      -9.345   5.220 129.108  0.00  0.00    +0.282 C 
ATOM     32  C   LIG A   1     -10.190   4.887 130.368  0.00  0.00    +0.201 C 
ATOM     33  C   LIG A   1     -10.629   6.159 131.108  0.00  0.00    +0.179 C 
ATOM     34  C   LIG A   1     -11.258   7.203 130.157  0.00  0.00    +0.177 C 
ATOM     35  C   LIG A   1     -11.048   6.841 128.675  0.00  0.00    +0.178 C 
ATOM     36  O   LIG A   1      -9.710   6.427 128.445  0.00  0.00    -0.341 OA
BRANCH  32  37
ATOM     37  O   LIG A   1     -11.375   4.148 130.009  0.00  0.00    -0.384 OA
ATOM     38  H   LIG A   1     -11.955   4.755 129.515  0.00  0.00    +0.210 HD
ENDBRANCH  32  37
BRANCH  33  39
ATOM     39  O   LIG A   1      -9.514   6.725 131.806  0.00  0.00    -0.386 OA
ATOM     40  H   LIG A   1      -8.699   6.482 131.338  0.00  0.00    +0.210 HD
ENDBRANCH  33  39
BRANCH  34  41
ATOM     41  O   LIG A   1     -12.668   7.321 130.402  0.00  0.00    -0.387 OA
ATOM     42  H   LIG A   1     -12.911   8.256 130.283  0.00  0.00    +0.210 HD
ENDBRANCH  34  41
BRANCH  35  43
ATOM     43  C   LIG A   1     -11.310   8.039 127.749  0.00  0.00    +0.190 C 
BRANCH  43  44
ATOM     44  O   LIG A   1     -11.801   9.192 128.419  0.00  0.00    -0.392 OA
ATOM     45  H   LIG A   1     -11.089   9.859 128.432  0.00  0.00    +0.209 HD
ENDBRANCH  43  44
ENDBRANCH  35  43
ENDBRANCH  30  31
ENDBRANCH  29  30
ENDBRANCH   6  29
BRANCH   7  46
ATOM     46  C   LIG A   1      -5.395   3.625 127.051  0.00  0.00    +0.160 C 
BRANCH  46  47
ATOM     47  O   LIG A   1      -6.199   4.765 126.808  0.00  0.00    -0.395 OA
ATOM     48  H   LIG A   1      -5.615   5.541 126.778  0.00  0.00    +0.209 HD
ENDBRANCH  46  47
ENDBRANCH   7  46
TORSDOF 17
ENDMDL
MODEL 8
REMARK VINA RESULT:      -7.1      2.359      6.484
REMARK  Name = NuBBE_207
REMARK  21 active torsions:
REMARK  status: ('A' for Active; 'I' for Inactive)
REMARK    1  A    between atoms: C_1  and  O_2
REMARK    2  A    between atoms: O_2  and  C_3
REMARK    3  A    between atoms: C_4  and  O_49
REMARK    4  A    between atoms: C_5  and  O_6
REMARK    5  A    between atoms: O_6  and  C_7
REMARK    6  A    between atoms: C_9  and  C_38
REMARK    7  A    between atoms: C_11  and  C_20
REMARK    8  A    between atoms: C_13  and  C_18
REMARK    9  A    between atoms: C_18  and  O_19
REMARK   10  A    between atoms: C_20  and  O_21
REMARK   11  A    between atoms: O_21  and  C_22
REMARK   12  A    between atoms: C_24  and  O_37
REMARK   13  A    between atoms: C_26  and  O_36
REMARK   14  A    between atoms: C_28  and  O_35
REMARK   15  A    between atoms: C_30  and  C_33
REMARK   16  A    between atoms: C_33  and  O_34
REMARK   17  A    between atoms: C_40  and  O_41
REMARK   18  A    between atoms: O_41  and  C_42
REMARK   19  A    between atoms: C_43  and  O_48
REMARK   20  A    between atoms: C_44  and  O_45
REMARK   21  A    between atoms: O_45  and  C_46
REMARK                            x       y       z     vdW  Elec       q    Type
REMARK                         _______ _______ _______ _____ _____    ______ ____
ROOT
ATOM      1  C   LIG A   1      -9.797   4.567 130.517  0.00  0.00    +0.165 A 
ATOM      2  C   LIG A   1      -9.053   4.983 129.408  0.00  0.00    +0.201 A 
ATOM      3  C   LIG A   1      -8.269   4.090 128.659  0.00  0.00    +0.169 A 
ATOM      4  C   LIG A   1      -8.160   2.767 129.104  0.00  0.00    +0.009 A 
ATOM      5  C   LIG A   1      -7.171   1.767 128.469  0.00  0.00    +0.059 C 
ATOM      6  C   LIG A   1      -6.305   1.148 129.615  0.00  0.00    +0.032 C 
ATOM      7  C   LIG A   1      -7.136   0.629 130.837  0.00  0.00    +0.025 C 
ATOM      8  C   LIG A   1      -8.650   0.913 130.722  0.00  0.00    +0.041 C 
ATOM      9  C   LIG A   1      -8.876   2.327 130.241  0.00  0.00    -0.036 A 
ATOM     10  C   LIG A   1      -9.718   3.227 130.926  0.00  0.00    +0.053 A 
ENDROOT
BRANCH   5  11
ATOM     11  C   LIG A   1      -7.835   0.747 127.534  0.00  0.00    -0.032 A 
ATOM     12  C   LIG A   1      -8.821   1.116 126.609  0.00  0.00    +0.053 A 
ATOM     13  C   LIG A   1      -9.417   0.190 125.748  0.00  0.00    +0.165 A 
ATOM     14  C   LIG A   1      -9.063  -1.161 125.873  0.00  0.00    +0.201 A 
ATOM     15  C   LIG A   1      -8.122  -1.575 126.819  0.00  0.00    +0.165 A 
ATOM     16  C   LIG A   1      -7.525  -0.614 127.640  0.00  0.00    +0.053 A 
BRANCH  14  17
ATOM     17  O   LIG A   1      -9.673  -2.115 125.097  0.00  0.00    -0.501 OA
ATOM     18  H   LIG A   1     -10.288  -1.625 124.526  0.00  0.00    +0.292 HD
ENDBRANCH  14  17
BRANCH  15  19
ATOM     19  O   LIG A   1      -7.866  -2.921 126.914  0.00  0.00    -0.491 OA
ATOM     20  C   LIG A   1      -8.488  -3.598 128.003  0.00  0.00    +0.277 C 
ENDBRANCH  15  19
BRANCH  13  21
ATOM     21  O   LIG A   1     -10.352   0.519 124.793  0.00  0.00    -0.491 OA
ATOM     22  C   LIG A   1     -10.002   1.601 123.922  0.00  0.00    +0.277 C 
ENDBRANCH  13  21
ENDBRANCH   5  11
BRANCH   2  23
ATOM     23  O   LIG A   1      -8.904   6.316 129.156  0.00  0.00    -0.501 OA
ATOM     24  H   LIG A   1      -9.700   6.731 129.580  0.00  0.00    +0.292 HD
ENDBRANCH   2  23
BRANCH   1  26
ATOM     25  C   LIG A   1      -9.894   5.866 132.521  0.00  0.00    +0.277 C 
ATOM     26  O   LIG A   1     -10.529   5.397 131.333  0.00  0.00    -0.491 OA
ENDBRANCH   1  26
BRANCH   3  27
ATOM     27  O   LIG A   1      -7.507   4.442 127.575  0.00  0.00    -0.491 OA
ATOM     28  C   LIG A   1      -8.190   4.605 126.334  0.00  0.00    +0.277 C 
ENDBRANCH   3  27
BRANCH   6  29
ATOM     29  C   LIG A   1      -5.226   2.153 130.079  0.00  0.00    +0.168 C 
BRANCH  29  30
ATOM     30  O   LIG A   1      -4.951   3.112 129.068  0.00  0.00    -0.348 OA
BRANCH  30  31
ATOM     31  C   LIG A   1      -3.589   3.520 129.045  0.00  0.00    +0.282 C 
ATOM     32  C   LIG A   1      -3.225   3.951 127.598  0.00  0.00    +0.201 C 
ATOM     33  C   LIG A   1      -3.528   5.436 127.355  0.00  0.00    +0.179 C 
ATOM     34  C   LIG A   1      -2.955   6.342 128.470  0.00  0.00    +0.177 C 
ATOM     35  C   LIG A   1      -2.461   5.530 129.682  0.00  0.00    +0.178 C 
ATOM     36  O   LIG A   1      -3.405   4.529 130.033  0.00  0.00    -0.341 OA
BRANCH  32  37
ATOM     37  O   LIG A   1      -1.824   3.733 127.336  0.00  0.00    -0.384 OA
ATOM     38  H   LIG A   1      -1.399   3.527 128.189  0.00  0.00    +0.210 HD
ENDBRANCH  32  37
BRANCH  33  39
ATOM     39  O   LIG A   1      -4.942   5.630 127.231  0.00  0.00    -0.386 OA
ATOM     40  H   LIG A   1      -5.354   5.477 128.097  0.00  0.00    +0.210 HD
ENDBRANCH  33  39
BRANCH  34  41
ATOM     41  O   LIG A   1      -1.859   7.123 127.969  0.00  0.00    -0.387 OA
ATOM     42  H   LIG A   1      -2.204   7.692 127.257  0.00  0.00    +0.210 HD
ENDBRANCH  34  41
BRANCH  35  43
ATOM     43  C   LIG A   1      -2.265   6.414 130.924  0.00  0.00    +0.190 C 
BRANCH  43  44
ATOM     44  O   LIG A   1      -2.985   7.638 130.882  0.00  0.00    -0.392 OA
ATOM     45  H   LIG A   1      -2.395   8.345 131.203  0.00  0.00    +0.209 HD
ENDBRANCH  43  44
ENDBRANCH  35  43
ENDBRANCH  30  31
ENDBRANCH  29  30
ENDBRANCH   6  29
BRANCH   7  46
ATOM     46  C   LIG A   1      -6.868  -0.862 131.108  0.00  0.00    +0.160 C 
BRANCH  46  47
ATOM     47  O   LIG A   1      -8.044  -1.636 130.953  0.00  0.00    -0.395 OA
ATOM     48  H   LIG A   1      -8.092  -1.922 130.025  0.00  0.00    +0.209 HD
ENDBRANCH  46  47
ENDBRANCH   7  46
TORSDOF 17
ENDMDL
MODEL 9
REMARK VINA RESULT:      -7.1      4.082      7.162
REMARK  Name = NuBBE_207
REMARK  21 active torsions:
REMARK  status: ('A' for Active; 'I' for Inactive)
REMARK    1  A    between atoms: C_1  and  O_2
REMARK    2  A    between atoms: O_2  and  C_3
REMARK    3  A    between atoms: C_4  and  O_49
REMARK    4  A    between atoms: C_5  and  O_6
REMARK    5  A    between atoms: O_6  and  C_7
REMARK    6  A    between atoms: C_9  and  C_38
REMARK    7  A    between atoms: C_11  and  C_20
REMARK    8  A    between atoms: C_13  and  C_18
REMARK    9  A    between atoms: C_18  and  O_19
REMARK   10  A    between atoms: C_20  and  O_21
REMARK   11  A    between atoms: O_21  and  C_22
REMARK   12  A    between atoms: C_24  and  O_37
REMARK   13  A    between atoms: C_26  and  O_36
REMARK   14  A    between atoms: C_28  and  O_35
REMARK   15  A    between atoms: C_30  and  C_33
REMARK   16  A    between atoms: C_33  and  O_34
REMARK   17  A    between atoms: C_40  and  O_41
REMARK   18  A    between atoms: O_41  and  C_42
REMARK   19  A    between atoms: C_43  and  O_48
REMARK   20  A    between atoms: C_44  and  O_45
REMARK   21  A    between atoms: O_45  and  C_46
REMARK                            x       y       z     vdW  Elec       q    Type
REMARK                         _______ _______ _______ _____ _____    ______ ____
ROOT
ATOM      1  C   LIG A   1      -2.990   4.409 128.643  0.00  0.00    +0.165 A 
ATOM      2  C   LIG A   1      -3.395   5.748 128.670  0.00  0.00    +0.201 A 
ATOM      3  C   LIG A   1      -4.306   6.232 129.623  0.00  0.00    +0.169 A 
ATOM      4  C   LIG A   1      -4.894   5.318 130.506  0.00  0.00    +0.009 A 
ATOM      5  C   LIG A   1      -6.048   5.714 131.451  0.00  0.00    +0.059 C 
ATOM      6  C   LIG A   1      -7.221   4.703 131.235  0.00  0.00    +0.032 C 
ATOM      7  C   LIG A   1      -6.783   3.199 131.259  0.00  0.00    +0.025 C 
ATOM      8  C   LIG A   1      -5.258   3.001 131.397  0.00  0.00    +0.041 C 
ATOM      9  C   LIG A   1      -4.526   3.952 130.480  0.00  0.00    -0.036 A 
ATOM     10  C   LIG A   1      -3.550   3.510 129.565  0.00  0.00    +0.053 A 
ENDROOT
BRANCH   5  11
ATOM     11  C   LIG A   1      -5.616   5.905 132.911  0.00  0.00    -0.032 A 
ATOM     12  C   LIG A   1      -6.491   5.677 133.982  0.00  0.00    +0.053 A 
ATOM     13  C   LIG A   1      -6.094   5.838 135.314  0.00  0.00    +0.165 A 
ATOM     14  C   LIG A   1      -4.801   6.315 135.571  0.00  0.00    +0.201 A 
ATOM     15  C   LIG A   1      -3.917   6.603 134.528  0.00  0.00    +0.165 A 
ATOM     16  C   LIG A   1      -4.341   6.399 133.211  0.00  0.00    +0.053 A 
BRANCH  14  17
ATOM     17  O   LIG A   1      -4.392   6.555 136.859  0.00  0.00    -0.501 OA
ATOM     18  H   LIG A   1      -4.869   7.356 137.133  0.00  0.00    +0.292 HD
ENDBRANCH  14  17
BRANCH  15  19
ATOM     19  O   LIG A   1      -2.687   7.114 134.859  0.00  0.00    -0.491 OA
ATOM     20  C   LIG A   1      -1.737   7.188 133.801  0.00  0.00    +0.277 C 
ENDBRANCH  15  19
BRANCH  13  21
ATOM     21  O   LIG A   1      -6.905   5.577 136.394  0.00  0.00    -0.491 OA
ATOM     22  C   LIG A   1      -7.866   6.589 136.714  0.00  0.00    +0.277 C 
ENDBRANCH  13  21
ENDBRANCH   5  11
BRANCH   2  23
ATOM     23  O   LIG A   1      -3.074   6.571 127.630  0.00  0.00    -0.501 OA
ATOM     24  H   LIG A   1      -2.114   6.385 127.464  0.00  0.00    +0.292 HD
ENDBRANCH   2  23
BRANCH   1  26
ATOM     25  C   LIG A   1      -2.768   3.087 126.665  0.00  0.00    +0.277 C 
ATOM     26  O   LIG A   1      -2.158   3.855 127.700  0.00  0.00    -0.491 OA
ENDBRANCH   1  26
BRANCH   3  27
ATOM     27  O   LIG A   1      -4.753   7.526 129.687  0.00  0.00    -0.491 OA
ATOM     28  C   LIG A   1      -3.866   8.484 130.262  0.00  0.00    +0.277 C 
ENDBRANCH   3  27
BRANCH   6  29
ATOM     29  C   LIG A   1      -7.979   5.027 129.927  0.00  0.00    +0.168 C 
BRANCH  29  30
ATOM     30  O   LIG A   1      -8.673   6.262 130.030  0.00  0.00    -0.348 OA
BRANCH  30  31
ATOM     31  C   LIG A   1     -10.026   6.176 129.600  0.00  0.00    +0.282 C 
ATOM     32  C   LIG A   1     -10.805   5.270 130.593  0.00  0.00    +0.201 C 
ATOM     33  C   LIG A   1     -11.377   6.077 131.768  0.00  0.00    +0.179 C 
ATOM     34  C   LIG A   1     -12.139   7.337 131.298  0.00  0.00    +0.177 C 
ATOM     35  C   LIG A   1     -11.914   7.629 129.803  0.00  0.00    +0.178 C 
ATOM     36  O   LIG A   1     -10.541   7.497 129.467  0.00  0.00    -0.341 OA
BRANCH  32  37
ATOM     37  O   LIG A   1     -11.902   4.609 129.931  0.00  0.00    -0.384 OA
ATOM     38  H   LIG A   1     -12.385   5.288 129.425  0.00  0.00    +0.210 HD
ENDBRANCH  32  37
BRANCH  33  39
ATOM     39  O   LIG A   1     -10.323   6.436 132.669  0.00  0.00    -0.386 OA
ATOM     40  H   LIG A   1      -9.476   6.364 132.201  0.00  0.00    +0.210 HD
ENDBRANCH  33  39
BRANCH  34  41
ATOM     41  O   LIG A   1     -13.549   7.185 131.525  0.00  0.00    -0.387 OA
ATOM     42  H   LIG A   1     -14.005   7.370 130.685  0.00  0.00    +0.210 HD
ENDBRANCH  34  41
BRANCH  35  43
ATOM     43  C   LIG A   1     -12.329   9.061 129.428  0.00  0.00    +0.190 C 
BRANCH  43  44
ATOM     44  O   LIG A   1     -13.073   9.730 130.438  0.00  0.00    -0.392 OA
ATOM     45  H   LIG A   1     -12.685  10.617 130.558  0.00  0.00    +0.209 HD
ENDBRANCH  43  44
ENDBRANCH  35  43
ENDBRANCH  30  31
ENDBRANCH  29  30
ENDBRANCH   6  29
BRANCH   7  46
ATOM     46  C   LIG A   1      -7.548   2.408 132.335  0.00  0.00    +0.160 C 
BRANCH  46  47
ATOM     47  O   LIG A   1      -6.686   1.981 133.374  0.00  0.00    -0.395 OA
ATOM     48  H   LIG A   1      -6.623   2.701 134.024  0.00  0.00    +0.209 HD
ENDBRANCH  46  47
ENDBRANCH   7  46
TORSDOF 17
ENDMDL
