MODEL 1
REMARK VINA RESULT:      -7.6      0.000      0.000
REMARK  Name = NuBBE_573
REMARK  7 active torsions:
REMARK  status: ('A' for Active; 'I' for Inactive)
REMARK    1  A    between atoms: C_1  and  C_2
REMARK    2  A    between atoms: C_6  and  O_7
REMARK    3  A    between atoms: C_10  and  O_11
REMARK    4  A    between atoms: C_10  and  C_12
REMARK    5  A    between atoms: C_18  and  C_19
REMARK    6  A    between atoms: C_18  and  C_20
REMARK    7  A    between atoms: C_23  and  C_25
REMARK                            x       y       z     vdW  Elec       q    Type
REMARK                         _______ _______ _______ _____ _____    ______ ____
ROOT
ATOM      1  C   LIG A   1      -7.691   2.082 128.095  0.00  0.00    +0.047 C 
ATOM      2  C   LIG A   1      -8.305   2.104 129.444  0.00  0.00    -0.004 C 
ATOM      3  C   LIG A   1      -8.745   3.378 129.970  0.00  0.00    +0.188 C 
ATOM      4  O   LIG A   1      -8.501   4.409 129.375  0.00  0.00    -0.287 OA
ATOM      5  C   LIG A   1      -8.574   1.215 130.397  0.00  0.00    +0.027 C 
ATOM      6  C   LIG A   1      -9.128   1.846 131.657  0.00  0.00    +0.171 C 
ATOM      7  C   LIG A   1      -9.509   3.217 131.192  0.00  0.00    +0.041 C 
ATOM      8  C   LIG A   1     -10.468   4.089 131.555  0.00  0.00    +0.018 C 
ATOM      9  C   LIG A   1     -10.653   5.530 131.098  0.00  0.00    +0.082 C 
ATOM     10  C   LIG A   1     -11.057   5.756 129.635  0.00  0.00    +0.046 C 
ATOM     11  C   LIG A   1      -9.534   6.483 131.629  0.00  0.00    +0.039 C 
ATOM     12  C   LIG A   1      -8.207   6.742 130.880  0.00  0.00    +0.007 C 
ATOM     13  C   LIG A   1      -6.984   6.576 131.743  0.00  0.00    -0.001 C 
ATOM     14  C   LIG A   1      -6.290   5.363 132.383  0.00  0.00    -0.001 C 
ATOM     15  C   LIG A   1      -5.597   6.156 131.250  0.00  0.00    -0.029 C 
ATOM     16  C   LIG A   1      -4.432   7.049 131.622  0.00  0.00    +0.011 C 
ATOM     17  C   LIG A   1      -5.355   5.496 129.908  0.00  0.00    +0.011 C 
ATOM     18  C   LIG A   1      -6.384   3.861 132.236  0.00  0.00    +0.015 C 
ATOM     19  C   LIG A   1      -7.224   3.052 133.255  0.00  0.00    +0.056 C 
ATOM     20  C   LIG A   1      -8.103   3.816 134.231  0.00  0.00    +0.015 C 
ATOM     21  C   LIG A   1      -7.928   1.785 132.693  0.00  0.00    +0.176 C 
ATOM     22  O   LIG A   1      -7.522   0.677 133.086  0.00  0.00    -0.293 OA
ENDROOT
BRANCH   6  23
ATOM     23  O   LIG A   1     -10.278   1.102 132.013  0.00  0.00    -0.373 OA
ATOM     24  H   LIG A   1     -10.069   0.561 132.790  0.00  0.00    +0.211 HD
ENDBRANCH   6  23
BRANCH   9  25
ATOM     25  O   LIG A   1     -11.822   5.940 131.865  0.00  0.00    -0.385 OA
ATOM     26  H   LIG A   1     -12.523   6.181 131.236  0.00  0.00    +0.211 HD
ENDBRANCH   9  25
TORSDOF 2
ENDMDL
MODEL 2
REMARK VINA RESULT:      -7.5      3.736      7.453
REMARK  Name = NuBBE_573
REMARK  7 active torsions:
REMARK  status: ('A' for Active; 'I' for Inactive)
REMARK    1  A    between atoms: C_1  and  C_2
REMARK    2  A    between atoms: C_6  and  O_7
REMARK    3  A    between atoms: C_10  and  O_11
REMARK    4  A    between atoms: C_10  and  C_12
REMARK    5  A    between atoms: C_18  and  C_19
REMARK    6  A    between atoms: C_18  and  C_20
REMARK    7  A    between atoms: C_23  and  C_25
REMARK                            x       y       z     vdW  Elec       q    Type
REMARK                         _______ _______ _______ _____ _____    ______ ____
ROOT
ATOM      1  C   LIG A   1      -3.000   2.850 126.595  0.00  0.00    +0.047 C 
ATOM      2  C   LIG A   1      -4.301   3.404 126.151  0.00  0.00    -0.004 C 
ATOM      3  C   LIG A   1      -5.488   3.027 126.889  0.00  0.00    +0.188 C 
ATOM      4  O   LIG A   1      -5.430   2.187 127.765  0.00  0.00    -0.287 OA
ATOM      5  C   LIG A   1      -4.729   4.200 125.174  0.00  0.00    +0.027 C 
ATOM      6  C   LIG A   1      -6.237   4.338 125.140  0.00  0.00    +0.171 C 
ATOM      7  C   LIG A   1      -6.641   3.803 126.478  0.00  0.00    +0.041 C 
ATOM      8  C   LIG A   1      -7.657   4.074 127.319  0.00  0.00    +0.018 C 
ATOM      9  C   LIG A   1      -8.043   3.342 128.597  0.00  0.00    +0.082 C 
ATOM     10  C   LIG A   1      -7.081   3.452 129.787  0.00  0.00    +0.046 C 
ATOM     11  C   LIG A   1      -8.600   1.906 128.328  0.00  0.00    +0.039 C 
ATOM     12  C   LIG A   1      -7.708   0.647 128.243  0.00  0.00    +0.007 C 
ATOM     13  C   LIG A   1      -7.959  -0.189 127.016  0.00  0.00    -0.001 C 
ATOM     14  C   LIG A   1      -7.679   0.010 125.517  0.00  0.00    -0.001 C 
ATOM     15  C   LIG A   1      -6.928  -1.079 126.318  0.00  0.00    -0.029 C 
ATOM     16  C   LIG A   1      -7.311  -2.524 126.079  0.00  0.00    +0.011 C 
ATOM     17  C   LIG A   1      -5.434  -0.954 126.542  0.00  0.00    +0.011 C 
ATOM     18  C   LIG A   1      -6.854   0.971 124.690  0.00  0.00    +0.015 C 
ATOM     19  C   LIG A   1      -7.550   2.182 124.019  0.00  0.00    +0.056 C 
ATOM     20  C   LIG A   1      -8.989   2.486 124.399  0.00  0.00    +0.015 C 
ATOM     21  C   LIG A   1      -6.687   3.469 123.892  0.00  0.00    +0.176 C 
ATOM     22  O   LIG A   1      -6.344   3.822 122.750  0.00  0.00    -0.293 OA
ENDROOT
BRANCH   6  23
ATOM     23  O   LIG A   1      -6.516   5.723 125.050  0.00  0.00    -0.373 OA
ATOM     24  H   LIG A   1      -6.575   5.966 124.112  0.00  0.00    +0.211 HD
ENDBRANCH   6  23
BRANCH   9  25
ATOM     25  O   LIG A   1      -9.227   4.078 129.019  0.00  0.00    -0.385 OA
ATOM     26  H   LIG A   1      -9.112   4.320 129.954  0.00  0.00    +0.211 HD
ENDBRANCH   9  25
TORSDOF 2
ENDMDL
MODEL 3
REMARK VINA RESULT:      -7.0      6.003      9.431
REMARK  Name = NuBBE_573
REMARK  7 active torsions:
REMARK  status: ('A' for Active; 'I' for Inactive)
REMARK    1  A    between atoms: C_1  and  C_2
REMARK    2  A    between atoms: C_6  and  O_7
REMARK    3  A    between atoms: C_10  and  O_11
REMARK    4  A    between atoms: C_10  and  C_12
REMARK    5  A    between atoms: C_18  and  C_19
REMARK    6  A    between atoms: C_18  and  C_20
REMARK    7  A    between atoms: C_23  and  C_25
REMARK                            x       y       z     vdW  Elec       q    Type
REMARK                         _______ _______ _______ _____ _____    ______ ____
ROOT
ATOM      1  C   LIG A   1      -6.185   1.912 122.769  0.00  0.00    +0.047 C 
ATOM      2  C   LIG A   1      -7.330   1.260 123.448  0.00  0.00    -0.004 C 
ATOM      3  C   LIG A   1      -7.058   0.464 124.626  0.00  0.00    +0.188 C 
ATOM      4  O   LIG A   1      -5.915   0.239 124.968  0.00  0.00    -0.287 OA
ATOM      5  C   LIG A   1      -8.645   1.175 123.258  0.00  0.00    +0.027 C 
ATOM      6  C   LIG A   1      -9.326   0.246 124.241  0.00  0.00    +0.171 C 
ATOM      7  C   LIG A   1      -8.281   0.069 125.297  0.00  0.00    +0.041 C 
ATOM      8  C   LIG A   1      -8.329  -0.149 126.625  0.00  0.00    +0.018 C 
ATOM      9  C   LIG A   1      -7.176  -0.465 127.570  0.00  0.00    +0.082 C 
ATOM     10  C   LIG A   1      -6.155   0.650 127.830  0.00  0.00    +0.046 C 
ATOM     11  C   LIG A   1      -6.561  -1.880 127.323  0.00  0.00    +0.039 C 
ATOM     12  C   LIG A   1      -5.410  -2.147 126.326  0.00  0.00    +0.007 C 
ATOM     13  C   LIG A   1      -5.686  -3.281 125.374  0.00  0.00    -0.001 C 
ATOM     14  C   LIG A   1      -6.646  -3.463 124.186  0.00  0.00    -0.001 C 
ATOM     15  C   LIG A   1      -5.117  -3.415 123.959  0.00  0.00    -0.029 C 
ATOM     16  C   LIG A   1      -4.411  -4.710 123.619  0.00  0.00    +0.011 C 
ATOM     17  C   LIG A   1      -4.505  -2.258 123.196  0.00  0.00    +0.011 C 
ATOM     18  C   LIG A   1      -7.512  -2.552 123.347  0.00  0.00    +0.015 C 
ATOM     19  C   LIG A   1      -9.024  -2.439 123.665  0.00  0.00    +0.056 C 
ATOM     20  C   LIG A   1      -9.538  -3.073 124.947  0.00  0.00    +0.015 C 
ATOM     21  C   LIG A   1      -9.667  -1.050 123.392  0.00  0.00    +0.176 C 
ATOM     22  O   LIG A   1     -10.489  -0.968 122.463  0.00  0.00    -0.293 OA
ENDROOT
BRANCH   6  23
ATOM     23  O   LIG A   1     -10.443   0.948 124.756  0.00  0.00    -0.373 OA
ATOM     24  H   LIG A   1     -11.031   0.314 125.195  0.00  0.00    +0.211 HD
ENDBRANCH   6  23
BRANCH   9  25
ATOM     25  O   LIG A   1      -7.867  -0.627 128.842  0.00  0.00    -0.385 OA
ATOM     26  H   LIG A   1      -7.217  -0.504 129.554  0.00  0.00    +0.211 HD
ENDBRANCH   9  25
TORSDOF 2
ENDMDL
MODEL 4
REMARK VINA RESULT:      -6.9      3.186      5.694
REMARK  Name = NuBBE_573
REMARK  7 active torsions:
REMARK  status: ('A' for Active; 'I' for Inactive)
REMARK    1  A    between atoms: C_1  and  C_2
REMARK    2  A    between atoms: C_6  and  O_7
REMARK    3  A    between atoms: C_10  and  O_11
REMARK    4  A    between atoms: C_10  and  C_12
REMARK    5  A    between atoms: C_18  and  C_19
REMARK    6  A    between atoms: C_18  and  C_20
REMARK    7  A    between atoms: C_23  and  C_25
REMARK                            x       y       z     vdW  Elec       q    Type
REMARK                         _______ _______ _______ _____ _____    ______ ____
ROOT
ATOM      1  C   LIG A   1      -8.126   6.828 130.740  0.00  0.00    +0.047 C 
ATOM      2  C   LIG A   1      -7.120   6.378 131.731  0.00  0.00    -0.004 C 
ATOM      3  C   LIG A   1      -5.720   6.536 131.397  0.00  0.00    +0.188 C 
ATOM      4  O   LIG A   1      -5.388   6.909 130.290  0.00  0.00    -0.287 OA
ATOM      5  C   LIG A   1      -7.135   5.805 132.932  0.00  0.00    +0.027 C 
ATOM      6  C   LIG A   1      -5.752   5.461 133.442  0.00  0.00    +0.171 C 
ATOM      7  C   LIG A   1      -4.865   6.254 132.533  0.00  0.00    +0.041 C 
ATOM      8  C   LIG A   1      -3.663   6.840 132.686  0.00  0.00    +0.018 C 
ATOM      9  C   LIG A   1      -2.792   7.495 131.622  0.00  0.00    +0.082 C 
ATOM     10  C   LIG A   1      -3.305   8.800 131.000  0.00  0.00    +0.046 C 
ATOM     11  C   LIG A   1      -2.201   6.465 130.605  0.00  0.00    +0.039 C 
ATOM     12  C   LIG A   1      -2.925   6.037 129.308  0.00  0.00    +0.007 C 
ATOM     13  C   LIG A   1      -3.009   4.543 129.128  0.00  0.00    -0.001 C 
ATOM     14  C   LIG A   1      -3.796   3.429 129.838  0.00  0.00    -0.001 C 
ATOM     15  C   LIG A   1      -4.109   3.798 128.369  0.00  0.00    -0.029 C 
ATOM     16  C   LIG A   1      -3.670   2.834 127.288  0.00  0.00    +0.011 C 
ATOM     17  C   LIG A   1      -5.445   4.421 128.017  0.00  0.00    +0.011 C 
ATOM     18  C   LIG A   1      -4.951   3.373 130.811  0.00  0.00    +0.015 C 
ATOM     19  C   LIG A   1      -4.660   3.185 132.322  0.00  0.00    +0.056 C 
ATOM     20  C   LIG A   1      -3.220   3.288 132.795  0.00  0.00    +0.015 C 
ATOM     21  C   LIG A   1      -5.653   3.885 133.292  0.00  0.00    +0.176 C 
ATOM     22  O   LIG A   1      -6.396   3.162 133.978  0.00  0.00    -0.293 OA
ENDROOT
BRANCH   6  23
ATOM     23  O   LIG A   1      -5.674   5.952 134.768  0.00  0.00    -0.373 OA
ATOM     24  H   LIG A   1      -6.390   5.554 135.288  0.00  0.00    +0.211 HD
ENDBRANCH   6  23
BRANCH   9  25
ATOM     25  O   LIG A   1      -1.624   7.896 132.395  0.00  0.00    -0.385 OA
ATOM     26  H   LIG A   1      -1.237   8.679 131.968  0.00  0.00    +0.211 HD
ENDBRANCH   9  25
TORSDOF 2
ENDMDL
MODEL 5
REMARK VINA RESULT:      -6.9      1.710      2.772
REMARK  Name = NuBBE_573
REMARK  7 active torsions:
REMARK  status: ('A' for Active; 'I' for Inactive)
REMARK    1  A    between atoms: C_1  and  C_2
REMARK    2  A    between atoms: C_6  and  O_7
REMARK    3  A    between atoms: C_10  and  O_11
REMARK    4  A    between atoms: C_10  and  C_12
REMARK    5  A    between atoms: C_18  and  C_19
REMARK    6  A    between atoms: C_18  and  C_20
REMARK    7  A    between atoms: C_23  and  C_25
REMARK                            x       y       z     vdW  Elec       q    Type
REMARK                         _______ _______ _______ _____ _____    ______ ____
ROOT
ATOM      1  C   LIG A   1      -5.145   4.952 129.095  0.00  0.00    +0.047 C 
ATOM      2  C   LIG A   1      -6.401   4.178 129.243  0.00  0.00    -0.004 C 
ATOM      3  C   LIG A   1      -7.452   4.739 130.065  0.00  0.00    +0.188 C 
ATOM      4  O   LIG A   1      -7.258   5.750 130.710  0.00  0.00    -0.287 OA
ATOM      5  C   LIG A   1      -6.870   3.008 128.816  0.00  0.00    +0.027 C 
ATOM      6  C   LIG A   1      -8.228   2.668 129.394  0.00  0.00    +0.171 C 
ATOM      7  C   LIG A   1      -8.683   3.983 129.946  0.00  0.00    +0.041 C 
ATOM      8  C   LIG A   1      -9.891   4.554 130.109  0.00  0.00    +0.018 C 
ATOM      9  C   LIG A   1     -10.230   5.852 130.832  0.00  0.00    +0.082 C 
ATOM     10  C   LIG A   1      -9.741   7.159 130.195  0.00  0.00    +0.046 C 
ATOM     11  C   LIG A   1     -10.027   5.754 132.379  0.00  0.00    +0.039 C 
ATOM     12  C   LIG A   1      -8.689   6.071 133.085  0.00  0.00    +0.007 C 
ATOM     13  C   LIG A   1      -8.239   4.995 134.038  0.00  0.00    -0.001 C 
ATOM     14  C   LIG A   1      -7.707   3.564 133.852  0.00  0.00    -0.001 C 
ATOM     15  C   LIG A   1      -6.787   4.679 134.403  0.00  0.00    -0.029 C 
ATOM     16  C   LIG A   1      -6.437   4.644 135.875  0.00  0.00    +0.011 C 
ATOM     17  C   LIG A   1      -5.602   5.150 133.584  0.00  0.00    +0.011 C 
ATOM     18  C   LIG A   1      -7.199   2.742 132.689  0.00  0.00    +0.015 C 
ATOM     19  C   LIG A   1      -8.156   1.741 131.995  0.00  0.00    +0.056 C 
ATOM     20  C   LIG A   1      -9.630   1.782 132.361  0.00  0.00    +0.015 C 
ATOM     21  C   LIG A   1      -7.931   1.541 130.470  0.00  0.00    +0.176 C 
ATOM     22  O   LIG A   1      -7.500   0.438 130.090  0.00  0.00    -0.293 OA
ENDROOT
BRANCH   6  23
ATOM     23  O   LIG A   1      -9.045   2.273 128.307  0.00  0.00    -0.373 OA
ATOM     24  H   LIG A   1      -8.942   2.920 127.592  0.00  0.00    +0.211 HD
ENDBRANCH   6  23
BRANCH   9  25
ATOM     25  O   LIG A   1     -11.679   5.901 130.695  0.00  0.00    -0.385 OA
ATOM     26  H   LIG A   1     -12.039   6.351 131.479  0.00  0.00    +0.211 HD
ENDBRANCH   9  25
TORSDOF 2
ENDMDL
MODEL 6
REMARK VINA RESULT:      -6.9      2.776      4.896
REMARK  Name = NuBBE_573
REMARK  7 active torsions:
REMARK  status: ('A' for Active; 'I' for Inactive)
REMARK    1  A    between atoms: C_1  and  C_2
REMARK    2  A    between atoms: C_6  and  O_7
REMARK    3  A    between atoms: C_10  and  O_11
REMARK    4  A    between atoms: C_10  and  C_12
REMARK    5  A    between atoms: C_18  and  C_19
REMARK    6  A    between atoms: C_18  and  C_20
REMARK    7  A    between atoms: C_23  and  C_25
REMARK                            x       y       z     vdW  Elec       q    Type
REMARK                         _______ _______ _______ _____ _____    ______ ____
ROOT
ATOM      1  C   LIG A   1      -4.047   1.190 131.753  0.00  0.00    +0.047 C 
ATOM      2  C   LIG A   1      -5.048   2.192 131.314  0.00  0.00    -0.004 C 
ATOM      3  C   LIG A   1      -4.630   3.196 130.359  0.00  0.00    +0.188 C 
ATOM      4  O   LIG A   1      -3.464   3.287 130.028  0.00  0.00    -0.287 OA
ATOM      5  C   LIG A   1      -6.322   2.466 131.582  0.00  0.00    +0.027 C 
ATOM      6  C   LIG A   1      -6.815   3.723 130.895  0.00  0.00    +0.171 C 
ATOM      7  C   LIG A   1      -5.756   3.966 129.867  0.00  0.00    +0.041 C 
ATOM      8  C   LIG A   1      -5.762   4.518 128.638  0.00  0.00    +0.018 C 
ATOM      9  C   LIG A   1      -4.571   4.845 127.747  0.00  0.00    +0.082 C 
ATOM     10  C   LIG A   1      -3.781   3.664 127.168  0.00  0.00    +0.046 C 
ATOM     11  C   LIG A   1      -3.697   6.014 128.307  0.00  0.00    +0.039 C 
ATOM     12  C   LIG A   1      -2.516   5.803 129.282  0.00  0.00    +0.007 C 
ATOM     13  C   LIG A   1      -2.571   6.690 130.498  0.00  0.00    -0.001 C 
ATOM     14  C   LIG A   1      -3.478   6.740 131.739  0.00  0.00    -0.001 C 
ATOM     15  C   LIG A   1      -1.986   6.355 131.872  0.00  0.00    -0.029 C 
ATOM     16  C   LIG A   1      -1.046   7.370 132.488  0.00  0.00    +0.011 C 
ATOM     17  C   LIG A   1      -1.605   4.950 132.293  0.00  0.00    +0.011 C 
ATOM     18  C   LIG A   1      -4.501   5.820 132.367  0.00  0.00    +0.015 C 
ATOM     19  C   LIG A   1      -6.007   6.072 132.104  0.00  0.00    +0.056 C 
ATOM     20  C   LIG A   1      -6.392   7.093 131.047  0.00  0.00    +0.015 C 
ATOM     21  C   LIG A   1      -6.903   4.802 132.055  0.00  0.00    +0.176 C 
ATOM     22  O   LIG A   1      -7.725   4.640 132.974  0.00  0.00    -0.293 OA
ENDROOT
BRANCH   6  23
ATOM     23  O   LIG A   1      -8.045   3.392 130.277  0.00  0.00    -0.373 OA
ATOM     24  H   LIG A   1      -8.503   2.739 130.830  0.00  0.00    +0.211 HD
ENDBRANCH   6  23
BRANCH   9  25
ATOM     25  O   LIG A   1      -5.219   5.448 126.590  0.00  0.00    -0.385 OA
ATOM     26  H   LIG A   1      -6.181   5.378 126.715  0.00  0.00    +0.211 HD
ENDBRANCH   9  25
TORSDOF 2
ENDMDL
MODEL 7
REMARK VINA RESULT:      -6.9      2.159      5.228
REMARK  Name = NuBBE_573
REMARK  7 active torsions:
REMARK  status: ('A' for Active; 'I' for Inactive)
REMARK    1  A    between atoms: C_1  and  C_2
REMARK    2  A    between atoms: C_6  and  O_7
REMARK    3  A    between atoms: C_10  and  O_11
REMARK    4  A    between atoms: C_10  and  C_12
REMARK    5  A    between atoms: C_18  and  C_19
REMARK    6  A    between atoms: C_18  and  C_20
REMARK    7  A    between atoms: C_23  and  C_25
REMARK                            x       y       z     vdW  Elec       q    Type
REMARK                         _______ _______ _______ _____ _____    ______ ____
ROOT
ATOM      1  C   LIG A   1      -3.338   3.778 132.855  0.00  0.00    +0.047 C 
ATOM      2  C   LIG A   1      -4.349   4.546 132.090  0.00  0.00    -0.004 C 
ATOM      3  C   LIG A   1      -5.723   4.498 132.541  0.00  0.00    +0.188 C 
ATOM      4  O   LIG A   1      -6.052   3.751 133.441  0.00  0.00    -0.287 OA
ATOM      5  C   LIG A   1      -4.359   5.318 131.006  0.00  0.00    +0.027 C 
ATOM      6  C   LIG A   1      -5.750   5.763 130.608  0.00  0.00    +0.171 C 
ATOM      7  C   LIG A   1      -6.551   5.454 131.833  0.00  0.00    +0.041 C 
ATOM      8  C   LIG A   1      -7.641   6.010 132.396  0.00  0.00    +0.018 C 
ATOM      9  C   LIG A   1      -8.456   5.499 133.577  0.00  0.00    +0.082 C 
ATOM     10  C   LIG A   1      -7.783   5.519 134.956  0.00  0.00    +0.046 C 
ATOM     11  C   LIG A   1      -9.249   4.193 133.247  0.00  0.00    +0.039 C 
ATOM     12  C   LIG A   1      -8.666   2.773 133.431  0.00  0.00    +0.007 C 
ATOM     13  C   LIG A   1      -8.820   1.895 132.217  0.00  0.00    -0.001 C 
ATOM     14  C   LIG A   1      -8.176   1.888 130.821  0.00  0.00    -0.001 C 
ATOM     15  C   LIG A   1      -7.887   0.747 131.824  0.00  0.00    -0.029 C 
ATOM     16  C   LIG A   1      -8.523  -0.602 131.565  0.00  0.00    +0.011 C 
ATOM     17  C   LIG A   1      -6.491   0.578 132.391  0.00  0.00    +0.011 C 
ATOM     18  C   LIG A   1      -6.994   2.571 130.172  0.00  0.00    +0.015 C 
ATOM     19  C   LIG A   1      -7.232   3.832 129.302  0.00  0.00    +0.056 C 
ATOM     20  C   LIG A   1      -8.614   4.464 129.316  0.00  0.00    +0.015 C 
ATOM     21  C   LIG A   1      -6.096   4.892 129.328  0.00  0.00    +0.176 C 
ATOM     22  O   LIG A   1      -5.437   5.056 128.286  0.00  0.00    -0.293 OA
ENDROOT
BRANCH   6  23
ATOM     23  O   LIG A   1      -5.683   7.161 130.393  0.00  0.00    -0.373 OA
ATOM     24  H   LIG A   1      -6.550   7.468 130.084  0.00  0.00    +0.211 HD
ENDBRANCH   6  23
BRANCH   9  25
ATOM     25  O   LIG A   1      -9.507   6.503 133.673  0.00  0.00    -0.385 OA
ATOM     26  H   LIG A   1      -9.946   6.561 132.807  0.00  0.00    +0.211 HD
ENDBRANCH   9  25
TORSDOF 2
ENDMDL
MODEL 8
REMARK VINA RESULT:      -6.8      1.929      5.003
REMARK  Name = NuBBE_573
REMARK  7 active torsions:
REMARK  status: ('A' for Active; 'I' for Inactive)
REMARK    1  A    between atoms: C_1  and  C_2
REMARK    2  A    between atoms: C_6  and  O_7
REMARK    3  A    between atoms: C_10  and  O_11
REMARK    4  A    between atoms: C_10  and  C_12
REMARK    5  A    between atoms: C_18  and  C_19
REMARK    6  A    between atoms: C_18  and  C_20
REMARK    7  A    between atoms: C_23  and  C_25
REMARK                            x       y       z     vdW  Elec       q    Type
REMARK                         _______ _______ _______ _____ _____    ______ ____
ROOT
ATOM      1  C   LIG A   1      -6.220   5.328 134.584  0.00  0.00    +0.047 C 
ATOM      2  C   LIG A   1      -6.317   5.722 133.158  0.00  0.00    -0.004 C 
ATOM      3  C   LIG A   1      -7.546   5.426 132.454  0.00  0.00    +0.188 C 
ATOM      4  O   LIG A   1      -8.418   4.765 132.983  0.00  0.00    -0.287 OA
ATOM      5  C   LIG A   1      -5.524   6.302 132.260  0.00  0.00    +0.027 C 
ATOM      6  C   LIG A   1      -6.135   6.351 130.875  0.00  0.00    +0.171 C 
ATOM      7  C   LIG A   1      -7.576   6.052 131.146  0.00  0.00    +0.041 C 
ATOM      8  C   LIG A   1      -8.730   6.419 130.556  0.00  0.00    +0.018 C 
ATOM      9  C   LIG A   1     -10.137   5.914 130.844  0.00  0.00    +0.082 C 
ATOM     10  C   LIG A   1     -10.756   6.292 132.196  0.00  0.00    +0.046 C 
ATOM     11  C   LIG A   1     -10.348   4.427 130.412  0.00  0.00    +0.039 C 
ATOM     12  C   LIG A   1     -10.061   3.222 131.337  0.00  0.00    +0.007 C 
ATOM     13  C   LIG A   1      -9.201   2.162 130.699  0.00  0.00    -0.001 C 
ATOM     14  C   LIG A   1      -7.720   2.098 130.291  0.00  0.00    -0.001 C 
ATOM     15  C   LIG A   1      -8.257   1.215 131.442  0.00  0.00    -0.029 C 
ATOM     16  C   LIG A   1      -8.419  -0.267 131.180  0.00  0.00    +0.011 C 
ATOM     17  C   LIG A   1      -7.782   1.457 132.861  0.00  0.00    +0.011 C 
ATOM     18  C   LIG A   1      -6.488   2.931 130.559  0.00  0.00    +0.015 C 
ATOM     19  C   LIG A   1      -6.024   3.960 129.497  0.00  0.00    +0.056 C 
ATOM     20  C   LIG A   1      -6.949   4.253 128.327  0.00  0.00    +0.015 C 
ATOM     21  C   LIG A   1      -5.349   5.245 130.054  0.00  0.00    +0.176 C 
ATOM     22  O   LIG A   1      -4.135   5.400 129.834  0.00  0.00    -0.293 OA
ENDROOT
BRANCH   6  23
ATOM     23  O   LIG A   1      -5.980   7.680 130.410  0.00  0.00    -0.373 OA
ATOM     24  H   LIG A   1      -5.416   7.667 129.621  0.00  0.00    +0.211 HD
ENDBRANCH   6  23
BRANCH   9  25
ATOM     25  O   LIG A   1     -10.926   6.653 129.866  0.00  0.00    -0.385 OA
ATOM     26  H   LIG A   1     -11.566   6.036 129.471  0.00  0.00    +0.211 HD
ENDBRANCH   9  25
TORSDOF 2
ENDMDL
MODEL 9
REMARK VINA RESULT:      -6.8      2.820      5.990
REMARK  Name = NuBBE_573
REMARK  7 active torsions:
REMARK  status: ('A' for Active; 'I' for Inactive)
REMARK    1  A    between atoms: C_1  and  C_2
REMARK    2  A    between atoms: C_6  and  O_7
REMARK    3  A    between atoms: C_10  and  O_11
REMARK    4  A    between atoms: C_10  and  C_12
REMARK    5  A    between atoms: C_18  and  C_19
REMARK    6  A    between atoms: C_18  and  C_20
REMARK    7  A    between atoms: C_23  and  C_25
REMARK                            x       y       z     vdW  Elec       q    Type
REMARK                         _______ _______ _______ _____ _____    ______ ____
ROOT
ATOM      1  C   LIG A   1      -2.847   6.983 133.805  0.00  0.00    +0.047 C 
ATOM      2  C   LIG A   1      -3.563   7.066 132.509  0.00  0.00    -0.004 C 
ATOM      3  C   LIG A   1      -4.756   6.265 132.340  0.00  0.00    +0.188 C 
ATOM      4  O   LIG A   1      -5.085   5.459 133.188  0.00  0.00    -0.287 OA
ATOM      5  C   LIG A   1      -3.398   7.706 131.354  0.00  0.00    +0.027 C 
ATOM      6  C   LIG A   1      -4.417   7.308 130.307  0.00  0.00    +0.171 C 
ATOM      7  C   LIG A   1      -5.459   6.606 131.119  0.00  0.00    +0.041 C 
ATOM      8  C   LIG A   1      -6.793   6.466 130.999  0.00  0.00    +0.018 C 
ATOM      9  C   LIG A   1      -7.726   5.587 131.822  0.00  0.00    +0.082 C 
ATOM     10  C   LIG A   1      -7.938   5.972 133.292  0.00  0.00    +0.046 C 
ATOM     11  C   LIG A   1      -7.506   4.061 131.564  0.00  0.00    +0.039 C 
ATOM     12  C   LIG A   1      -6.497   3.199 132.357  0.00  0.00    +0.007 C 
ATOM     13  C   LIG A   1      -5.580   2.385 131.482  0.00  0.00    -0.001 C 
ATOM     14  C   LIG A   1      -4.414   2.738 130.543  0.00  0.00    -0.001 C 
ATOM     15  C   LIG A   1      -4.160   1.945 131.847  0.00  0.00    -0.029 C 
ATOM     16  C   LIG A   1      -3.842   0.470 131.727  0.00  0.00    +0.011 C 
ATOM     17  C   LIG A   1      -3.355   2.575 132.966  0.00  0.00    +0.011 C 
ATOM     18  C   LIG A   1      -3.566   3.962 130.287  0.00  0.00    +0.015 C 
ATOM     19  C   LIG A   1      -3.908   4.883 129.088  0.00  0.00    +0.056 C 
ATOM     20  C   LIG A   1      -5.214   4.646 128.349  0.00  0.00    +0.015 C 
ATOM     21  C   LIG A   1      -3.609   6.394 129.293  0.00  0.00    +0.176 C 
ATOM     22  O   LIG A   1      -2.692   6.898 128.620  0.00  0.00    -0.293 OA
ENDROOT
BRANCH   6  23
ATOM     23  O   LIG A   1      -4.932   8.511 129.765  0.00  0.00    -0.373 OA
ATOM     24  H   LIG A   1      -5.105   8.375 128.820  0.00  0.00    +0.211 HD
ENDBRANCH   6  23
BRANCH   9  25
ATOM     25  O   LIG A   1      -9.013   5.842 131.191  0.00  0.00    -0.385 OA
ATOM     26  H   LIG A   1      -9.584   6.284 131.842  0.00  0.00    +0.211 HD
ENDBRANCH   9  25
TORSDOF 2
ENDMDL
