MODEL 1
REMARK VINA RESULT:      -6.6      0.000      0.000
REMARK  Name = NuBBE_878
REMARK  15 active torsions:
REMARK  status: ('A' for Active; 'I' for Inactive)
REMARK    1  A    between atoms: C_3  and  O_4
REMARK    2  A    between atoms: O_4  and  C_5
REMARK    3  A    between atoms: C_6  and  C_7
REMARK    4  A    between atoms: C_7  and  C_8
REMARK    5  A    between atoms: C_8  and  C_9
REMARK    6  A    between atoms: C_9  and  C_10
REMARK    7  A    between atoms: C_10  and  C_11
REMARK    8  A    between atoms: C_11  and  C_12
REMARK    9  A    between atoms: C_12  and  C_13
REMARK   10  A    between atoms: C_13  and  C_14
REMARK   11  A    between atoms: C_14  and  C_15
REMARK   12  A    between atoms: C_15  and  C_16
REMARK   13  A    between atoms: C_16  and  C_17
REMARK   14  A    between atoms: C_17  and  C_18
REMARK   15  A    between atoms: C_18  and  C_19
REMARK                            x       y       z     vdW  Elec       q    Type
REMARK                         _______ _______ _______ _____ _____    ______ ____
ROOT
ATOM      1  O   LIG A   1      -4.918   4.446 123.375  0.00  0.00    -0.283 OA
ATOM      2  C   LIG A   1      -6.010   4.034 122.957  0.00  0.00    +0.231 A 
ATOM      3  C   LIG A   1      -7.041   3.367 123.840  0.00  0.00    +0.186 A 
ATOM      4  C   LIG A   1      -8.240   3.047 123.273  0.00  0.00    +0.062 A 
ATOM      5  N   LIG A   1      -8.511   3.272 121.936  0.00  0.00    -0.355 N 
ATOM      6  H   LIG A   1      -9.420   2.996 121.574  0.00  0.00    +0.166 HD
ATOM      7  C   LIG A   1      -7.583   3.832 121.056  0.00  0.00    +0.051 A 
ATOM      8  C   LIG A   1      -7.881   4.032 119.704  0.00  0.00    +0.026 A 
ATOM      9  C   LIG A   1      -6.931   4.579 118.834  0.00  0.00    +0.002 A 
ATOM     10  C   LIG A   1      -5.667   4.934 119.307  0.00  0.00    +0.001 A 
ATOM     11  C   LIG A   1      -5.362   4.758 120.653  0.00  0.00    +0.014 A 
ATOM     12  C   LIG A   1      -6.317   4.210 121.522  0.00  0.00    +0.049 A 
ENDROOT
BRANCH   3  13
ATOM     13  O   LIG A   1      -6.810   3.055 125.174  0.00  0.00    -0.490 OA
ATOM     14  C   LIG A   1      -5.891   1.998 125.441  0.00  0.00    +0.277 C 
ENDBRANCH   3  13
BRANCH   4  15
ATOM     15  C   LIG A   1      -9.356   2.373 124.077  0.00  0.00    +0.057 C 
BRANCH  15  16
ATOM     16  C   LIG A   1      -9.845   1.052 123.454  0.00  0.00    +0.006 C 
BRANCH  16  17
ATOM     17  C   LIG A   1      -8.719   0.005 123.302  0.00  0.00    +0.000 C 
BRANCH  17  18
ATOM     18  C   LIG A   1      -9.284  -1.368 122.908  0.00  0.00    +0.000 C 
BRANCH  18  19
ATOM     19  C   LIG A   1      -8.208  -2.426 122.619  0.00  0.00    -0.000 C 
BRANCH  19  20
ATOM     20  C   LIG A   1      -6.774  -1.877 122.754  0.00  0.00    -0.000 C 
BRANCH  20  21
ATOM     21  C   LIG A   1      -5.754  -2.964 123.118  0.00  0.00    -0.000 C 
BRANCH  21  22
ATOM     22  C   LIG A   1      -5.059  -2.776 124.472  0.00  0.00    +0.000 C 
BRANCH  22  23
ATOM     23  C   LIG A   1      -5.385  -1.444 125.151  0.00  0.00    +0.000 C 
BRANCH  23  24
ATOM     24  C   LIG A   1      -5.723  -1.628 126.637  0.00  0.00    +0.007 C 
BRANCH  24  25
ATOM     25  C   LIG A   1      -6.911  -2.565 126.869  0.00  0.00    +0.074 C 
BRANCH  25  26
ATOM     26  C   LIG A   1      -8.263  -1.959 126.530  0.00  0.00    +0.130 C 
ATOM     27  C   LIG A   1      -9.359  -2.932 126.169  0.00  0.00    +0.086 C 
ATOM     28  O   LIG A   1      -8.472  -0.750 126.559  0.00  0.00    -0.298 OA
ENDBRANCH  25  26
ENDBRANCH  24  25
ENDBRANCH  23  24
ENDBRANCH  22  23
ENDBRANCH  21  22
ENDBRANCH  20  21
ENDBRANCH  19  20
ENDBRANCH  18  19
ENDBRANCH  17  18
ENDBRANCH  16  17
ENDBRANCH  15  16
ENDBRANCH   4  15
TORSDOF 13
ENDMDL
MODEL 2
REMARK VINA RESULT:      -6.4      1.232      2.132
REMARK  Name = NuBBE_878
REMARK  15 active torsions:
REMARK  status: ('A' for Active; 'I' for Inactive)
REMARK    1  A    between atoms: C_3  and  O_4
REMARK    2  A    between atoms: O_4  and  C_5
REMARK    3  A    between atoms: C_6  and  C_7
REMARK    4  A    between atoms: C_7  and  C_8
REMARK    5  A    between atoms: C_8  and  C_9
REMARK    6  A    between atoms: C_9  and  C_10
REMARK    7  A    between atoms: C_10  and  C_11
REMARK    8  A    between atoms: C_11  and  C_12
REMARK    9  A    between atoms: C_12  and  C_13
REMARK   10  A    between atoms: C_13  and  C_14
REMARK   11  A    between atoms: C_14  and  C_15
REMARK   12  A    between atoms: C_15  and  C_16
REMARK   13  A    between atoms: C_16  and  C_17
REMARK   14  A    between atoms: C_17  and  C_18
REMARK   15  A    between atoms: C_18  and  C_19
REMARK                            x       y       z     vdW  Elec       q    Type
REMARK                         _______ _______ _______ _____ _____    ______ ____
ROOT
ATOM      1  O   LIG A   1      -4.891   4.214 123.289  0.00  0.00    -0.283 OA
ATOM      2  C   LIG A   1      -5.982   3.863 122.815  0.00  0.00    +0.231 A 
ATOM      3  C   LIG A   1      -7.039   3.132 123.610  0.00  0.00    +0.186 A 
ATOM      4  C   LIG A   1      -8.232   2.889 122.995  0.00  0.00    +0.062 A 
ATOM      5  N   LIG A   1      -8.475   3.249 121.681  0.00  0.00    -0.355 N 
ATOM      6  H   LIG A   1      -9.381   3.026 121.279  0.00  0.00    +0.166 HD
ATOM      7  C   LIG A   1      -7.522   3.876 120.877  0.00  0.00    +0.051 A 
ATOM      8  C   LIG A   1      -7.791   4.212 119.545  0.00  0.00    +0.026 A 
ATOM      9  C   LIG A   1      -6.817   4.825 118.750  0.00  0.00    +0.002 A 
ATOM     10  C   LIG A   1      -5.557   5.110 119.276  0.00  0.00    +0.001 A 
ATOM     11  C   LIG A   1      -5.280   4.797 120.603  0.00  0.00    +0.014 A 
ATOM     12  C   LIG A   1      -6.259   4.184 121.399  0.00  0.00    +0.049 A 
ENDROOT
BRANCH   3  13
ATOM     13  O   LIG A   1      -6.838   2.686 124.910  0.00  0.00    -0.490 OA
ATOM     14  C   LIG A   1      -6.961   3.653 125.952  0.00  0.00    +0.277 C 
ENDBRANCH   3  13
BRANCH   4  15
ATOM     15  C   LIG A   1      -9.374   2.159 123.709  0.00  0.00    +0.057 C 
BRANCH  15  16
ATOM     16  C   LIG A   1      -9.216   0.627 123.705  0.00  0.00    +0.006 C 
BRANCH  16  17
ATOM     17  C   LIG A   1      -9.895  -0.045 122.492  0.00  0.00    +0.000 C 
BRANCH  17  18
ATOM     18  C   LIG A   1      -9.495  -1.524 122.379  0.00  0.00    +0.000 C 
BRANCH  18  19
ATOM     19  C   LIG A   1      -8.574  -2.010 123.508  0.00  0.00    -0.000 C 
BRANCH  19  20
ATOM     20  C   LIG A   1      -9.089  -3.291 124.194  0.00  0.00    -0.000 C 
BRANCH  20  21
ATOM     21  C   LIG A   1      -9.184  -3.150 125.719  0.00  0.00    -0.000 C 
BRANCH  21  22
ATOM     22  C   LIG A   1      -9.013  -1.723 126.252  0.00  0.00    +0.000 C 
BRANCH  22  23
ATOM     23  C   LIG A   1      -8.166  -1.637 127.522  0.00  0.00    +0.000 C 
BRANCH  23  24
ATOM     24  C   LIG A   1      -7.053  -2.693 127.540  0.00  0.00    +0.007 C 
BRANCH  24  25
ATOM     25  C   LIG A   1      -5.692  -2.136 127.113  0.00  0.00    +0.074 C 
BRANCH  25  26
ATOM     26  C   LIG A   1      -5.529  -1.959 125.613  0.00  0.00    +0.130 C 
ATOM     27  C   LIG A   1      -5.617  -0.545 125.094  0.00  0.00    +0.086 C 
ATOM     28  O   LIG A   1      -5.322  -2.903 124.854  0.00  0.00    -0.298 OA
ENDBRANCH  25  26
ENDBRANCH  24  25
ENDBRANCH  23  24
ENDBRANCH  22  23
ENDBRANCH  21  22
ENDBRANCH  20  21
ENDBRANCH  19  20
ENDBRANCH  18  19
ENDBRANCH  17  18
ENDBRANCH  16  17
ENDBRANCH  15  16
ENDBRANCH   4  15
TORSDOF 13
ENDMDL
MODEL 3
REMARK VINA RESULT:      -6.3      1.835      3.900
REMARK  Name = NuBBE_878
REMARK  15 active torsions:
REMARK  status: ('A' for Active; 'I' for Inactive)
REMARK    1  A    between atoms: C_3  and  O_4
REMARK    2  A    between atoms: O_4  and  C_5
REMARK    3  A    between atoms: C_6  and  C_7
REMARK    4  A    between atoms: C_7  and  C_8
REMARK    5  A    between atoms: C_8  and  C_9
REMARK    6  A    between atoms: C_9  and  C_10
REMARK    7  A    between atoms: C_10  and  C_11
REMARK    8  A    between atoms: C_11  and  C_12
REMARK    9  A    between atoms: C_12  and  C_13
REMARK   10  A    between atoms: C_13  and  C_14
REMARK   11  A    between atoms: C_14  and  C_15
REMARK   12  A    between atoms: C_15  and  C_16
REMARK   13  A    between atoms: C_16  and  C_17
REMARK   14  A    between atoms: C_17  and  C_18
REMARK   15  A    between atoms: C_18  and  C_19
REMARK                            x       y       z     vdW  Elec       q    Type
REMARK                         _______ _______ _______ _____ _____    ______ ____
ROOT
ATOM      1  O   LIG A   1      -9.042   2.552 122.134  0.00  0.00    -0.283 OA
ATOM      2  C   LIG A   1      -8.166   2.999 122.889  0.00  0.00    +0.231 A 
ATOM      3  C   LIG A   1      -8.260   2.944 124.397  0.00  0.00    +0.186 A 
ATOM      4  C   LIG A   1      -7.184   3.384 125.110  0.00  0.00    +0.062 A 
ATOM      5  N   LIG A   1      -6.055   3.905 124.502  0.00  0.00    -0.355 N 
ATOM      6  H   LIG A   1      -5.295   4.228 125.093  0.00  0.00    +0.166 HD
ATOM      7  C   LIG A   1      -5.929   4.034 123.119  0.00  0.00    +0.051 A 
ATOM      8  C   LIG A   1      -4.782   4.581 122.533  0.00  0.00    +0.026 A 
ATOM      9  C   LIG A   1      -4.680   4.718 121.144  0.00  0.00    +0.002 A 
ATOM     10  C   LIG A   1      -5.729   4.308 120.320  0.00  0.00    +0.001 A 
ATOM     11  C   LIG A   1      -6.869   3.747 120.885  0.00  0.00    +0.014 A 
ATOM     12  C   LIG A   1      -6.967   3.610 122.278  0.00  0.00    +0.049 A 
ENDROOT
BRANCH   3  13
ATOM     13  O   LIG A   1      -9.388   2.493 125.071  0.00  0.00    -0.490 OA
ATOM     14  C   LIG A   1      -9.559   1.081 125.173  0.00  0.00    +0.277 C 
ENDBRANCH   3  13
BRANCH   4  15
ATOM     15  C   LIG A   1      -7.171   3.370 126.641  0.00  0.00    +0.057 C 
BRANCH  15  16
ATOM     16  C   LIG A   1      -6.104   2.431 127.235  0.00  0.00    +0.006 C 
BRANCH  16  17
ATOM     17  C   LIG A   1      -6.701   1.129 127.812  0.00  0.00    +0.000 C 
BRANCH  17  18
ATOM     18  C   LIG A   1      -5.926  -0.104 127.324  0.00  0.00    +0.000 C 
BRANCH  18  19
ATOM     19  C   LIG A   1      -6.742  -1.036 126.416  0.00  0.00    -0.000 C 
BRANCH  19  20
ATOM     20  C   LIG A   1      -7.869  -1.772 127.168  0.00  0.00    -0.000 C 
BRANCH  20  21
ATOM     21  C   LIG A   1      -8.270  -3.090 126.493  0.00  0.00    -0.000 C 
BRANCH  21  22
ATOM     22  C   LIG A   1      -9.561  -3.031 125.667  0.00  0.00    +0.000 C 
BRANCH  22  23
ATOM     23  C   LIG A   1      -9.369  -3.408 124.198  0.00  0.00    +0.000 C 
BRANCH  23  24
ATOM     24  C   LIG A   1      -9.197  -2.171 123.307  0.00  0.00    +0.007 C 
BRANCH  24  25
ATOM     25  C   LIG A   1      -8.001  -2.278 122.358  0.00  0.00    +0.074 C 
BRANCH  25  26
ATOM     26  C   LIG A   1      -6.735  -1.606 122.864  0.00  0.00    +0.130 C 
ATOM     27  C   LIG A   1      -5.595  -2.522 123.235  0.00  0.00    +0.086 C 
ATOM     28  O   LIG A   1      -6.626  -0.386 122.957  0.00  0.00    -0.298 OA
ENDBRANCH  25  26
ENDBRANCH  24  25
ENDBRANCH  23  24
ENDBRANCH  22  23
ENDBRANCH  21  22
ENDBRANCH  20  21
ENDBRANCH  19  20
ENDBRANCH  18  19
ENDBRANCH  17  18
ENDBRANCH  16  17
ENDBRANCH  15  16
ENDBRANCH   4  15
TORSDOF 13
ENDMDL
MODEL 4
REMARK VINA RESULT:      -6.2      6.772      9.466
REMARK  Name = NuBBE_878
REMARK  15 active torsions:
REMARK  status: ('A' for Active; 'I' for Inactive)
REMARK    1  A    between atoms: C_3  and  O_4
REMARK    2  A    between atoms: O_4  and  C_5
REMARK    3  A    between atoms: C_6  and  C_7
REMARK    4  A    between atoms: C_7  and  C_8
REMARK    5  A    between atoms: C_8  and  C_9
REMARK    6  A    between atoms: C_9  and  C_10
REMARK    7  A    between atoms: C_10  and  C_11
REMARK    8  A    between atoms: C_11  and  C_12
REMARK    9  A    between atoms: C_12  and  C_13
REMARK   10  A    between atoms: C_13  and  C_14
REMARK   11  A    between atoms: C_14  and  C_15
REMARK   12  A    between atoms: C_15  and  C_16
REMARK   13  A    between atoms: C_16  and  C_17
REMARK   14  A    between atoms: C_17  and  C_18
REMARK   15  A    between atoms: C_18  and  C_19
REMARK                            x       y       z     vdW  Elec       q    Type
REMARK                         _______ _______ _______ _____ _____    ______ ____
ROOT
ATOM      1  O   LIG A   1     -12.225   6.489 132.142  0.00  0.00    -0.283 OA
ATOM      2  C   LIG A   1     -11.358   6.505 131.256  0.00  0.00    +0.231 A 
ATOM      3  C   LIG A   1      -9.895   6.227 131.518  0.00  0.00    +0.186 A 
ATOM      4  C   LIG A   1      -9.062   6.181 130.439  0.00  0.00    +0.062 A 
ATOM      5  N   LIG A   1      -9.504   6.419 129.150  0.00  0.00    -0.355 N 
ATOM      6  H   LIG A   1      -8.827   6.384 128.394  0.00  0.00    +0.166 HD
ATOM      7  C   LIG A   1     -10.829   6.736 128.849  0.00  0.00    +0.051 A 
ATOM      8  C   LIG A   1     -11.244   6.989 127.537  0.00  0.00    +0.026 A 
ATOM      9  C   LIG A   1     -12.574   7.321 127.256  0.00  0.00    +0.002 A 
ATOM     10  C   LIG A   1     -13.510   7.405 128.287  0.00  0.00    +0.001 A 
ATOM     11  C   LIG A   1     -13.117   7.140 129.595  0.00  0.00    +0.014 A 
ATOM     12  C   LIG A   1     -11.783   6.806 129.873  0.00  0.00    +0.049 A 
ENDROOT
BRANCH   3  13
ATOM     13  O   LIG A   1      -9.374   6.042 132.793  0.00  0.00    -0.490 OA
ATOM     14  C   LIG A   1      -9.341   4.706 133.291  0.00  0.00    +0.277 C 
ENDBRANCH   3  13
BRANCH   4  15
ATOM     15  C   LIG A   1      -7.563   5.904 130.590  0.00  0.00    +0.057 C 
BRANCH  15  16
ATOM     16  C   LIG A   1      -6.741   7.160 130.934  0.00  0.00    +0.006 C 
BRANCH  16  17
ATOM     17  C   LIG A   1      -5.277   6.837 131.308  0.00  0.00    +0.000 C 
BRANCH  17  18
ATOM     18  C   LIG A   1      -4.295   7.486 130.321  0.00  0.00    +0.000 C 
BRANCH  18  19
ATOM     19  C   LIG A   1      -2.910   6.820 130.290  0.00  0.00    -0.000 C 
BRANCH  19  20
ATOM     20  C   LIG A   1      -2.377   6.609 128.859  0.00  0.00    -0.000 C 
BRANCH  20  21
ATOM     21  C   LIG A   1      -2.815   5.268 128.254  0.00  0.00    -0.000 C 
BRANCH  21  22
ATOM     22  C   LIG A   1      -3.397   4.264 129.256  0.00  0.00    +0.000 C 
BRANCH  22  23
ATOM     23  C   LIG A   1      -4.765   3.712 128.849  0.00  0.00    +0.000 C 
BRANCH  23  24
ATOM     24  C   LIG A   1      -5.371   4.494 127.676  0.00  0.00    +0.007 C 
BRANCH  24  25
ATOM     25  C   LIG A   1      -6.178   3.611 126.722  0.00  0.00    +0.074 C 
BRANCH  25  26
ATOM     26  C   LIG A   1      -7.575   4.128 126.418  0.00  0.00    +0.130 C 
ATOM     27  C   LIG A   1      -8.158   3.732 125.084  0.00  0.00    +0.086 C 
ATOM     28  O   LIG A   1      -8.212   4.817 127.210  0.00  0.00    -0.298 OA
ENDBRANCH  25  26
ENDBRANCH  24  25
ENDBRANCH  23  24
ENDBRANCH  22  23
ENDBRANCH  21  22
ENDBRANCH  20  21
ENDBRANCH  19  20
ENDBRANCH  18  19
ENDBRANCH  17  18
ENDBRANCH  16  17
ENDBRANCH  15  16
ENDBRANCH   4  15
TORSDOF 13
ENDMDL
MODEL 5
REMARK VINA RESULT:      -6.1      7.597      9.632
REMARK  Name = NuBBE_878
REMARK  15 active torsions:
REMARK  status: ('A' for Active; 'I' for Inactive)
REMARK    1  A    between atoms: C_3  and  O_4
REMARK    2  A    between atoms: O_4  and  C_5
REMARK    3  A    between atoms: C_6  and  C_7
REMARK    4  A    between atoms: C_7  and  C_8
REMARK    5  A    between atoms: C_8  and  C_9
REMARK    6  A    between atoms: C_9  and  C_10
REMARK    7  A    between atoms: C_10  and  C_11
REMARK    8  A    between atoms: C_11  and  C_12
REMARK    9  A    between atoms: C_12  and  C_13
REMARK   10  A    between atoms: C_13  and  C_14
REMARK   11  A    between atoms: C_14  and  C_15
REMARK   12  A    between atoms: C_15  and  C_16
REMARK   13  A    between atoms: C_16  and  C_17
REMARK   14  A    between atoms: C_17  and  C_18
REMARK   15  A    between atoms: C_18  and  C_19
REMARK                            x       y       z     vdW  Elec       q    Type
REMARK                         _______ _______ _______ _____ _____    ______ ____
ROOT
ATOM      1  O   LIG A   1     -11.783   4.121 129.976  0.00  0.00    -0.283 OA
ATOM      2  C   LIG A   1     -11.088   5.140 130.103  0.00  0.00    +0.231 A 
ATOM      3  C   LIG A   1      -9.797   5.175 130.889  0.00  0.00    +0.186 A 
ATOM      4  C   LIG A   1      -9.080   6.335 130.869  0.00  0.00    +0.062 A 
ATOM      5  N   LIG A   1      -9.517   7.464 130.199  0.00  0.00    -0.355 N 
ATOM      6  H   LIG A   1      -8.941   8.300 130.237  0.00  0.00    +0.166 HD
ATOM      7  C   LIG A   1     -10.724   7.514 129.502  0.00  0.00    +0.051 A 
ATOM      8  C   LIG A   1     -11.148   8.677 128.848  0.00  0.00    +0.026 A 
ATOM      9  C   LIG A   1     -12.371   8.712 128.168  0.00  0.00    +0.002 A 
ATOM     10  C   LIG A   1     -13.189   7.582 128.134  0.00  0.00    +0.001 A 
ATOM     11  C   LIG A   1     -12.773   6.414 128.764  0.00  0.00    +0.014 A 
ATOM     12  C   LIG A   1     -11.547   6.381 129.444  0.00  0.00    +0.049 A 
ENDROOT
BRANCH   3  13
ATOM     13  O   LIG A   1      -9.333   4.098 131.635  0.00  0.00    -0.490 OA
ATOM     14  C   LIG A   1      -8.686   3.047 130.921  0.00  0.00    +0.277 C 
ENDBRANCH   3  13
BRANCH   4  15
ATOM     15  C   LIG A   1      -7.757   6.479 131.628  0.00  0.00    +0.057 C 
BRANCH  15  16
ATOM     16  C   LIG A   1      -6.518   6.346 130.724  0.00  0.00    +0.006 C 
BRANCH  16  17
ATOM     17  C   LIG A   1      -5.218   6.821 131.410  0.00  0.00    +0.000 C 
BRANCH  17  18
ATOM     18  C   LIG A   1      -4.276   7.504 130.408  0.00  0.00    +0.000 C 
BRANCH  18  19
ATOM     19  C   LIG A   1      -2.812   7.053 130.521  0.00  0.00    -0.000 C 
BRANCH  19  20
ATOM     20  C   LIG A   1      -2.262   6.462 129.208  0.00  0.00    -0.000 C 
BRANCH  20  21
ATOM     21  C   LIG A   1      -3.318   6.401 128.096  0.00  0.00    -0.000 C 
BRANCH  21  22
ATOM     22  C   LIG A   1      -3.629   4.994 127.572  0.00  0.00    +0.000 C 
BRANCH  22  23
ATOM     23  C   LIG A   1      -4.591   4.205 128.462  0.00  0.00    +0.000 C 
BRANCH  23  24
ATOM     24  C   LIG A   1      -3.849   3.202 129.357  0.00  0.00    +0.007 C 
BRANCH  24  25
ATOM     25  C   LIG A   1      -4.739   2.600 130.447  0.00  0.00    +0.074 C 
BRANCH  25  26
ATOM     26  C   LIG A   1      -4.602   3.263 131.807  0.00  0.00    +0.130 C 
ATOM     27  C   LIG A   1      -3.217   3.727 132.187  0.00  0.00    +0.086 C 
ATOM     28  O   LIG A   1      -5.557   3.433 132.560  0.00  0.00    -0.298 OA
ENDBRANCH  25  26
ENDBRANCH  24  25
ENDBRANCH  23  24
ENDBRANCH  22  23
ENDBRANCH  21  22
ENDBRANCH  20  21
ENDBRANCH  19  20
ENDBRANCH  18  19
ENDBRANCH  17  18
ENDBRANCH  16  17
ENDBRANCH  15  16
ENDBRANCH   4  15
TORSDOF 13
ENDMDL
MODEL 6
REMARK VINA RESULT:      -6.1      5.957      8.129
REMARK  Name = NuBBE_878
REMARK  15 active torsions:
REMARK  status: ('A' for Active; 'I' for Inactive)
REMARK    1  A    between atoms: C_3  and  O_4
REMARK    2  A    between atoms: O_4  and  C_5
REMARK    3  A    between atoms: C_6  and  C_7
REMARK    4  A    between atoms: C_7  and  C_8
REMARK    5  A    between atoms: C_8  and  C_9
REMARK    6  A    between atoms: C_9  and  C_10
REMARK    7  A    between atoms: C_10  and  C_11
REMARK    8  A    between atoms: C_11  and  C_12
REMARK    9  A    between atoms: C_12  and  C_13
REMARK   10  A    between atoms: C_13  and  C_14
REMARK   11  A    between atoms: C_14  and  C_15
REMARK   12  A    between atoms: C_15  and  C_16
REMARK   13  A    between atoms: C_16  and  C_17
REMARK   14  A    between atoms: C_17  and  C_18
REMARK   15  A    between atoms: C_18  and  C_19
REMARK                            x       y       z     vdW  Elec       q    Type
REMARK                         _______ _______ _______ _____ _____    ______ ____
ROOT
ATOM      1  O   LIG A   1      -9.385   6.084 127.987  0.00  0.00    -0.283 OA
ATOM      2  C   LIG A   1      -9.660   5.734 129.144  0.00  0.00    +0.231 A 
ATOM      3  C   LIG A   1      -8.881   4.684 129.904  0.00  0.00    +0.186 A 
ATOM      4  C   LIG A   1      -9.229   4.462 131.204  0.00  0.00    +0.062 A 
ATOM      5  N   LIG A   1     -10.277   5.126 131.815  0.00  0.00    -0.355 N 
ATOM      6  H   LIG A   1     -10.493   4.903 132.782  0.00  0.00    +0.166 HD
ATOM      7  C   LIG A   1     -11.070   6.065 131.152  0.00  0.00    +0.051 A 
ATOM      8  C   LIG A   1     -12.135   6.708 131.791  0.00  0.00    +0.026 A 
ATOM      9  C   LIG A   1     -12.929   7.635 131.106  0.00  0.00    +0.002 A 
ATOM     10  C   LIG A   1     -12.667   7.930 129.767  0.00  0.00    +0.001 A 
ATOM     11  C   LIG A   1     -11.601   7.311 129.123  0.00  0.00    +0.014 A 
ATOM     12  C   LIG A   1     -10.806   6.384 129.814  0.00  0.00    +0.049 A 
ENDROOT
BRANCH   3  13
ATOM     13  O   LIG A   1      -7.859   3.936 129.333  0.00  0.00    -0.490 OA
ATOM     14  C   LIG A   1      -8.244   2.876 128.460  0.00  0.00    +0.277 C 
ENDBRANCH   3  13
BRANCH   4  15
ATOM     15  C   LIG A   1      -8.504   3.424 132.066  0.00  0.00    +0.057 C 
BRANCH  15  16
ATOM     16  C   LIG A   1      -9.449   2.381 132.691  0.00  0.00    +0.006 C 
BRANCH  16  17
ATOM     17  C   LIG A   1      -9.497   1.059 131.895  0.00  0.00    +0.000 C 
BRANCH  17  18
ATOM     18  C   LIG A   1      -8.118   0.704 131.319  0.00  0.00    +0.000 C 
BRANCH  18  19
ATOM     19  C   LIG A   1      -8.117  -0.548 130.428  0.00  0.00    -0.000 C 
BRANCH  19  20
ATOM     20  C   LIG A   1      -6.999  -1.544 130.794  0.00  0.00    -0.000 C 
BRANCH  20  21
ATOM     21  C   LIG A   1      -6.911  -2.723 129.816  0.00  0.00    -0.000 C 
BRANCH  21  22
ATOM     22  C   LIG A   1      -8.244  -3.418 129.515  0.00  0.00    +0.000 C 
BRANCH  22  23
ATOM     23  C   LIG A   1      -8.404  -3.838 128.053  0.00  0.00    +0.000 C 
BRANCH  23  24
ATOM     24  C   LIG A   1      -8.611  -2.630 127.130  0.00  0.00    +0.007 C 
BRANCH  24  25
ATOM     25  C   LIG A   1      -9.493  -2.945 125.920  0.00  0.00    +0.074 C 
BRANCH  25  26
ATOM     26  C   LIG A   1      -9.024  -2.315 124.619  0.00  0.00    +0.130 C 
ATOM     27  C   LIG A   1      -8.159  -3.178 123.733  0.00  0.00    +0.086 C 
ATOM     28  O   LIG A   1      -9.335  -1.174 124.287  0.00  0.00    -0.298 OA
ENDBRANCH  25  26
ENDBRANCH  24  25
ENDBRANCH  23  24
ENDBRANCH  22  23
ENDBRANCH  21  22
ENDBRANCH  20  21
ENDBRANCH  19  20
ENDBRANCH  18  19
ENDBRANCH  17  18
ENDBRANCH  16  17
ENDBRANCH  15  16
ENDBRANCH   4  15
TORSDOF 13
ENDMDL
MODEL 7
REMARK VINA RESULT:      -6.0      4.364      6.842
REMARK  Name = NuBBE_878
REMARK  15 active torsions:
REMARK  status: ('A' for Active; 'I' for Inactive)
REMARK    1  A    between atoms: C_3  and  O_4
REMARK    2  A    between atoms: O_4  and  C_5
REMARK    3  A    between atoms: C_6  and  C_7
REMARK    4  A    between atoms: C_7  and  C_8
REMARK    5  A    between atoms: C_8  and  C_9
REMARK    6  A    between atoms: C_9  and  C_10
REMARK    7  A    between atoms: C_10  and  C_11
REMARK    8  A    between atoms: C_11  and  C_12
REMARK    9  A    between atoms: C_12  and  C_13
REMARK   10  A    between atoms: C_13  and  C_14
REMARK   11  A    between atoms: C_14  and  C_15
REMARK   12  A    between atoms: C_15  and  C_16
REMARK   13  A    between atoms: C_16  and  C_17
REMARK   14  A    between atoms: C_17  and  C_18
REMARK   15  A    between atoms: C_18  and  C_19
REMARK                            x       y       z     vdW  Elec       q    Type
REMARK                         _______ _______ _______ _____ _____    ______ ____
ROOT
ATOM      1  O   LIG A   1      -9.245   2.811 121.528  0.00  0.00    -0.283 OA
ATOM      2  C   LIG A   1      -8.153   3.168 121.992  0.00  0.00    +0.231 A 
ATOM      3  C   LIG A   1      -7.735   2.922 123.423  0.00  0.00    +0.186 A 
ATOM      4  C   LIG A   1      -6.468   3.280 123.779  0.00  0.00    +0.062 A 
ATOM      5  N   LIG A   1      -5.594   3.886 122.895  0.00  0.00    -0.355 N 
ATOM      6  H   LIG A   1      -4.669   4.140 123.229  0.00  0.00    +0.166 HD
ATOM      7  C   LIG A   1      -5.936   4.191 121.577  0.00  0.00    +0.051 A 
ATOM      8  C   LIG A   1      -5.036   4.821 120.710  0.00  0.00    +0.026 A 
ATOM      9  C   LIG A   1      -5.405   5.134 119.397  0.00  0.00    +0.002 A 
ATOM     10  C   LIG A   1      -6.682   4.821 118.932  0.00  0.00    +0.001 A 
ATOM     11  C   LIG A   1      -7.583   4.179 119.776  0.00  0.00    +0.014 A 
ATOM     12  C   LIG A   1      -7.210   3.866 121.092  0.00  0.00    +0.049 A 
ENDROOT
BRANCH   3  13
ATOM     13  O   LIG A   1      -8.584   2.375 124.378  0.00  0.00    -0.490 OA
ATOM     14  C   LIG A   1      -8.760   0.960 124.354  0.00  0.00    +0.277 C 
ENDBRANCH   3  13
BRANCH   4  15
ATOM     15  C   LIG A   1      -5.941   3.071 125.202  0.00  0.00    +0.057 C 
BRANCH  15  16
ATOM     16  C   LIG A   1      -5.069   4.236 125.707  0.00  0.00    +0.006 C 
BRANCH  16  17
ATOM     17  C   LIG A   1      -5.141   4.422 127.239  0.00  0.00    +0.000 C 
BRANCH  17  18
ATOM     18  C   LIG A   1      -4.002   3.672 127.945  0.00  0.00    +0.000 C 
BRANCH  18  19
ATOM     19  C   LIG A   1      -2.645   4.389 127.873  0.00  0.00    -0.000 C 
BRANCH  19  20
ATOM     20  C   LIG A   1      -2.768   5.922 127.988  0.00  0.00    -0.000 C 
BRANCH  20  21
ATOM     21  C   LIG A   1      -2.024   6.487 129.206  0.00  0.00    -0.000 C 
BRANCH  21  22
ATOM     22  C   LIG A   1      -2.863   6.599 130.484  0.00  0.00    +0.000 C 
BRANCH  22  23
ATOM     23  C   LIG A   1      -4.327   6.965 130.230  0.00  0.00    +0.000 C 
BRANCH  23  24
ATOM     24  C   LIG A   1      -5.287   5.917 130.809  0.00  0.00    +0.007 C 
BRANCH  24  25
ATOM     25  C   LIG A   1      -6.586   6.526 131.343  0.00  0.00    +0.074 C 
BRANCH  25  26
ATOM     26  C   LIG A   1      -7.823   6.174 130.533  0.00  0.00    +0.130 C 
ATOM     27  C   LIG A   1      -9.088   6.914 130.892  0.00  0.00    +0.086 C 
ATOM     28  O   LIG A   1      -7.806   5.348 129.625  0.00  0.00    -0.298 OA
ENDBRANCH  25  26
ENDBRANCH  24  25
ENDBRANCH  23  24
ENDBRANCH  22  23
ENDBRANCH  21  22
ENDBRANCH  20  21
ENDBRANCH  19  20
ENDBRANCH  18  19
ENDBRANCH  17  18
ENDBRANCH  16  17
ENDBRANCH  15  16
ENDBRANCH   4  15
TORSDOF 13
ENDMDL
MODEL 8
REMARK VINA RESULT:      -6.0      5.933      7.735
REMARK  Name = NuBBE_878
REMARK  15 active torsions:
REMARK  status: ('A' for Active; 'I' for Inactive)
REMARK    1  A    between atoms: C_3  and  O_4
REMARK    2  A    between atoms: O_4  and  C_5
REMARK    3  A    between atoms: C_6  and  C_7
REMARK    4  A    between atoms: C_7  and  C_8
REMARK    5  A    between atoms: C_8  and  C_9
REMARK    6  A    between atoms: C_9  and  C_10
REMARK    7  A    between atoms: C_10  and  C_11
REMARK    8  A    between atoms: C_11  and  C_12
REMARK    9  A    between atoms: C_12  and  C_13
REMARK   10  A    between atoms: C_13  and  C_14
REMARK   11  A    between atoms: C_14  and  C_15
REMARK   12  A    between atoms: C_15  and  C_16
REMARK   13  A    between atoms: C_16  and  C_17
REMARK   14  A    between atoms: C_17  and  C_18
REMARK   15  A    between atoms: C_18  and  C_19
REMARK                            x       y       z     vdW  Elec       q    Type
REMARK                         _______ _______ _______ _____ _____    ______ ____
ROOT
ATOM      1  O   LIG A   1     -11.860   6.472 132.244  0.00  0.00    -0.283 OA
ATOM      2  C   LIG A   1     -11.115   6.377 131.258  0.00  0.00    +0.231 A 
ATOM      3  C   LIG A   1      -9.849   5.550 131.249  0.00  0.00    +0.186 A 
ATOM      4  C   LIG A   1      -9.171   5.454 130.069  0.00  0.00    +0.062 A 
ATOM      5  N   LIG A   1      -9.579   6.112 128.923  0.00  0.00    -0.355 N 
ATOM      6  H   LIG A   1      -9.020   6.009 128.082  0.00  0.00    +0.166 HD
ATOM      7  C   LIG A   1     -10.706   6.934 128.881  0.00  0.00    +0.051 A 
ATOM      8  C   LIG A   1     -11.085   7.602 127.711  0.00  0.00    +0.026 A 
ATOM      9  C   LIG A   1     -12.209   8.436 127.692  0.00  0.00    +0.002 A 
ATOM     10  C   LIG A   1     -12.970   8.614 128.848  0.00  0.00    +0.001 A 
ATOM     11  C   LIG A   1     -12.616   7.944 130.014  0.00  0.00    +0.014 A 
ATOM     12  C   LIG A   1     -11.489   7.108 130.029  0.00  0.00    +0.049 A 
ENDROOT
BRANCH   3  13
ATOM     13  O   LIG A   1      -9.349   4.915 132.379  0.00  0.00    -0.490 OA
ATOM     14  C   LIG A   1      -8.643   5.725 133.316  0.00  0.00    +0.277 C 
ENDBRANCH   3  13
BRANCH   4  15
ATOM     15  C   LIG A   1      -7.880   4.639 129.947  0.00  0.00    +0.057 C 
BRANCH  15  16
ATOM     16  C   LIG A   1      -7.959   3.524 128.888  0.00  0.00    +0.006 C 
BRANCH  16  17
ATOM     17  C   LIG A   1      -8.679   2.257 129.400  0.00  0.00    +0.000 C 
BRANCH  17  18
ATOM     18  C   LIG A   1      -8.215   1.006 128.639  0.00  0.00    +0.000 C 
BRANCH  18  19
ATOM     19  C   LIG A   1      -8.376   1.107 127.115  0.00  0.00    -0.000 C 
BRANCH  19  20
ATOM     20  C   LIG A   1      -8.210  -0.250 126.402  0.00  0.00    -0.000 C 
BRANCH  20  21
ATOM     21  C   LIG A   1      -7.847  -1.387 127.366  0.00  0.00    -0.000 C 
BRANCH  21  22
ATOM     22  C   LIG A   1      -8.463  -2.749 127.027  0.00  0.00    +0.000 C 
BRANCH  22  23
ATOM     23  C   LIG A   1      -9.362  -2.726 125.789  0.00  0.00    +0.000 C 
BRANCH  23  24
ATOM     24  C   LIG A   1      -8.780  -3.564 124.644  0.00  0.00    +0.007 C 
BRANCH  24  25
ATOM     25  C   LIG A   1      -9.185  -3.050 123.260  0.00  0.00    +0.074 C 
BRANCH  25  26
ATOM     26  C   LIG A   1      -8.693  -1.647 122.943  0.00  0.00    +0.130 C 
ATOM     27  C   LIG A   1      -9.758  -0.611 122.677  0.00  0.00    +0.086 C 
ATOM     28  O   LIG A   1      -7.501  -1.354 122.918  0.00  0.00    -0.298 OA
ENDBRANCH  25  26
ENDBRANCH  24  25
ENDBRANCH  23  24
ENDBRANCH  22  23
ENDBRANCH  21  22
ENDBRANCH  20  21
ENDBRANCH  19  20
ENDBRANCH  18  19
ENDBRANCH  17  18
ENDBRANCH  16  17
ENDBRANCH  15  16
ENDBRANCH   4  15
TORSDOF 13
ENDMDL
MODEL 9
REMARK VINA RESULT:      -6.0      2.122      2.752
REMARK  Name = NuBBE_878
REMARK  15 active torsions:
REMARK  status: ('A' for Active; 'I' for Inactive)
REMARK    1  A    between atoms: C_3  and  O_4
REMARK    2  A    between atoms: O_4  and  C_5
REMARK    3  A    between atoms: C_6  and  C_7
REMARK    4  A    between atoms: C_7  and  C_8
REMARK    5  A    between atoms: C_8  and  C_9
REMARK    6  A    between atoms: C_9  and  C_10
REMARK    7  A    between atoms: C_10  and  C_11
REMARK    8  A    between atoms: C_11  and  C_12
REMARK    9  A    between atoms: C_12  and  C_13
REMARK   10  A    between atoms: C_13  and  C_14
REMARK   11  A    between atoms: C_14  and  C_15
REMARK   12  A    between atoms: C_15  and  C_16
REMARK   13  A    between atoms: C_16  and  C_17
REMARK   14  A    between atoms: C_17  and  C_18
REMARK   15  A    between atoms: C_18  and  C_19
REMARK                            x       y       z     vdW  Elec       q    Type
REMARK                         _______ _______ _______ _____ _____    ______ ____
ROOT
ATOM      1  O   LIG A   1      -4.455   4.612 122.465  0.00  0.00    -0.283 OA
ATOM      2  C   LIG A   1      -5.584   4.161 122.227  0.00  0.00    +0.231 A 
ATOM      3  C   LIG A   1      -6.410   3.405 123.243  0.00  0.00    +0.186 A 
ATOM      4  C   LIG A   1      -7.676   3.046 122.883  0.00  0.00    +0.062 A 
ATOM      5  N   LIG A   1      -8.193   3.313 121.628  0.00  0.00    -0.355 N 
ATOM      6  H   LIG A   1      -9.138   3.006 121.420  0.00  0.00    +0.166 HD
ATOM      7  C   LIG A   1      -7.463   3.957 120.627  0.00  0.00    +0.051 A 
ATOM      8  C   LIG A   1      -8.007   4.198 119.361  0.00  0.00    +0.026 A 
ATOM      9  C   LIG A   1      -7.254   4.830 118.365  0.00  0.00    +0.002 A 
ATOM     10  C   LIG A   1      -5.943   5.231 118.624  0.00  0.00    +0.001 A 
ATOM     11  C   LIG A   1      -5.394   5.014 119.883  0.00  0.00    +0.014 A 
ATOM     12  C   LIG A   1      -6.152   4.380 120.880  0.00  0.00    +0.049 A 
ENDROOT
BRANCH   3  13
ATOM     13  O   LIG A   1      -5.930   3.049 124.498  0.00  0.00    -0.490 OA
ATOM     14  C   LIG A   1      -5.894   4.071 125.491  0.00  0.00    +0.277 C 
ENDBRANCH   3  13
BRANCH   4  15
ATOM     15  C   LIG A   1      -8.599   2.282 123.836  0.00  0.00    +0.057 C 
BRANCH  15  16
ATOM     16  C   LIG A   1      -9.323   1.098 123.168  0.00  0.00    +0.006 C 
BRANCH  16  17
ATOM     17  C   LIG A   1      -8.860  -0.273 123.707  0.00  0.00    +0.000 C 
BRANCH  17  18
ATOM     18  C   LIG A   1      -7.338  -0.437 123.579  0.00  0.00    +0.000 C 
BRANCH  18  19
ATOM     19  C   LIG A   1      -6.825  -1.829 123.979  0.00  0.00    -0.000 C 
BRANCH  19  20
ATOM     20  C   LIG A   1      -5.588  -1.771 124.898  0.00  0.00    -0.000 C 
BRANCH  20  21
ATOM     21  C   LIG A   1      -5.903  -2.175 126.345  0.00  0.00    -0.000 C 
BRANCH  21  22
ATOM     22  C   LIG A   1      -7.089  -1.439 126.980  0.00  0.00    +0.000 C 
BRANCH  22  23
ATOM     23  C   LIG A   1      -7.812  -2.250 128.056  0.00  0.00    +0.000 C 
BRANCH  23  24
ATOM     24  C   LIG A   1      -6.929  -2.477 129.290  0.00  0.00    +0.007 C 
BRANCH  24  25
ATOM     25  C   LIG A   1      -6.800  -3.954 129.671  0.00  0.00    +0.074 C 
BRANCH  25  26
ATOM     26  C   LIG A   1      -5.559  -4.288 130.482  0.00  0.00    +0.130 C 
ATOM     27  C   LIG A   1      -4.241  -3.836 129.902  0.00  0.00    +0.086 C 
ATOM     28  O   LIG A   1      -5.611  -4.877 131.558  0.00  0.00    -0.298 OA
ENDBRANCH  25  26
ENDBRANCH  24  25
ENDBRANCH  23  24
ENDBRANCH  22  23
ENDBRANCH  21  22
ENDBRANCH  20  21
ENDBRANCH  19  20
ENDBRANCH  18  19
ENDBRANCH  17  18
ENDBRANCH  16  17
ENDBRANCH  15  16
ENDBRANCH   4  15
TORSDOF 13
ENDMDL
