MODEL 1
REMARK VINA RESULT:      -6.6      0.000      0.000
REMARK  Name = NuBBE_2097
REMARK  8 active torsions:
REMARK  status: ('A' for Active; 'I' for Inactive)
REMARK    1  A    between atoms: C_1  and  O_3
REMARK    2  A    between atoms: C_1  and  C_11
REMARK    3  A    between atoms: O_3  and  C_4
REMARK    4  A    between atoms: C_4  and  C_5
REMARK    5  A    between atoms: C_12  and  O_13
REMARK    6  A    between atoms: O_13  and  C_14
REMARK    7  A    between atoms: C_18  and  O_19
REMARK    8  A    between atoms: O_19  and  C_20
REMARK                            x       y       z     vdW  Elec       q    Type
REMARK                         _______ _______ _______ _____ _____    ______ ____
ROOT
ATOM      1  C   LIG A   1      -9.014   0.216 123.905  0.00  0.00    +0.347 C 
ATOM      2  O   LIG A   1      -9.827   0.072 124.756  0.00  0.00    -0.245 OA
ENDROOT
BRANCH   1   3
ATOM      3  C   LIG A   1      -7.739  -0.513 123.994  0.00  0.00    +0.142 A 
ATOM      4  C   LIG A   1      -6.666   0.006 124.746  0.00  0.00    +0.138 A 
ATOM      5  C   LIG A   1      -5.639  -0.854 125.164  0.00  0.00    +0.046 A 
ATOM      6  C   LIG A   1      -5.640  -2.199 124.813  0.00  0.00    +0.007 A 
ATOM      7  C   LIG A   1      -6.651  -2.702 124.013  0.00  0.00    +0.046 A 
ATOM      8  C   LIG A   1      -7.701  -1.879 123.567  0.00  0.00    +0.138 A 
BRANCH   4   9
ATOM      9  O   LIG A   1      -6.610   1.237 125.354  0.00  0.00    -0.494 OA
ATOM     10  C   LIG A   1      -6.809   1.248 126.769  0.00  0.00    +0.277 C 
ENDBRANCH   4   9
BRANCH   8  11
ATOM     11  O   LIG A   1      -8.714  -2.415 122.804  0.00  0.00    -0.494 OA
ATOM     12  C   LIG A   1      -9.583  -3.362 123.438  0.00  0.00    +0.277 C 
ENDBRANCH   8  11
ENDBRANCH   1   3
BRANCH   1  13
ATOM     13  O   LIG A   1      -9.246   1.028 122.831  0.00  0.00    -0.456 OA
BRANCH  13  14
ATOM     14  C   LIG A   1      -9.019   2.456 122.997  0.00  0.00    +0.268 C 
BRANCH  14  15
ATOM     15  C   LIG A   1      -8.140   3.177 122.019  0.00  0.00    -0.010 A 
ATOM     16  C   LIG A   1      -8.682   3.740 120.867  0.00  0.00    +0.007 A 
ATOM     17  C   LIG A   1      -7.861   4.121 119.816  0.00  0.00    +0.000 A 
ATOM     18  C   LIG A   1      -6.488   4.167 120.006  0.00  0.00    +0.000 A 
ATOM     19  C   LIG A   1      -5.950   3.856 121.254  0.00  0.00    +0.000 A 
ATOM     20  C   LIG A   1      -6.770   3.337 122.255  0.00  0.00    +0.007 A 
ENDBRANCH  14  15
ENDBRANCH  13  14
ENDBRANCH   1  13
TORSDOF 6
ENDMDL
MODEL 2
REMARK VINA RESULT:      -6.6      8.505      9.898
REMARK  Name = NuBBE_2097
REMARK  8 active torsions:
REMARK  status: ('A' for Active; 'I' for Inactive)
REMARK    1  A    between atoms: C_1  and  O_3
REMARK    2  A    between atoms: C_1  and  C_11
REMARK    3  A    between atoms: O_3  and  C_4
REMARK    4  A    between atoms: C_4  and  C_5
REMARK    5  A    between atoms: C_12  and  O_13
REMARK    6  A    between atoms: O_13  and  C_14
REMARK    7  A    between atoms: C_18  and  O_19
REMARK    8  A    between atoms: O_19  and  C_20
REMARK                            x       y       z     vdW  Elec       q    Type
REMARK                         _______ _______ _______ _____ _____    ______ ____
ROOT
ATOM      1  C   LIG A   1     -10.013   4.652 130.306  0.00  0.00    +0.347 C 
ATOM      2  O   LIG A   1      -9.434   4.666 129.271  0.00  0.00    -0.245 OA
ENDROOT
BRANCH   1   3
ATOM      3  C   LIG A   1      -9.260   4.443 131.553  0.00  0.00    +0.142 A 
ATOM      4  C   LIG A   1      -8.590   5.515 132.175  0.00  0.00    +0.138 A 
ATOM      5  C   LIG A   1      -8.241   5.415 133.531  0.00  0.00    +0.046 A 
ATOM      6  C   LIG A   1      -8.507   4.261 134.258  0.00  0.00    +0.007 A 
ATOM      7  C   LIG A   1      -9.098   3.174 133.636  0.00  0.00    +0.046 A 
ATOM      8  C   LIG A   1      -9.464   3.226 132.278  0.00  0.00    +0.138 A 
BRANCH   4   9
ATOM      9  O   LIG A   1      -8.442   6.788 131.680  0.00  0.00    -0.494 OA
ATOM     10  C   LIG A   1      -7.202   7.067 131.027  0.00  0.00    +0.277 C 
ENDBRANCH   4   9
BRANCH   8  11
ATOM     11  O   LIG A   1     -10.085   2.145 131.695  0.00  0.00    -0.494 OA
ATOM     12  C   LIG A   1      -9.417   0.879 131.780  0.00  0.00    +0.277 C 
ENDBRANCH   8  11
ENDBRANCH   1   3
BRANCH   1  13
ATOM     13  O   LIG A   1     -11.364   4.849 130.366  0.00  0.00    -0.456 OA
BRANCH  13  14
ATOM     14  C   LIG A   1     -11.844   6.098 130.938  0.00  0.00    +0.268 C 
BRANCH  14  15
ATOM     15  C   LIG A   1     -12.519   7.100 130.050  0.00  0.00    -0.010 A 
ATOM     16  C   LIG A   1     -13.171   6.687 128.890  0.00  0.00    +0.007 A 
ATOM     17  C   LIG A   1     -13.515   7.606 127.911  0.00  0.00    +0.000 A 
ATOM     18  C   LIG A   1     -13.431   8.962 128.189  0.00  0.00    +0.000 A 
ATOM     19  C   LIG A   1     -13.028   9.387 129.454  0.00  0.00    +0.000 A 
ATOM     20  C   LIG A   1     -12.547   8.459 130.378  0.00  0.00    +0.007 A 
ENDBRANCH  14  15
ENDBRANCH  13  14
ENDBRANCH   1  13
TORSDOF 6
ENDMDL
MODEL 3
REMARK VINA RESULT:      -6.6      2.191      2.897
REMARK  Name = NuBBE_2097
REMARK  8 active torsions:
REMARK  status: ('A' for Active; 'I' for Inactive)
REMARK    1  A    between atoms: C_1  and  O_3
REMARK    2  A    between atoms: C_1  and  C_11
REMARK    3  A    between atoms: O_3  and  C_4
REMARK    4  A    between atoms: C_4  and  C_5
REMARK    5  A    between atoms: C_12  and  O_13
REMARK    6  A    between atoms: O_13  and  C_14
REMARK    7  A    between atoms: C_18  and  O_19
REMARK    8  A    between atoms: O_19  and  C_20
REMARK                            x       y       z     vdW  Elec       q    Type
REMARK                         _______ _______ _______ _____ _____    ______ ____
ROOT
ATOM      1  C   LIG A   1      -8.503   3.150 124.509  0.00  0.00    +0.347 C 
ATOM      2  O   LIG A   1      -8.873   3.977 125.274  0.00  0.00    -0.245 OA
ENDROOT
BRANCH   1   3
ATOM      3  C   LIG A   1      -8.261   1.780 124.988  0.00  0.00    +0.142 A 
ATOM      4  C   LIG A   1      -7.179   1.499 125.845  0.00  0.00    +0.138 A 
ATOM      5  C   LIG A   1      -7.194   0.324 126.612  0.00  0.00    +0.046 A 
ATOM      6  C   LIG A   1      -8.238  -0.588 126.509  0.00  0.00    +0.007 A 
ATOM      7  C   LIG A   1      -9.270  -0.357 125.615  0.00  0.00    +0.046 A 
ATOM      8  C   LIG A   1      -9.297   0.806 124.823  0.00  0.00    +0.138 A 
BRANCH   4   9
ATOM      9  O   LIG A   1      -6.187   2.371 126.227  0.00  0.00    -0.494 OA
ATOM     10  C   LIG A   1      -4.872   1.819 126.330  0.00  0.00    +0.277 C 
ENDBRANCH   4   9
BRANCH   8  11
ATOM     11  O   LIG A   1     -10.355   1.029 123.971  0.00  0.00    -0.494 OA
ATOM     12  C   LIG A   1     -10.232   0.538 122.629  0.00  0.00    +0.277 C 
ENDBRANCH   8  11
ENDBRANCH   1   3
BRANCH   1  13
ATOM     13  O   LIG A   1      -8.317   3.439 123.187  0.00  0.00    -0.456 OA
BRANCH  13  14
ATOM     14  C   LIG A   1      -7.006   3.177 122.611  0.00  0.00    +0.268 C 
BRANCH  14  15
ATOM     15  C   LIG A   1      -6.646   3.795 121.294  0.00  0.00    -0.010 A 
ATOM     16  C   LIG A   1      -5.369   4.308 121.082  0.00  0.00    +0.007 A 
ATOM     17  C   LIG A   1      -5.118   5.153 120.011  0.00  0.00    +0.000 A 
ATOM     18  C   LIG A   1      -6.075   5.295 119.017  0.00  0.00    +0.000 A 
ATOM     19  C   LIG A   1      -7.263   4.570 119.089  0.00  0.00    +0.000 A 
ATOM     20  C   LIG A   1      -7.562   3.839 120.238  0.00  0.00    +0.007 A 
ENDBRANCH  14  15
ENDBRANCH  13  14
ENDBRANCH   1  13
TORSDOF 6
ENDMDL
MODEL 4
REMARK VINA RESULT:      -6.5      2.823      5.182
REMARK  Name = NuBBE_2097
REMARK  8 active torsions:
REMARK  status: ('A' for Active; 'I' for Inactive)
REMARK    1  A    between atoms: C_1  and  O_3
REMARK    2  A    between atoms: C_1  and  C_11
REMARK    3  A    between atoms: O_3  and  C_4
REMARK    4  A    between atoms: C_4  and  C_5
REMARK    5  A    between atoms: C_12  and  O_13
REMARK    6  A    between atoms: O_13  and  C_14
REMARK    7  A    between atoms: C_18  and  O_19
REMARK    8  A    between atoms: O_19  and  C_20
REMARK                            x       y       z     vdW  Elec       q    Type
REMARK                         _______ _______ _______ _____ _____    ______ ____
ROOT
ATOM      1  C   LIG A   1      -9.336  -1.225 125.749  0.00  0.00    +0.347 C 
ATOM      2  O   LIG A   1     -10.037  -0.277 125.623  0.00  0.00    -0.245 OA
ENDROOT
BRANCH   1   3
ATOM      3  C   LIG A   1      -8.022  -1.071 126.393  0.00  0.00    +0.142 A 
ATOM      4  C   LIG A   1      -7.574  -2.011 127.342  0.00  0.00    +0.138 A 
ATOM      5  C   LIG A   1      -6.203  -2.098 127.631  0.00  0.00    +0.046 A 
ATOM      6  C   LIG A   1      -5.287  -1.245 127.029  0.00  0.00    +0.007 A 
ATOM      7  C   LIG A   1      -5.725  -0.270 126.150  0.00  0.00    +0.046 A 
ATOM      8  C   LIG A   1      -7.090  -0.142 125.831  0.00  0.00    +0.138 A 
BRANCH   4   9
ATOM      9  O   LIG A   1      -8.295  -3.057 127.865  0.00  0.00    -0.494 OA
ATOM     10  C   LIG A   1      -8.303  -3.164 129.290  0.00  0.00    +0.277 C 
ENDBRANCH   4   9
BRANCH   8  11
ATOM     11  O   LIG A   1      -7.494   0.812 124.924  0.00  0.00    -0.494 OA
ATOM     12  C   LIG A   1      -6.562   1.855 124.609  0.00  0.00    +0.277 C 
ENDBRANCH   8  11
ENDBRANCH   1   3
BRANCH   1  13
ATOM     13  O   LIG A   1      -9.733  -2.463 125.327  0.00  0.00    -0.456 OA
BRANCH  13  14
ATOM     14  C   LIG A   1      -9.330  -2.889 123.996  0.00  0.00    +0.268 C 
BRANCH  14  15
ATOM     15  C   LIG A   1      -7.873  -2.913 123.643  0.00  0.00    -0.010 A 
ATOM     16  C   LIG A   1      -7.017  -3.830 124.247  0.00  0.00    +0.007 A 
ATOM     17  C   LIG A   1      -5.642  -3.661 124.178  0.00  0.00    +0.000 A 
ATOM     18  C   LIG A   1      -5.114  -2.720 123.307  0.00  0.00    +0.000 A 
ATOM     19  C   LIG A   1      -5.966  -1.973 122.494  0.00  0.00    +0.000 A 
ATOM     20  C   LIG A   1      -7.345  -2.049 122.678  0.00  0.00    +0.007 A 
ENDBRANCH  14  15
ENDBRANCH  13  14
ENDBRANCH   1  13
TORSDOF 6
ENDMDL
MODEL 5
REMARK VINA RESULT:      -6.4      7.015     10.449
REMARK  Name = NuBBE_2097
REMARK  8 active torsions:
REMARK  status: ('A' for Active; 'I' for Inactive)
REMARK    1  A    between atoms: C_1  and  O_3
REMARK    2  A    between atoms: C_1  and  C_11
REMARK    3  A    between atoms: O_3  and  C_4
REMARK    4  A    between atoms: C_4  and  C_5
REMARK    5  A    between atoms: C_12  and  O_13
REMARK    6  A    between atoms: O_13  and  C_14
REMARK    7  A    between atoms: C_18  and  O_19
REMARK    8  A    between atoms: O_19  and  C_20
REMARK                            x       y       z     vdW  Elec       q    Type
REMARK                         _______ _______ _______ _____ _____    ______ ____
ROOT
ATOM      1  C   LIG A   1      -9.049   5.892 129.719  0.00  0.00    +0.347 C 
ATOM      2  O   LIG A   1      -7.929   6.210 129.944  0.00  0.00    -0.245 OA
ENDROOT
BRANCH   1   3
ATOM      3  C   LIG A   1     -10.150   6.765 130.155  0.00  0.00    +0.142 A 
ATOM      4  C   LIG A   1     -10.668   7.752 129.292  0.00  0.00    +0.138 A 
ATOM      5  C   LIG A   1     -11.945   8.280 129.537  0.00  0.00    +0.046 A 
ATOM      6  C   LIG A   1     -12.690   7.876 130.638  0.00  0.00    +0.007 A 
ATOM      7  C   LIG A   1     -12.160   6.962 131.532  0.00  0.00    +0.046 A 
ATOM      8  C   LIG A   1     -10.883   6.407 131.331  0.00  0.00    +0.138 A 
BRANCH   4   9
ATOM      9  O   LIG A   1     -10.173   8.106 128.060  0.00  0.00    -0.494 OA
ATOM     10  C   LIG A   1     -10.951   7.702 126.931  0.00  0.00    +0.277 C 
ENDBRANCH   4   9
BRANCH   8  11
ATOM     11  O   LIG A   1     -10.396   5.471 132.215  0.00  0.00    -0.494 OA
ATOM     12  C   LIG A   1      -9.373   5.895 133.124  0.00  0.00    +0.277 C 
ENDBRANCH   8  11
ENDBRANCH   1   3
BRANCH   1  13
ATOM     13  O   LIG A   1      -9.337   4.740 129.043  0.00  0.00    -0.456 OA
BRANCH  13  14
ATOM     14  C   LIG A   1      -8.391   3.638 129.144  0.00  0.00    +0.268 C 
BRANCH  14  15
ATOM     15  C   LIG A   1      -8.742   2.445 129.982  0.00  0.00    -0.010 A 
ATOM     16  C   LIG A   1      -9.711   2.544 130.977  0.00  0.00    +0.007 A 
ATOM     17  C   LIG A   1      -9.819   1.566 131.954  0.00  0.00    +0.000 A 
ATOM     18  C   LIG A   1      -9.128   0.373 131.803  0.00  0.00    +0.000 A 
ATOM     19  C   LIG A   1      -8.354   0.159 130.663  0.00  0.00    +0.000 A 
ATOM     20  C   LIG A   1      -8.139   1.202 129.764  0.00  0.00    +0.007 A 
ENDBRANCH  14  15
ENDBRANCH  13  14
ENDBRANCH   1  13
TORSDOF 6
ENDMDL
MODEL 6
REMARK VINA RESULT:      -6.3      7.608     10.734
REMARK  Name = NuBBE_2097
REMARK  8 active torsions:
REMARK  status: ('A' for Active; 'I' for Inactive)
REMARK    1  A    between atoms: C_1  and  O_3
REMARK    2  A    between atoms: C_1  and  C_11
REMARK    3  A    between atoms: O_3  and  C_4
REMARK    4  A    between atoms: C_4  and  C_5
REMARK    5  A    between atoms: C_12  and  O_13
REMARK    6  A    between atoms: O_13  and  C_14
REMARK    7  A    between atoms: C_18  and  O_19
REMARK    8  A    between atoms: O_19  and  C_20
REMARK                            x       y       z     vdW  Elec       q    Type
REMARK                         _______ _______ _______ _____ _____    ______ ____
ROOT
ATOM      1  C   LIG A   1      -9.552   6.485 129.436  0.00  0.00    +0.347 C 
ATOM      2  O   LIG A   1      -8.619   7.084 129.857  0.00  0.00    -0.245 OA
ENDROOT
BRANCH   1   3
ATOM      3  C   LIG A   1     -10.907   7.021 129.639  0.00  0.00    +0.142 A 
ATOM      4  C   LIG A   1     -11.660   6.659 130.775  0.00  0.00    +0.138 A 
ATOM      5  C   LIG A   1     -12.738   7.465 131.172  0.00  0.00    +0.046 A 
ATOM      6  C   LIG A   1     -13.102   8.589 130.441  0.00  0.00    +0.007 A 
ATOM      7  C   LIG A   1     -12.415   8.912 129.284  0.00  0.00    +0.046 A 
ATOM      8  C   LIG A   1     -11.329   8.133 128.843  0.00  0.00    +0.138 A 
BRANCH   4   9
ATOM      9  O   LIG A   1     -11.319   5.722 131.720  0.00  0.00    -0.494 OA
ATOM     10  C   LIG A   1     -10.347   6.130 132.686  0.00  0.00    +0.277 C 
ENDBRANCH   4   9
BRANCH   8  11
ATOM     11  O   LIG A   1     -10.639   8.499 127.709  0.00  0.00    -0.494 OA
ATOM     12  C   LIG A   1     -10.985   7.834 126.487  0.00  0.00    +0.277 C 
ENDBRANCH   8  11
ENDBRANCH   1   3
BRANCH   1  13
ATOM     13  O   LIG A   1      -9.392   5.317 128.746  0.00  0.00    -0.456 OA
BRANCH  13  14
ATOM     14  C   LIG A   1      -8.363   4.394 129.200  0.00  0.00    +0.268 C 
BRANCH  14  15
ATOM     15  C   LIG A   1      -8.575   3.626 130.470  0.00  0.00    -0.010 A 
ATOM     16  C   LIG A   1      -9.635   2.730 130.582  0.00  0.00    +0.007 A 
ATOM     17  C   LIG A   1     -10.033   2.261 131.825  0.00  0.00    +0.000 A 
ATOM     18  C   LIG A   1      -9.227   2.492 132.930  0.00  0.00    +0.000 A 
ATOM     19  C   LIG A   1      -8.017   3.167 132.777  0.00  0.00    +0.000 A 
ATOM     20  C   LIG A   1      -7.701   3.757 131.554  0.00  0.00    +0.007 A 
ENDBRANCH  14  15
ENDBRANCH  13  14
ENDBRANCH   1  13
TORSDOF 6
ENDMDL
MODEL 7
REMARK VINA RESULT:      -6.3      7.787      9.868
REMARK  Name = NuBBE_2097
REMARK  8 active torsions:
REMARK  status: ('A' for Active; 'I' for Inactive)
REMARK    1  A    between atoms: C_1  and  O_3
REMARK    2  A    between atoms: C_1  and  C_11
REMARK    3  A    between atoms: O_3  and  C_4
REMARK    4  A    between atoms: C_4  and  C_5
REMARK    5  A    between atoms: C_12  and  O_13
REMARK    6  A    between atoms: O_13  and  C_14
REMARK    7  A    between atoms: C_18  and  O_19
REMARK    8  A    between atoms: O_19  and  C_20
REMARK                            x       y       z     vdW  Elec       q    Type
REMARK                         _______ _______ _______ _____ _____    ______ ____
ROOT
ATOM      1  C   LIG A   1      -9.273   6.201 131.517  0.00  0.00    +0.347 C 
ATOM      2  O   LIG A   1      -8.404   6.855 131.043  0.00  0.00    -0.245 OA
ENDROOT
BRANCH   1   3
ATOM      3  C   LIG A   1      -9.073   4.754 131.696  0.00  0.00    +0.142 A 
ATOM      4  C   LIG A   1      -8.945   4.202 132.986  0.00  0.00    +0.138 A 
ATOM      5  C   LIG A   1      -9.172   2.830 133.172  0.00  0.00    +0.046 A 
ATOM      6  C   LIG A   1      -9.478   2.000 132.101  0.00  0.00    +0.007 A 
ATOM      7  C   LIG A   1      -9.534   2.519 130.819  0.00  0.00    +0.046 A 
ATOM      8  C   LIG A   1      -9.312   3.889 130.581  0.00  0.00    +0.138 A 
BRANCH   4   9
ATOM      9  O   LIG A   1      -8.863   4.894 134.170  0.00  0.00    -0.494 OA
ATOM     10  C   LIG A   1      -7.680   4.676 134.943  0.00  0.00    +0.277 C 
ENDBRANCH   4   9
BRANCH   8  11
ATOM     11  O   LIG A   1      -9.411   4.386 129.301  0.00  0.00    -0.494 OA
ATOM     12  C   LIG A   1      -8.238   4.323 128.480  0.00  0.00    +0.277 C 
ENDBRANCH   8  11
ENDBRANCH   1   3
BRANCH   1  13
ATOM     13  O   LIG A   1     -10.448   6.769 131.921  0.00  0.00    -0.456 OA
BRANCH  13  14
ATOM     14  C   LIG A   1     -11.683   6.263 131.340  0.00  0.00    +0.268 C 
BRANCH  14  15
ATOM     15  C   LIG A   1     -12.339   7.027 130.229  0.00  0.00    -0.010 A 
ATOM     16  C   LIG A   1     -12.816   6.362 129.102  0.00  0.00    +0.007 A 
ATOM     17  C   LIG A   1     -13.127   7.065 127.949  0.00  0.00    +0.000 A 
ATOM     18  C   LIG A   1     -13.194   8.450 127.992  0.00  0.00    +0.000 A 
ATOM     19  C   LIG A   1     -12.975   9.117 129.196  0.00  0.00    +0.000 A 
ATOM     20  C   LIG A   1     -12.523   8.411 130.309  0.00  0.00    +0.007 A 
ENDBRANCH  14  15
ENDBRANCH  13  14
ENDBRANCH   1  13
TORSDOF 6
ENDMDL
MODEL 8
REMARK VINA RESULT:      -6.3      1.802      5.506
REMARK  Name = NuBBE_2097
REMARK  8 active torsions:
REMARK  status: ('A' for Active; 'I' for Inactive)
REMARK    1  A    between atoms: C_1  and  O_3
REMARK    2  A    between atoms: C_1  and  C_11
REMARK    3  A    between atoms: O_3  and  C_4
REMARK    4  A    between atoms: C_4  and  C_5
REMARK    5  A    between atoms: C_12  and  O_13
REMARK    6  A    between atoms: O_13  and  C_14
REMARK    7  A    between atoms: C_18  and  O_19
REMARK    8  A    between atoms: O_19  and  C_20
REMARK                            x       y       z     vdW  Elec       q    Type
REMARK                         _______ _______ _______ _____ _____    ______ ____
ROOT
ATOM      1  C   LIG A   1      -8.361   2.809 124.212  0.00  0.00    +0.347 C 
ATOM      2  O   LIG A   1      -9.074   3.400 124.954  0.00  0.00    -0.245 OA
ENDROOT
BRANCH   1   3
ATOM      3  C   LIG A   1      -7.371   3.551 123.417  0.00  0.00    +0.142 A 
ATOM      4  C   LIG A   1      -6.171   4.002 124.003  0.00  0.00    +0.138 A 
ATOM      5  C   LIG A   1      -5.082   4.324 123.180  0.00  0.00    +0.046 A 
ATOM      6  C   LIG A   1      -5.179   4.247 121.796  0.00  0.00    +0.007 A 
ATOM      7  C   LIG A   1      -6.375   3.876 121.208  0.00  0.00    +0.046 A 
ATOM      8  C   LIG A   1      -7.497   3.546 121.991  0.00  0.00    +0.138 A 
BRANCH   4   9
ATOM      9  O   LIG A   1      -5.833   3.935 125.333  0.00  0.00    -0.494 OA
ATOM     10  C   LIG A   1      -4.434   3.867 125.622  0.00  0.00    +0.277 C 
ENDBRANCH   4   9
BRANCH   8  11
ATOM     11  O   LIG A   1      -8.663   3.143 121.381  0.00  0.00    -0.494 OA
ATOM     12  C   LIG A   1      -9.077   3.865 120.213  0.00  0.00    +0.277 C 
ENDBRANCH   8  11
ENDBRANCH   1   3
BRANCH   1  13
ATOM     13  O   LIG A   1      -8.426   1.449 124.099  0.00  0.00    -0.456 OA
BRANCH  13  14
ATOM     14  C   LIG A   1      -7.549   0.654 124.946  0.00  0.00    +0.268 C 
BRANCH  14  15
ATOM     15  C   LIG A   1      -6.918  -0.587 124.389  0.00  0.00    -0.010 A 
ATOM     16  C   LIG A   1      -6.202  -1.446 125.218  0.00  0.00    +0.007 A 
ATOM     17  C   LIG A   1      -5.359  -2.405 124.678  0.00  0.00    +0.000 A 
ATOM     18  C   LIG A   1      -5.411  -2.671 123.318  0.00  0.00    +0.000 A 
ATOM     19  C   LIG A   1      -6.325  -1.992 122.514  0.00  0.00    +0.000 A 
ATOM     20  C   LIG A   1      -7.061  -0.933 123.041  0.00  0.00    +0.007 A 
ENDBRANCH  14  15
ENDBRANCH  13  14
ENDBRANCH   1  13
TORSDOF 6
ENDMDL
MODEL 9
REMARK VINA RESULT:      -6.3      2.228      6.092
REMARK  Name = NuBBE_2097
REMARK  8 active torsions:
REMARK  status: ('A' for Active; 'I' for Inactive)
REMARK    1  A    between atoms: C_1  and  O_3
REMARK    2  A    between atoms: C_1  and  C_11
REMARK    3  A    between atoms: O_3  and  C_4
REMARK    4  A    between atoms: C_4  and  C_5
REMARK    5  A    between atoms: C_12  and  O_13
REMARK    6  A    between atoms: O_13  and  C_14
REMARK    7  A    between atoms: C_18  and  O_19
REMARK    8  A    between atoms: O_19  and  C_20
REMARK                            x       y       z     vdW  Elec       q    Type
REMARK                         _______ _______ _______ _____ _____    ______ ____
ROOT
ATOM      1  C   LIG A   1      -8.215   3.004 124.869  0.00  0.00    +0.347 C 
ATOM      2  O   LIG A   1      -8.919   3.919 125.141  0.00  0.00    -0.245 OA
ENDROOT
BRANCH   1   3
ATOM      3  C   LIG A   1      -7.150   3.183 123.870  0.00  0.00    +0.142 A 
ATOM      4  C   LIG A   1      -7.452   3.200 122.494  0.00  0.00    +0.138 A 
ATOM      5  C   LIG A   1      -6.538   3.772 121.596  0.00  0.00    +0.046 A 
ATOM      6  C   LIG A   1      -5.322   4.282 122.035  0.00  0.00    +0.007 A 
ATOM      7  C   LIG A   1      -4.985   4.203 123.374  0.00  0.00    +0.046 A 
ATOM      8  C   LIG A   1      -5.867   3.637 124.313  0.00  0.00    +0.138 A 
BRANCH   4   9
ATOM      9  O   LIG A   1      -8.673   2.942 121.919  0.00  0.00    -0.494 OA
ATOM     10  C   LIG A   1      -8.964   3.656 120.715  0.00  0.00    +0.277 C 
ENDBRANCH   4   9
BRANCH   8  11
ATOM     11  O   LIG A   1      -5.522   3.606 125.645  0.00  0.00    -0.494 OA
ATOM     12  C   LIG A   1      -5.204   4.856 126.271  0.00  0.00    +0.277 C 
ENDBRANCH   8  11
ENDBRANCH   1   3
BRANCH   1  13
ATOM     13  O   LIG A   1      -8.360   1.792 125.483  0.00  0.00    -0.456 OA
BRANCH  13  14
ATOM     14  C   LIG A   1      -9.437   0.925 125.029  0.00  0.00    +0.268 C 
BRANCH  14  15
ATOM     15  C   LIG A   1      -9.135  -0.504 124.687  0.00  0.00    -0.010 A 
ATOM     16  C   LIG A   1      -8.787  -0.858 123.386  0.00  0.00    +0.007 A 
ATOM     17  C   LIG A   1      -8.818  -2.185 122.986  0.00  0.00    +0.000 A 
ATOM     18  C   LIG A   1      -8.959  -3.182 123.941  0.00  0.00    +0.000 A 
ATOM     19  C   LIG A   1      -9.042  -2.842 125.290  0.00  0.00    +0.000 A 
ATOM     20  C   LIG A   1      -9.156  -1.504 125.664  0.00  0.00    +0.007 A 
ENDBRANCH  14  15
ENDBRANCH  13  14
ENDBRANCH   1  13
TORSDOF 6
ENDMDL
