MODEL 1
REMARK VINA RESULT:      -7.2      0.000      0.000
REMARK  Name = NuBBE_2273
REMARK  6 active torsions:
REMARK  status: ('A' for Active; 'I' for Inactive)
REMARK    1  A    between atoms: C_1  and  C_17
REMARK    2  A    between atoms: C_4  and  C_7
REMARK    3  A    between atoms: C_10  and  C_13
REMARK    4  A    between atoms: C_13  and  C_14
REMARK    5  A    between atoms: C_13  and  C_15
REMARK    6  A    between atoms: C_13  and  O_16
REMARK                            x       y       z     vdW  Elec       q    Type
REMARK                         _______ _______ _______ _____ _____    ______ ____
ROOT
ATOM      1  C   LIG A   1      -7.764   4.261 119.662  0.00  0.00    -0.047 A 
ATOM      2  C   LIG A   1      -7.503   3.749 120.955  0.00  0.00    -0.041 A 
ATOM      3  C   LIG A   1      -6.256   4.006 121.572  0.00  0.00    -0.041 A 
ATOM      4  C   LIG A   1      -5.253   4.710 120.865  0.00  0.00    -0.047 A 
ATOM      5  C   LIG A   1      -5.526   5.193 119.580  0.00  0.00    +0.004 A 
ATOM      6  C   LIG A   1      -6.765   4.972 118.987  0.00  0.00    +0.004 A 
ATOM      7  C   LIG A   1      -3.900   4.983 121.466  0.00  0.00    +0.044 C 
ATOM      8  C   LIG A   1      -5.964   3.483 122.961  0.00  0.00    +0.036 C 
ATOM      9  C   LIG A   1      -7.208   3.083 123.751  0.00  0.00    +0.011 C 
ATOM     10  C   LIG A   1      -8.108   2.167 122.910  0.00  0.00    +0.025 C 
ATOM     11  C   LIG A   1      -8.586   2.976 121.686  0.00  0.00    +0.042 C 
ATOM     12  C   LIG A   1      -9.084   4.044 118.970  0.00  0.00    +0.044 C 
ENDROOT
BRANCH  10  13
ATOM     13  C   LIG A   1      -9.284   1.553 123.733  0.00  0.00    +0.064 C 
ATOM     14  C   LIG A   1     -10.418   1.034 122.838  0.00  0.00    +0.041 C 
ATOM     15  C   LIG A   1      -8.797   0.391 124.613  0.00  0.00    +0.041 C 
BRANCH  13  16
ATOM     16  O   LIG A   1      -9.832   2.529 124.622  0.00  0.00    -0.389 OA
ATOM     17  H   LIG A   1      -9.177   3.234 124.755  0.00  0.00    +0.210 HD
ENDBRANCH  13  16
ENDBRANCH  10  13
TORSDOF 2
ENDMDL
MODEL 2
REMARK VINA RESULT:      -7.0      0.946      3.068
REMARK  Name = NuBBE_2273
REMARK  6 active torsions:
REMARK  status: ('A' for Active; 'I' for Inactive)
REMARK    1  A    between atoms: C_1  and  C_17
REMARK    2  A    between atoms: C_4  and  C_7
REMARK    3  A    between atoms: C_10  and  C_13
REMARK    4  A    between atoms: C_13  and  C_14
REMARK    5  A    between atoms: C_13  and  C_15
REMARK    6  A    between atoms: C_13  and  O_16
REMARK                            x       y       z     vdW  Elec       q    Type
REMARK                         _______ _______ _______ _____ _____    ______ ____
ROOT
ATOM      1  C   LIG A   1      -5.360   4.575 120.948  0.00  0.00    -0.047 A 
ATOM      2  C   LIG A   1      -6.478   3.973 121.573  0.00  0.00    -0.041 A 
ATOM      3  C   LIG A   1      -7.680   3.804 120.846  0.00  0.00    -0.041 A 
ATOM      4  C   LIG A   1      -7.780   4.304 119.526  0.00  0.00    -0.047 A 
ATOM      5  C   LIG A   1      -6.668   4.913 118.934  0.00  0.00    +0.004 A 
ATOM      6  C   LIG A   1      -5.474   5.047 119.635  0.00  0.00    +0.004 A 
ATOM      7  C   LIG A   1      -9.047   4.176 118.721  0.00  0.00    +0.044 C 
ATOM      8  C   LIG A   1      -8.880   3.146 121.489  0.00  0.00    +0.036 C 
ATOM      9  C   LIG A   1      -8.550   2.330 122.737  0.00  0.00    +0.011 C 
ATOM     10  C   LIG A   1      -7.691   3.154 123.706  0.00  0.00    +0.025 C 
ATOM     11  C   LIG A   1      -6.355   3.465 122.998  0.00  0.00    +0.042 C 
ATOM     12  C   LIG A   1      -4.047   4.754 121.664  0.00  0.00    +0.044 C 
ENDROOT
BRANCH  10  13
ATOM     13  C   LIG A   1      -7.500   2.455 125.090  0.00  0.00    +0.064 C 
ATOM     14  C   LIG A   1      -7.683   0.933 125.008  0.00  0.00    +0.041 C 
ATOM     15  C   LIG A   1      -6.105   2.741 125.667  0.00  0.00    +0.041 C 
BRANCH  13  16
ATOM     16  O   LIG A   1      -8.442   2.964 126.037  0.00  0.00    -0.389 OA
ATOM     17  H   LIG A   1      -7.957   3.424 126.743  0.00  0.00    +0.210 HD
ENDBRANCH  13  16
ENDBRANCH  10  13
TORSDOF 2
ENDMDL
MODEL 3
REMARK VINA RESULT:      -6.7      9.158     11.052
REMARK  Name = NuBBE_2273
REMARK  6 active torsions:
REMARK  status: ('A' for Active; 'I' for Inactive)
REMARK    1  A    between atoms: C_1  and  C_17
REMARK    2  A    between atoms: C_4  and  C_7
REMARK    3  A    between atoms: C_10  and  C_13
REMARK    4  A    between atoms: C_13  and  C_14
REMARK    5  A    between atoms: C_13  and  C_15
REMARK    6  A    between atoms: C_13  and  O_16
REMARK                            x       y       z     vdW  Elec       q    Type
REMARK                         _______ _______ _______ _____ _____    ______ ____
ROOT
ATOM      1  C   LIG A   1      -6.585   6.687 131.504  0.00  0.00    -0.047 A 
ATOM      2  C   LIG A   1      -7.985   6.484 131.512  0.00  0.00    -0.041 A 
ATOM      3  C   LIG A   1      -8.582   5.749 132.563  0.00  0.00    -0.041 A 
ATOM      4  C   LIG A   1      -7.768   5.159 133.559  0.00  0.00    -0.047 A 
ATOM      5  C   LIG A   1      -6.383   5.357 133.523  0.00  0.00    +0.004 A 
ATOM      6  C   LIG A   1      -5.799   6.111 132.510  0.00  0.00    +0.004 A 
ATOM      7  C   LIG A   1      -8.351   4.343 134.682  0.00  0.00    +0.044 C 
ATOM      8  C   LIG A   1     -10.079   5.537 132.599  0.00  0.00    +0.036 C 
ATOM      9  C   LIG A   1     -10.867   6.505 131.720  0.00  0.00    +0.011 C 
ATOM     10  C   LIG A   1     -10.272   6.552 130.305  0.00  0.00    +0.025 C 
ATOM     11  C   LIG A   1      -8.837   7.106 130.420  0.00  0.00    +0.042 C 
ATOM     12  C   LIG A   1      -5.900   7.486 130.427  0.00  0.00    +0.044 C 
ENDROOT
BRANCH  10  13
ATOM     13  C   LIG A   1     -11.160   7.357 129.303  0.00  0.00    +0.064 C 
ATOM     14  C   LIG A   1     -12.299   8.112 130.003  0.00  0.00    +0.041 C 
ATOM     15  C   LIG A   1     -10.321   8.376 128.516  0.00  0.00    +0.041 C 
BRANCH  13  16
ATOM     16  O   LIG A   1     -11.739   6.478 128.336  0.00  0.00    -0.389 OA
ATOM     17  H   LIG A   1     -12.684   6.688 128.248  0.00  0.00    +0.210 HD
ENDBRANCH  13  16
ENDBRANCH  10  13
TORSDOF 2
ENDMDL
MODEL 4
REMARK VINA RESULT:      -6.7      5.897      8.746
REMARK  Name = NuBBE_2273
REMARK  6 active torsions:
REMARK  status: ('A' for Active; 'I' for Inactive)
REMARK    1  A    between atoms: C_1  and  C_17
REMARK    2  A    between atoms: C_4  and  C_7
REMARK    3  A    between atoms: C_10  and  C_13
REMARK    4  A    between atoms: C_13  and  C_14
REMARK    5  A    between atoms: C_13  and  C_15
REMARK    6  A    between atoms: C_13  and  O_16
REMARK                            x       y       z     vdW  Elec       q    Type
REMARK                         _______ _______ _______ _____ _____    ______ ____
ROOT
ATOM      1  C   LIG A   1      -8.449  -3.530 128.471  0.00  0.00    -0.047 A 
ATOM      2  C   LIG A   1      -7.855  -2.839 127.388  0.00  0.00    -0.041 A 
ATOM      3  C   LIG A   1      -6.603  -2.205 127.563  0.00  0.00    -0.041 A 
ATOM      4  C   LIG A   1      -5.988  -2.203 128.837  0.00  0.00    -0.047 A 
ATOM      5  C   LIG A   1      -6.600  -2.877 129.900  0.00  0.00    +0.004 A 
ATOM      6  C   LIG A   1      -7.814  -3.532 129.719  0.00  0.00    +0.004 A 
ATOM      7  C   LIG A   1      -4.670  -1.517 129.083  0.00  0.00    +0.044 C 
ATOM      8  C   LIG A   1      -5.943  -1.478 126.413  0.00  0.00    +0.036 C 
ATOM      9  C   LIG A   1      -6.489  -1.858 125.039  0.00  0.00    +0.011 C 
ATOM     10  C   LIG A   1      -8.023  -1.786 125.032  0.00  0.00    +0.025 C 
ATOM     11  C   LIG A   1      -8.544  -2.835 126.036  0.00  0.00    +0.042 C 
ATOM     12  C   LIG A   1      -9.765  -4.249 128.334  0.00  0.00    +0.044 C 
ENDROOT
BRANCH  10  13
ATOM     13  C   LIG A   1      -8.629  -1.954 123.602  0.00  0.00    +0.064 C 
ATOM     14  C   LIG A   1      -7.555  -1.952 122.506  0.00  0.00    +0.041 C 
ATOM     15  C   LIG A   1      -9.427  -3.263 123.490  0.00  0.00    +0.041 C 
BRANCH  13  16
ATOM     16  O   LIG A   1      -9.549  -0.896 123.324  0.00  0.00    -0.389 OA
ATOM     17  H   LIG A   1      -9.894  -1.010 122.423  0.00  0.00    +0.210 HD
ENDBRANCH  13  16
ENDBRANCH  10  13
TORSDOF 2
ENDMDL
MODEL 5
REMARK VINA RESULT:      -6.6      2.619      6.643
REMARK  Name = NuBBE_2273
REMARK  6 active torsions:
REMARK  status: ('A' for Active; 'I' for Inactive)
REMARK    1  A    between atoms: C_1  and  C_17
REMARK    2  A    between atoms: C_4  and  C_7
REMARK    3  A    between atoms: C_10  and  C_13
REMARK    4  A    between atoms: C_13  and  C_14
REMARK    5  A    between atoms: C_13  and  C_15
REMARK    6  A    between atoms: C_13  and  O_16
REMARK                            x       y       z     vdW  Elec       q    Type
REMARK                         _______ _______ _______ _____ _____    ______ ____
ROOT
ATOM      1  C   LIG A   1      -6.400  -1.441 125.185  0.00  0.00    -0.047 A 
ATOM      2  C   LIG A   1      -7.289  -0.663 124.406  0.00  0.00    -0.041 A 
ATOM      3  C   LIG A   1      -8.405  -1.279 123.791  0.00  0.00    -0.041 A 
ATOM      4  C   LIG A   1      -8.582  -2.678 123.896  0.00  0.00    -0.047 A 
ATOM      5  C   LIG A   1      -7.680  -3.432 124.656  0.00  0.00    +0.004 A 
ATOM      6  C   LIG A   1      -6.604  -2.822 125.292  0.00  0.00    +0.004 A 
ATOM      7  C   LIG A   1      -9.735  -3.386 123.235  0.00  0.00    +0.044 C 
ATOM      8  C   LIG A   1      -9.377  -0.462 122.970  0.00  0.00    +0.036 C 
ATOM      9  C   LIG A   1      -9.307   1.040 123.233  0.00  0.00    +0.011 C 
ATOM     10  C   LIG A   1      -7.854   1.531 123.159  0.00  0.00    +0.025 C 
ATOM     11  C   LIG A   1      -7.066   0.834 124.288  0.00  0.00    +0.042 C 
ATOM     12  C   LIG A   1      -5.214  -0.833 125.887  0.00  0.00    +0.044 C 
ENDROOT
BRANCH  10  13
ATOM     13  C   LIG A   1      -7.738   3.088 123.205  0.00  0.00    +0.064 C 
ATOM     14  C   LIG A   1      -8.111   3.663 124.579  0.00  0.00    +0.041 C 
ATOM     15  C   LIG A   1      -6.313   3.549 122.863  0.00  0.00    +0.041 C 
BRANCH  13  16
ATOM     16  O   LIG A   1      -8.599   3.680 122.229  0.00  0.00    -0.389 OA
ATOM     17  H   LIG A   1      -8.547   4.647 122.312  0.00  0.00    +0.210 HD
ENDBRANCH  13  16
ENDBRANCH  10  13
TORSDOF 2
ENDMDL
MODEL 6
REMARK VINA RESULT:      -6.5      8.640     10.300
REMARK  Name = NuBBE_2273
REMARK  6 active torsions:
REMARK  status: ('A' for Active; 'I' for Inactive)
REMARK    1  A    between atoms: C_1  and  C_17
REMARK    2  A    between atoms: C_4  and  C_7
REMARK    3  A    between atoms: C_10  and  C_13
REMARK    4  A    between atoms: C_13  and  C_14
REMARK    5  A    between atoms: C_13  and  C_15
REMARK    6  A    between atoms: C_13  and  O_16
REMARK                            x       y       z     vdW  Elec       q    Type
REMARK                         _______ _______ _______ _____ _____    ______ ____
ROOT
ATOM      1  C   LIG A   1     -12.389   7.822 130.510  0.00  0.00    -0.047 A 
ATOM      2  C   LIG A   1     -11.265   6.966 130.428  0.00  0.00    -0.041 A 
ATOM      3  C   LIG A   1     -10.612   6.782 129.186  0.00  0.00    -0.041 A 
ATOM      4  C   LIG A   1     -11.132   7.395 128.022  0.00  0.00    -0.047 A 
ATOM      5  C   LIG A   1     -12.255   8.223 128.121  0.00  0.00    +0.004 A 
ATOM      6  C   LIG A   1     -12.876   8.434 129.349  0.00  0.00    +0.004 A 
ATOM      7  C   LIG A   1     -10.492   7.206 126.672  0.00  0.00    +0.044 C 
ATOM      8  C   LIG A   1      -9.398   5.887 129.083  0.00  0.00    +0.036 C 
ATOM      9  C   LIG A   1      -8.722   5.595 130.420  0.00  0.00    +0.011 C 
ATOM     10  C   LIG A   1      -9.756   5.133 131.456  0.00  0.00    +0.025 C 
ATOM     11  C   LIG A   1     -10.739   6.300 131.687  0.00  0.00    +0.042 C 
ATOM     12  C   LIG A   1     -13.104   8.078 131.810  0.00  0.00    +0.044 C 
ENDROOT
BRANCH  10  13
ATOM     13  C   LIG A   1      -9.101   4.616 132.776  0.00  0.00    +0.064 C 
ATOM     14  C   LIG A   1      -8.183   3.408 132.541  0.00  0.00    +0.041 C 
ATOM     15  C   LIG A   1      -8.276   5.721 133.455  0.00  0.00    +0.041 C 
BRANCH  13  16
ATOM     16  O   LIG A   1     -10.109   4.231 133.714  0.00  0.00    -0.389 OA
ATOM     17  H   LIG A   1     -10.719   3.611 133.281  0.00  0.00    +0.210 HD
ENDBRANCH  13  16
ENDBRANCH  10  13
TORSDOF 2
ENDMDL
MODEL 7
REMARK VINA RESULT:      -6.4      3.203      7.173
REMARK  Name = NuBBE_2273
REMARK  6 active torsions:
REMARK  status: ('A' for Active; 'I' for Inactive)
REMARK    1  A    between atoms: C_1  and  C_17
REMARK    2  A    between atoms: C_4  and  C_7
REMARK    3  A    between atoms: C_10  and  C_13
REMARK    4  A    between atoms: C_13  and  C_14
REMARK    5  A    between atoms: C_13  and  C_15
REMARK    6  A    between atoms: C_13  and  O_16
REMARK                            x       y       z     vdW  Elec       q    Type
REMARK                         _______ _______ _______ _____ _____    ______ ____
ROOT
ATOM      1  C   LIG A   1      -8.833  -2.463 124.659  0.00  0.00    -0.047 A 
ATOM      2  C   LIG A   1      -8.545  -1.241 125.311  0.00  0.00    -0.041 A 
ATOM      3  C   LIG A   1      -8.210  -1.242 126.686  0.00  0.00    -0.041 A 
ATOM      4  C   LIG A   1      -8.237  -2.453 127.415  0.00  0.00    -0.047 A 
ATOM      5  C   LIG A   1      -8.542  -3.649 126.755  0.00  0.00    +0.004 A 
ATOM      6  C   LIG A   1      -8.837  -3.654 125.395  0.00  0.00    +0.004 A 
ATOM      7  C   LIG A   1      -7.918  -2.503 128.886  0.00  0.00    +0.044 C 
ATOM      8  C   LIG A   1      -7.880   0.052 127.396  0.00  0.00    +0.036 C 
ATOM      9  C   LIG A   1      -7.519   1.203 126.461  0.00  0.00    +0.011 C 
ATOM     10  C   LIG A   1      -8.571   1.345 125.352  0.00  0.00    +0.025 C 
ATOM     11  C   LIG A   1      -8.544   0.051 124.513  0.00  0.00    +0.042 C 
ATOM     12  C   LIG A   1      -9.167  -2.525 123.192  0.00  0.00    +0.044 C 
ENDROOT
BRANCH  10  13
ATOM     13  C   LIG A   1      -8.374   2.635 124.492  0.00  0.00    +0.064 C 
ATOM     14  C   LIG A   1      -6.899   3.045 124.380  0.00  0.00    +0.041 C 
ATOM     15  C   LIG A   1      -8.928   2.443 123.072  0.00  0.00    +0.041 C 
BRANCH  13  16
ATOM     16  O   LIG A   1      -9.096   3.728 125.063  0.00  0.00    -0.389 OA
ATOM     17  H   LIG A   1      -9.638   3.396 125.798  0.00  0.00    +0.210 HD
ENDBRANCH  13  16
ENDBRANCH  10  13
TORSDOF 2
ENDMDL
MODEL 8
REMARK VINA RESULT:      -6.3      5.822      8.282
REMARK  Name = NuBBE_2273
REMARK  6 active torsions:
REMARK  status: ('A' for Active; 'I' for Inactive)
REMARK    1  A    between atoms: C_1  and  C_17
REMARK    2  A    between atoms: C_4  and  C_7
REMARK    3  A    between atoms: C_10  and  C_13
REMARK    4  A    between atoms: C_13  and  C_14
REMARK    5  A    between atoms: C_13  and  C_15
REMARK    6  A    between atoms: C_13  and  O_16
REMARK                            x       y       z     vdW  Elec       q    Type
REMARK                         _______ _______ _______ _____ _____    ______ ____
ROOT
ATOM      1  C   LIG A   1      -7.889   0.500 128.048  0.00  0.00    -0.047 A 
ATOM      2  C   LIG A   1      -8.081  -0.730 127.376  0.00  0.00    -0.041 A 
ATOM      3  C   LIG A   1      -8.028  -1.942 128.103  0.00  0.00    -0.041 A 
ATOM      4  C   LIG A   1      -7.708  -1.922 129.481  0.00  0.00    -0.047 A 
ATOM      5  C   LIG A   1      -7.504  -0.696 130.123  0.00  0.00    +0.004 A 
ATOM      6  C   LIG A   1      -7.593   0.499 129.417  0.00  0.00    +0.004 A 
ATOM      7  C   LIG A   1      -7.609  -3.187 130.292  0.00  0.00    +0.044 C 
ATOM      8  C   LIG A   1      -8.249  -3.266 127.406  0.00  0.00    +0.036 C 
ATOM      9  C   LIG A   1      -8.940  -3.148 126.049  0.00  0.00    +0.011 C 
ATOM     10  C   LIG A   1      -8.244  -2.090 125.182  0.00  0.00    +0.025 C 
ATOM     11  C   LIG A   1      -8.400  -0.729 125.892  0.00  0.00    +0.042 C 
ATOM     12  C   LIG A   1      -7.965   1.822 127.332  0.00  0.00    +0.044 C 
ENDROOT
BRANCH  10  13
ATOM     13  C   LIG A   1      -8.768  -2.074 123.710  0.00  0.00    +0.064 C 
ATOM     14  C   LIG A   1      -7.630  -1.974 122.684  0.00  0.00    +0.041 C 
ATOM     15  C   LIG A   1      -9.584  -3.339 123.399  0.00  0.00    +0.041 C 
BRANCH  13  16
ATOM     16  O   LIG A   1      -9.647  -0.966 123.507  0.00  0.00    -0.389 OA
ATOM     17  H   LIG A   1     -10.139  -1.104 122.680  0.00  0.00    +0.210 HD
ENDBRANCH  13  16
ENDBRANCH  10  13
TORSDOF 2
ENDMDL
MODEL 9
REMARK VINA RESULT:      -6.1      7.924      9.667
REMARK  Name = NuBBE_2273
REMARK  6 active torsions:
REMARK  status: ('A' for Active; 'I' for Inactive)
REMARK    1  A    between atoms: C_1  and  C_17
REMARK    2  A    between atoms: C_4  and  C_7
REMARK    3  A    between atoms: C_10  and  C_13
REMARK    4  A    between atoms: C_13  and  C_14
REMARK    5  A    between atoms: C_13  and  C_15
REMARK    6  A    between atoms: C_13  and  O_16
REMARK                            x       y       z     vdW  Elec       q    Type
REMARK                         _______ _______ _______ _____ _____    ______ ____
ROOT
ATOM      1  C   LIG A   1     -11.265   7.692 127.924  0.00  0.00    -0.047 A 
ATOM      2  C   LIG A   1     -10.755   6.946 129.012  0.00  0.00    -0.041 A 
ATOM      3  C   LIG A   1     -11.363   7.056 130.285  0.00  0.00    -0.041 A 
ATOM      4  C   LIG A   1     -12.429   7.966 130.478  0.00  0.00    -0.047 A 
ATOM      5  C   LIG A   1     -12.908   8.708 129.392  0.00  0.00    +0.004 A 
ATOM      6  C   LIG A   1     -12.334   8.573 128.132  0.00  0.00    +0.004 A 
ATOM      7  C   LIG A   1     -13.091   8.142 131.819  0.00  0.00    +0.044 C 
ATOM      8  C   LIG A   1     -10.844   6.253 131.456  0.00  0.00    +0.036 C 
ATOM      9  C   LIG A   1      -9.973   5.063 131.060  0.00  0.00    +0.011 C 
ATOM     10  C   LIG A   1      -8.887   5.500 130.066  0.00  0.00    +0.025 C 
ATOM     11  C   LIG A   1      -9.595   5.993 128.787  0.00  0.00    +0.042 C 
ATOM     12  C   LIG A   1     -10.677   7.592 126.542  0.00  0.00    +0.044 C 
ENDROOT
BRANCH  10  13
ATOM     13  C   LIG A   1      -7.835   4.380 129.789  0.00  0.00    +0.064 C 
ATOM     14  C   LIG A   1      -6.936   4.106 131.003  0.00  0.00    +0.041 C 
ATOM     15  C   LIG A   1      -8.520   3.063 129.392  0.00  0.00    +0.041 C 
BRANCH  13  16
ATOM     16  O   LIG A   1      -6.996   4.745 128.690  0.00  0.00    -0.389 OA
ATOM     17  H   LIG A   1      -7.337   4.325 127.883  0.00  0.00    +0.210 HD
ENDBRANCH  13  16
ENDBRANCH  10  13
TORSDOF 2
ENDMDL
