MODEL 1
REMARK VINA RESULT:      -8.5      0.000      0.000
REMARK  Name = NuBBE_1191
REMARK  10 active torsions:
REMARK  status: ('A' for Active; 'I' for Inactive)
REMARK    1  A    between atoms: O_1  and  C_2
REMARK    2  A    between atoms: C_2  and  C_3
REMARK    3  A    between atoms: C_2  and  C_6
REMARK    4  A    between atoms: C_3  and  C_4
REMARK    5  A    between atoms: C_6  and  O_7
REMARK    6  A    between atoms: O_7  and  C_8
REMARK    7  A    between atoms: C_10  and  C_11
REMARK    8  A    between atoms: C_19  and  C_23
REMARK    9  A    between atoms: C_34  and  O_35
REMARK   10  A    between atoms: O_35  and  C_36
REMARK                            x       y       z     vdW  Elec       q    Type
REMARK                         _______ _______ _______ _____ _____    ______ ____
ROOT
ATOM      1  C   LIG A   1      -7.706   1.753 126.947  0.00  0.00    +0.154 C 
ATOM      2  C   LIG A   1      -7.870   3.106 126.242  0.00  0.00    +0.056 C 
ATOM      3  C   LIG A   1      -8.337   2.711 124.863  0.00  0.00    +0.056 C 
ATOM      4  C   LIG A   1      -9.133   1.457 125.126  0.00  0.00    +0.167 C 
ATOM      5  O   LIG A   1      -8.521   0.800 126.239  0.00  0.00    -0.371 OA
ATOM      6  C   LIG A   1      -7.031   2.474 124.092  0.00  0.00    +0.154 C 
ATOM      7  O   LIG A   1      -5.980   3.131 124.839  0.00  0.00    -0.371 OA
ATOM      8  C   LIG A   1      -6.564   3.808 125.958  0.00  0.00    +0.167 C 
ENDROOT
BRANCH   6   9
ATOM      9  C   LIG A   1      -7.088   3.017 122.675  0.00  0.00    -0.015 A 
ATOM     10  C   LIG A   1      -8.328   3.157 122.024  0.00  0.00    +0.055 A 
ATOM     11  C   LIG A   1      -8.340   3.683 120.746  0.00  0.00    +0.167 A 
ATOM     12  C   LIG A   1      -7.186   4.068 120.108  0.00  0.00    +0.166 A 
ATOM     13  O   LIG A   1      -7.418   4.565 118.863  0.00  0.00    -0.453 OA
ATOM     14  C   LIG A   1      -8.855   4.465 118.798  0.00  0.00    +0.466 C 
ATOM     15  O   LIG A   1      -9.446   3.887 119.981  0.00  0.00    -0.453 OA
ATOM     16  C   LIG A   1      -5.953   3.948 120.706  0.00  0.00    +0.050 A 
ATOM     17  C   LIG A   1      -5.910   3.421 122.000  0.00  0.00    +0.010 A 
ENDBRANCH   6   9
BRANCH   1  20
ATOM     18  C   LIG A   1      -9.402   2.759 130.217  0.00  0.00    +0.162 A 
ATOM     19  C   LIG A   1      -9.036   2.666 128.868  0.00  0.00    +0.055 A 
ATOM     20  C   LIG A   1      -8.061   1.761 128.420  0.00  0.00    -0.015 A 
ATOM     21  C   LIG A   1      -7.456   0.923 129.361  0.00  0.00    +0.010 A 
ATOM     22  C   LIG A   1      -7.789   1.026 130.718  0.00  0.00    +0.050 A 
ATOM     23  C   LIG A   1      -8.738   1.958 131.160  0.00  0.00    +0.162 A 
BRANCH  23  24
ATOM     24  O   LIG A   1      -8.987   1.923 132.511  0.00  0.00    -0.491 OA
ATOM     25  C   LIG A   1      -8.149   2.723 133.344  0.00  0.00    +0.277 C 
ENDBRANCH  23  24
BRANCH  18  26
ATOM     26  O   LIG A   1     -10.413   3.556 130.665  0.00  0.00    -0.485 OA
BRANCH  26  27
ATOM     27  C   LIG A   1     -10.200   4.942 130.905  0.00  0.00    +0.265 C 
BRANCH  27  28
ATOM     28  C   LIG A   1     -11.488   5.768 130.731  0.00  0.00    +0.177 C 
BRANCH  28  29
ATOM     29  C   LIG A   1     -11.348   7.065 129.945  0.00  0.00    -0.048 C 
ATOM     30  C   LIG A   1     -12.611   7.772 129.524  0.00  0.00    +0.041 C 
ATOM     31  C   LIG A   1     -10.153   7.567 129.627  0.00  0.00    +0.010 C 
ENDBRANCH  28  29
BRANCH  28  32
ATOM     32  O   LIG A   1     -12.006   6.069 132.026  0.00  0.00    -0.384 OA
ATOM     33  H   LIG A   1     -12.475   6.916 131.944  0.00  0.00    +0.210 HD
ENDBRANCH  28  32
ENDBRANCH  27  28
ENDBRANCH  26  27
ENDBRANCH  18  26
ENDBRANCH   1  20
TORSDOF 8
ENDMDL
MODEL 2
REMARK VINA RESULT:      -8.2      5.674     10.515
REMARK  Name = NuBBE_1191
REMARK  10 active torsions:
REMARK  status: ('A' for Active; 'I' for Inactive)
REMARK    1  A    between atoms: O_1  and  C_2
REMARK    2  A    between atoms: C_2  and  C_3
REMARK    3  A    between atoms: C_2  and  C_6
REMARK    4  A    between atoms: C_3  and  C_4
REMARK    5  A    between atoms: C_6  and  O_7
REMARK    6  A    between atoms: O_7  and  C_8
REMARK    7  A    between atoms: C_10  and  C_11
REMARK    8  A    between atoms: C_19  and  C_23
REMARK    9  A    between atoms: C_34  and  O_35
REMARK   10  A    between atoms: O_35  and  C_36
REMARK                            x       y       z     vdW  Elec       q    Type
REMARK                         _______ _______ _______ _____ _____    ______ ____
ROOT
ATOM      1  C   LIG A   1      -3.577   4.219 128.069  0.00  0.00    +0.154 C 
ATOM      2  C   LIG A   1      -4.272   4.991 129.198  0.00  0.00    +0.056 C 
ATOM      3  C   LIG A   1      -3.333   6.145 129.445  0.00  0.00    +0.056 C 
ATOM      4  C   LIG A   1      -2.752   6.401 128.076  0.00  0.00    +0.167 C 
ATOM      5  O   LIG A   1      -2.688   5.138 127.408  0.00  0.00    -0.371 OA
ATOM      6  C   LIG A   1      -2.326   5.582 130.458  0.00  0.00    +0.154 C 
ATOM      7  O   LIG A   1      -2.938   4.412 131.049  0.00  0.00    -0.371 OA
ATOM      8  C   LIG A   1      -4.263   4.271 130.525  0.00  0.00    +0.167 C 
ENDROOT
BRANCH   6   9
ATOM      9  C   LIG A   1      -1.965   6.589 131.536  0.00  0.00    -0.015 A 
ATOM     10  C   LIG A   1      -0.792   6.419 132.294  0.00  0.00    +0.055 A 
ATOM     11  C   LIG A   1      -0.483   7.373 133.245  0.00  0.00    +0.167 A 
ATOM     12  C   LIG A   1      -1.284   8.469 133.462  0.00  0.00    +0.166 A 
ATOM     13  O   LIG A   1      -0.798   9.287 134.433  0.00  0.00    -0.453 OA
ATOM     14  C   LIG A   1       0.411   8.589 134.792  0.00  0.00    +0.466 C 
ATOM     15  O   LIG A   1       0.608   7.362 134.057  0.00  0.00    -0.453 OA
ATOM     16  C   LIG A   1      -2.439   8.674 132.744  0.00  0.00    +0.050 A 
ATOM     17  C   LIG A   1      -2.776   7.726 131.773  0.00  0.00    +0.010 A 
ENDBRANCH   6   9
BRANCH   1  20
ATOM     18  C   LIG A   1      -5.797   3.821 124.988  0.00  0.00    +0.162 A 
ATOM     19  C   LIG A   1      -4.908   4.326 125.946  0.00  0.00    +0.055 A 
ATOM     20  C   LIG A   1      -4.517   3.579 127.068  0.00  0.00    -0.015 A 
ATOM     21  C   LIG A   1      -5.029   2.287 127.212  0.00  0.00    +0.010 A 
ATOM     22  C   LIG A   1      -5.943   1.779 126.279  0.00  0.00    +0.050 A 
ATOM     23  C   LIG A   1      -6.355   2.547 125.181  0.00  0.00    +0.162 A 
BRANCH  23  24
ATOM     24  O   LIG A   1      -7.228   1.909 124.333  0.00  0.00    -0.491 OA
ATOM     25  C   LIG A   1      -7.376   0.499 124.499  0.00  0.00    +0.277 C 
ENDBRANCH  23  24
BRANCH  18  26
ATOM     26  O   LIG A   1      -6.115   4.483 123.840  0.00  0.00    -0.485 OA
BRANCH  26  27
ATOM     27  C   LIG A   1      -5.370   4.276 122.646  0.00  0.00    +0.265 C 
BRANCH  27  28
ATOM     28  C   LIG A   1      -6.238   3.700 121.511  0.00  0.00    +0.177 C 
BRANCH  28  29
ATOM     29  C   LIG A   1      -6.214   4.470 120.197  0.00  0.00    -0.048 C 
ATOM     30  C   LIG A   1      -7.398   4.326 119.276  0.00  0.00    +0.041 C 
ATOM     31  C   LIG A   1      -5.181   5.244 119.856  0.00  0.00    +0.010 C 
ENDBRANCH  28  29
BRANCH  28  32
ATOM     32  O   LIG A   1      -7.586   3.622 121.973  0.00  0.00    -0.384 OA
ATOM     33  H   LIG A   1      -8.069   3.089 121.320  0.00  0.00    +0.210 HD
ENDBRANCH  28  32
ENDBRANCH  27  28
ENDBRANCH  26  27
ENDBRANCH  18  26
ENDBRANCH   1  20
TORSDOF 8
ENDMDL
MODEL 3
REMARK VINA RESULT:      -8.0      4.819      8.480
REMARK  Name = NuBBE_1191
REMARK  10 active torsions:
REMARK  status: ('A' for Active; 'I' for Inactive)
REMARK    1  A    between atoms: O_1  and  C_2
REMARK    2  A    between atoms: C_2  and  C_3
REMARK    3  A    between atoms: C_2  and  C_6
REMARK    4  A    between atoms: C_3  and  C_4
REMARK    5  A    between atoms: C_6  and  O_7
REMARK    6  A    between atoms: O_7  and  C_8
REMARK    7  A    between atoms: C_10  and  C_11
REMARK    8  A    between atoms: C_19  and  C_23
REMARK    9  A    between atoms: C_34  and  O_35
REMARK   10  A    between atoms: O_35  and  C_36
REMARK                            x       y       z     vdW  Elec       q    Type
REMARK                         _______ _______ _______ _____ _____    ______ ____
ROOT
ATOM      1  C   LIG A   1      -7.435   1.126 130.604  0.00  0.00    +0.154 C 
ATOM      2  C   LIG A   1      -8.903   1.493 130.353  0.00  0.00    +0.056 C 
ATOM      3  C   LIG A   1      -8.802   2.837 129.675  0.00  0.00    +0.056 C 
ATOM      4  C   LIG A   1      -7.505   2.729 128.911  0.00  0.00    +0.167 C 
ATOM      5  O   LIG A   1      -6.639   1.888 129.678  0.00  0.00    -0.371 OA
ATOM      6  C   LIG A   1      -8.759   3.831 130.845  0.00  0.00    +0.154 C 
ATOM      7  O   LIG A   1      -9.263   3.131 132.006  0.00  0.00    -0.371 OA
ATOM      8  C   LIG A   1      -9.675   1.818 131.609  0.00  0.00    +0.167 C 
ENDROOT
BRANCH   6   9
ATOM      9  C   LIG A   1      -9.590   5.074 130.578  0.00  0.00    -0.015 A 
ATOM     10  C   LIG A   1      -9.435   5.779 129.370  0.00  0.00    +0.055 A 
ATOM     11  C   LIG A   1     -10.230   6.888 129.153  0.00  0.00    +0.167 A 
ATOM     12  C   LIG A   1     -11.156   7.310 130.077  0.00  0.00    +0.166 A 
ATOM     13  O   LIG A   1     -11.838   8.413 129.667  0.00  0.00    -0.453 OA
ATOM     14  C   LIG A   1     -11.247   8.627 128.369  0.00  0.00    +0.466 C 
ATOM     15  O   LIG A   1     -10.210   7.676 128.045  0.00  0.00    -0.453 OA
ATOM     16  C   LIG A   1     -11.340   6.652 131.270  0.00  0.00    +0.050 A 
ATOM     17  C   LIG A   1     -10.551   5.525 131.517  0.00  0.00    +0.010 A 
ENDBRANCH   6   9
BRANCH   1  20
ATOM     18  C   LIG A   1      -7.377  -2.414 129.173  0.00  0.00    +0.162 A 
ATOM     19  C   LIG A   1      -7.596  -1.041 129.352  0.00  0.00    +0.055 A 
ATOM     20  C   LIG A   1      -7.123  -0.352 130.479  0.00  0.00    -0.015 A 
ATOM     21  C   LIG A   1      -6.400  -1.068 131.437  0.00  0.00    +0.010 A 
ATOM     22  C   LIG A   1      -6.200  -2.447 131.288  0.00  0.00    +0.050 A 
ATOM     23  C   LIG A   1      -6.708  -3.133 130.176  0.00  0.00    +0.162 A 
BRANCH  23  24
ATOM     24  O   LIG A   1      -6.406  -4.474 130.146  0.00  0.00    -0.491 OA
ATOM     25  C   LIG A   1      -5.451  -4.943 131.097  0.00  0.00    +0.277 C 
ENDBRANCH  23  24
BRANCH  18  26
ATOM     26  O   LIG A   1      -7.737  -3.088 128.044  0.00  0.00    -0.485 OA
BRANCH  26  27
ATOM     27  C   LIG A   1      -8.152  -2.389 126.877  0.00  0.00    +0.265 C 
BRANCH  27  28
ATOM     28  C   LIG A   1      -8.900  -3.302 125.887  0.00  0.00    +0.177 C 
BRANCH  28  29
ATOM     29  C   LIG A   1      -8.349  -3.341 124.468  0.00  0.00    -0.048 C 
ATOM     30  C   LIG A   1      -6.864  -3.532 124.294  0.00  0.00    +0.041 C 
ATOM     31  C   LIG A   1      -9.143  -3.204 123.403  0.00  0.00    +0.010 C 
ENDBRANCH  28  29
BRANCH  28  32
ATOM     32  O   LIG A   1     -10.265  -2.887 125.839  0.00  0.00    -0.384 OA
ATOM     33  H   LIG A   1     -10.730  -3.538 125.286  0.00  0.00    +0.210 HD
ENDBRANCH  28  32
ENDBRANCH  27  28
ENDBRANCH  26  27
ENDBRANCH  18  26
ENDBRANCH   1  20
TORSDOF 8
ENDMDL
MODEL 4
REMARK VINA RESULT:      -8.0      2.703      4.233
REMARK  Name = NuBBE_1191
REMARK  10 active torsions:
REMARK  status: ('A' for Active; 'I' for Inactive)
REMARK    1  A    between atoms: O_1  and  C_2
REMARK    2  A    between atoms: C_2  and  C_3
REMARK    3  A    between atoms: C_2  and  C_6
REMARK    4  A    between atoms: C_3  and  C_4
REMARK    5  A    between atoms: C_6  and  O_7
REMARK    6  A    between atoms: O_7  and  C_8
REMARK    7  A    between atoms: C_10  and  C_11
REMARK    8  A    between atoms: C_19  and  C_23
REMARK    9  A    between atoms: C_34  and  O_35
REMARK   10  A    between atoms: O_35  and  C_36
REMARK                            x       y       z     vdW  Elec       q    Type
REMARK                         _______ _______ _______ _____ _____    ______ ____
ROOT
ATOM      1  C   LIG A   1      -8.434   0.455 125.983  0.00  0.00    +0.154 C 
ATOM      2  C   LIG A   1      -7.511   0.326 124.764  0.00  0.00    +0.056 C 
ATOM      3  C   LIG A   1      -7.282   1.762 124.363  0.00  0.00    +0.056 C 
ATOM      4  C   LIG A   1      -7.334   2.490 125.683  0.00  0.00    +0.167 C 
ATOM      5  O   LIG A   1      -8.259   1.782 126.513  0.00  0.00    -0.371 OA
ATOM      6  C   LIG A   1      -8.461   2.070 123.430  0.00  0.00    +0.154 C 
ATOM      7  O   LIG A   1      -8.999   0.798 123.001  0.00  0.00    -0.371 OA
ATOM      8  C   LIG A   1      -8.189  -0.251 123.544  0.00  0.00    +0.167 C 
ENDROOT
BRANCH   6   9
ATOM      9  C   LIG A   1      -8.046   2.899 122.226  0.00  0.00    -0.015 A 
ATOM     10  C   LIG A   1      -6.712   3.324 122.090  0.00  0.00    +0.055 A 
ATOM     11  C   LIG A   1      -6.368   4.050 120.966  0.00  0.00    +0.167 A 
ATOM     12  C   LIG A   1      -7.286   4.359 119.991  0.00  0.00    +0.166 A 
ATOM     13  O   LIG A   1      -6.743   5.071 118.968  0.00  0.00    -0.453 OA
ATOM     14  C   LIG A   1      -5.371   5.161 119.402  0.00  0.00    +0.466 C 
ATOM     15  O   LIG A   1      -5.129   4.533 120.679  0.00  0.00    -0.453 OA
ATOM     16  C   LIG A   1      -8.601   3.964 120.084  0.00  0.00    +0.050 A 
ATOM     17  C   LIG A   1      -8.977   3.226 121.210  0.00  0.00    +0.010 A 
ENDBRANCH   6   9
BRANCH   1  20
ATOM     18  C   LIG A   1      -7.422  -1.052 129.342  0.00  0.00    +0.162 A 
ATOM     19  C   LIG A   1      -7.692  -0.156 128.299  0.00  0.00    +0.055 A 
ATOM     20  C   LIG A   1      -8.203  -0.582 127.063  0.00  0.00    -0.015 A 
ATOM     21  C   LIG A   1      -8.458  -1.944 126.888  0.00  0.00    +0.010 A 
ATOM     22  C   LIG A   1      -8.163  -2.857 127.909  0.00  0.00    +0.050 A 
ATOM     23  C   LIG A   1      -7.620  -2.426 129.128  0.00  0.00    +0.162 A 
BRANCH  23  24
ATOM     24  O   LIG A   1      -7.414  -3.426 130.047  0.00  0.00    -0.491 OA
ATOM     25  C   LIG A   1      -6.114  -4.014 130.082  0.00  0.00    +0.277 C 
ENDBRANCH  23  24
BRANCH  18  26
ATOM     26  O   LIG A   1      -7.021  -0.657 130.583  0.00  0.00    -0.485 OA
BRANCH  26  27
ATOM     27  C   LIG A   1      -7.148   0.698 130.996  0.00  0.00    +0.265 C 
BRANCH  27  28
ATOM     28  C   LIG A   1      -8.227   0.879 132.079  0.00  0.00    +0.177 C 
BRANCH  28  29
ATOM     29  C   LIG A   1      -9.037   2.167 132.007  0.00  0.00    -0.048 C 
ATOM     30  C   LIG A   1      -9.167   2.987 133.264  0.00  0.00    +0.041 C 
ATOM     31  C   LIG A   1      -9.622   2.565 130.875  0.00  0.00    +0.010 C 
ENDBRANCH  28  29
BRANCH  28  32
ATOM     32  O   LIG A   1      -7.597   0.803 133.357  0.00  0.00    -0.384 OA
ATOM     33  H   LIG A   1      -6.674   1.076 133.224  0.00  0.00    +0.210 HD
ENDBRANCH  28  32
ENDBRANCH  27  28
ENDBRANCH  26  27
ENDBRANCH  18  26
ENDBRANCH   1  20
TORSDOF 8
ENDMDL
MODEL 5
REMARK VINA RESULT:      -8.0      4.548      9.287
REMARK  Name = NuBBE_1191
REMARK  10 active torsions:
REMARK  status: ('A' for Active; 'I' for Inactive)
REMARK    1  A    between atoms: O_1  and  C_2
REMARK    2  A    between atoms: C_2  and  C_3
REMARK    3  A    between atoms: C_2  and  C_6
REMARK    4  A    between atoms: C_3  and  C_4
REMARK    5  A    between atoms: C_6  and  O_7
REMARK    6  A    between atoms: O_7  and  C_8
REMARK    7  A    between atoms: C_10  and  C_11
REMARK    8  A    between atoms: C_19  and  C_23
REMARK    9  A    between atoms: C_34  and  O_35
REMARK   10  A    between atoms: O_35  and  C_36
REMARK                            x       y       z     vdW  Elec       q    Type
REMARK                         _______ _______ _______ _____ _____    ______ ____
ROOT
ATOM      1  C   LIG A   1      -6.420   2.176 127.204  0.00  0.00    +0.154 C 
ATOM      2  C   LIG A   1      -6.392   3.636 127.674  0.00  0.00    +0.056 C 
ATOM      3  C   LIG A   1      -4.915   3.938 127.745  0.00  0.00    +0.056 C 
ATOM      4  C   LIG A   1      -4.346   3.082 126.640  0.00  0.00    +0.167 C 
ATOM      5  O   LIG A   1      -5.161   1.909 126.559  0.00  0.00    -0.371 OA
ATOM      6  C   LIG A   1      -4.520   3.482 129.157  0.00  0.00    +0.154 C 
ATOM      7  O   LIG A   1      -5.743   3.389 129.924  0.00  0.00    -0.371 OA
ATOM      8  C   LIG A   1      -6.834   3.826 129.105  0.00  0.00    +0.167 C 
ENDROOT
BRANCH   6   9
ATOM      9  C   LIG A   1      -3.551   4.442 129.825  0.00  0.00    -0.015 A 
ATOM     10  C   LIG A   1      -3.181   4.247 131.169  0.00  0.00    +0.055 A 
ATOM     11  C   LIG A   1      -2.274   5.125 131.731  0.00  0.00    +0.167 A 
ATOM     12  C   LIG A   1      -1.732   6.167 131.017  0.00  0.00    +0.166 A 
ATOM     13  O   LIG A   1      -0.858   6.905 131.752  0.00  0.00    -0.453 OA
ATOM     14  C   LIG A   1      -0.897   6.197 133.007  0.00  0.00    +0.466 C 
ATOM     15  O   LIG A   1      -1.810   5.078 133.009  0.00  0.00    -0.453 OA
ATOM     16  C   LIG A   1      -2.067   6.394 129.703  0.00  0.00    +0.050 A 
ATOM     17  C   LIG A   1      -2.980   5.521 129.106  0.00  0.00    +0.010 A 
ENDBRANCH   6   9
BRANCH   1  20
ATOM     18  C   LIG A   1      -9.170   0.133 125.517  0.00  0.00    +0.162 A 
ATOM     19  C   LIG A   1      -8.123   0.543 126.354  0.00  0.00    +0.055 A 
ATOM     20  C   LIG A   1      -7.571   1.831 126.281  0.00  0.00    -0.015 A 
ATOM     21  C   LIG A   1      -8.103   2.726 125.350  0.00  0.00    +0.010 A 
ATOM     22  C   LIG A   1      -9.128   2.321 124.484  0.00  0.00    +0.050 A 
ATOM     23  C   LIG A   1      -9.648   1.021 124.541  0.00  0.00    +0.162 A 
BRANCH  23  24
ATOM     24  O   LIG A   1     -10.671   0.776 123.655  0.00  0.00    -0.491 OA
ATOM     25  C   LIG A   1     -10.302   0.448 122.316  0.00  0.00    +0.277 C 
ENDBRANCH  23  24
BRANCH  18  26
ATOM     26  O   LIG A   1      -9.791  -1.075 125.632  0.00  0.00    -0.485 OA
BRANCH  26  27
ATOM     27  C   LIG A   1      -9.043  -2.261 125.875  0.00  0.00    +0.265 C 
BRANCH  27  28
ATOM     28  C   LIG A   1      -8.815  -3.079 124.590  0.00  0.00    +0.177 C 
BRANCH  28  29
ATOM     29  C   LIG A   1      -7.546  -2.759 123.811  0.00  0.00    -0.048 C 
ATOM     30  C   LIG A   1      -6.265  -3.419 124.251  0.00  0.00    +0.041 C 
ATOM     31  C   LIG A   1      -7.553  -1.918 122.774  0.00  0.00    +0.010 C 
ENDBRANCH  28  29
BRANCH  28  32
ATOM     32  O   LIG A   1      -9.941  -2.889 123.732  0.00  0.00    -0.384 OA
ATOM     33  H   LIG A   1     -10.724  -3.140 124.249  0.00  0.00    +0.210 HD
ENDBRANCH  28  32
ENDBRANCH  27  28
ENDBRANCH  26  27
ENDBRANCH  18  26
ENDBRANCH   1  20
TORSDOF 8
ENDMDL
MODEL 6
REMARK VINA RESULT:      -8.0      1.842      2.942
REMARK  Name = NuBBE_1191
REMARK  10 active torsions:
REMARK  status: ('A' for Active; 'I' for Inactive)
REMARK    1  A    between atoms: O_1  and  C_2
REMARK    2  A    between atoms: C_2  and  C_3
REMARK    3  A    between atoms: C_2  and  C_6
REMARK    4  A    between atoms: C_3  and  C_4
REMARK    5  A    between atoms: C_6  and  O_7
REMARK    6  A    between atoms: O_7  and  C_8
REMARK    7  A    between atoms: C_10  and  C_11
REMARK    8  A    between atoms: C_19  and  C_23
REMARK    9  A    between atoms: C_34  and  O_35
REMARK   10  A    between atoms: O_35  and  C_36
REMARK                            x       y       z     vdW  Elec       q    Type
REMARK                         _______ _______ _______ _____ _____    ______ ____
ROOT
ATOM      1  C   LIG A   1      -8.000   1.365 126.249  0.00  0.00    +0.154 C 
ATOM      2  C   LIG A   1      -6.682   1.378 125.465  0.00  0.00    +0.056 C 
ATOM      3  C   LIG A   1      -6.674   2.751 124.841  0.00  0.00    +0.056 C 
ATOM      4  C   LIG A   1      -7.402   3.587 125.865  0.00  0.00    +0.167 C 
ATOM      5  O   LIG A   1      -8.370   2.736 126.486  0.00  0.00    -0.371 OA
ATOM      6  C   LIG A   1      -7.447   2.557 123.528  0.00  0.00    +0.154 C 
ATOM      7  O   LIG A   1      -7.452   1.137 123.254  0.00  0.00    -0.371 OA
ATOM      8  C   LIG A   1      -6.681   0.470 124.258  0.00  0.00    +0.167 C 
ENDROOT
BRANCH   6   9
ATOM      9  C   LIG A   1      -6.820   3.314 122.370  0.00  0.00    -0.015 A 
ATOM     10  C   LIG A   1      -7.530   3.471 121.165  0.00  0.00    +0.055 A 
ATOM     11  C   LIG A   1      -6.937   4.192 120.147  0.00  0.00    +0.167 A 
ATOM     12  C   LIG A   1      -5.690   4.753 120.283  0.00  0.00    +0.166 A 
ATOM     13  O   LIG A   1      -5.295   5.426 119.170  0.00  0.00    -0.453 OA
ATOM     14  C   LIG A   1      -6.445   5.240 118.320  0.00  0.00    +0.466 C 
ATOM     15  O   LIG A   1      -7.484   4.439 118.925  0.00  0.00    -0.453 OA
ATOM     16  C   LIG A   1      -4.962   4.624 121.443  0.00  0.00    +0.050 A 
ATOM     17  C   LIG A   1      -5.537   3.902 122.492  0.00  0.00    +0.010 A 
ENDBRANCH   6   9
BRANCH   1  20
ATOM     18  C   LIG A   1      -7.948   0.689 130.007  0.00  0.00    +0.162 A 
ATOM     19  C   LIG A   1      -8.015   1.318 128.756  0.00  0.00    +0.055 A 
ATOM     20  C   LIG A   1      -7.952   0.597 127.554  0.00  0.00    -0.015 A 
ATOM     21  C   LIG A   1      -7.834  -0.794 127.623  0.00  0.00    +0.010 A 
ATOM     22  C   LIG A   1      -7.733  -1.435 128.865  0.00  0.00    +0.050 A 
ATOM     23  C   LIG A   1      -7.761  -0.702 130.060  0.00  0.00    +0.162 A 
BRANCH  23  24
ATOM     24  O   LIG A   1      -7.686  -1.466 131.200  0.00  0.00    -0.491 OA
ATOM     25  C   LIG A   1      -7.397  -2.853 131.031  0.00  0.00    +0.277 C 
ENDBRANCH  23  24
BRANCH  18  26
ATOM     26  O   LIG A   1      -8.106   1.351 131.188  0.00  0.00    -0.485 OA
BRANCH  26  27
ATOM     27  C   LIG A   1      -9.397   1.745 131.637  0.00  0.00    +0.265 C 
BRANCH  27  28
ATOM     28  C   LIG A   1      -9.703   3.217 131.308  0.00  0.00    +0.177 C 
BRANCH  28  29
ATOM     29  C   LIG A   1      -9.513   4.210 132.447  0.00  0.00    -0.048 C 
ATOM     30  C   LIG A   1      -9.132   3.664 133.800  0.00  0.00    +0.041 C 
ATOM     31  C   LIG A   1      -9.681   5.523 132.270  0.00  0.00    +0.010 C 
ENDBRANCH  28  29
BRANCH  28  32
ATOM     32  O   LIG A   1     -11.051   3.302 130.846  0.00  0.00    -0.384 OA
ATOM     33  H   LIG A   1     -11.200   2.519 130.290  0.00  0.00    +0.210 HD
ENDBRANCH  28  32
ENDBRANCH  27  28
ENDBRANCH  26  27
ENDBRANCH  18  26
ENDBRANCH   1  20
TORSDOF 8
ENDMDL
MODEL 7
REMARK VINA RESULT:      -7.8      4.948      9.767
REMARK  Name = NuBBE_1191
REMARK  10 active torsions:
REMARK  status: ('A' for Active; 'I' for Inactive)
REMARK    1  A    between atoms: O_1  and  C_2
REMARK    2  A    between atoms: C_2  and  C_3
REMARK    3  A    between atoms: C_2  and  C_6
REMARK    4  A    between atoms: C_3  and  C_4
REMARK    5  A    between atoms: C_6  and  O_7
REMARK    6  A    between atoms: O_7  and  C_8
REMARK    7  A    between atoms: C_10  and  C_11
REMARK    8  A    between atoms: C_19  and  C_23
REMARK    9  A    between atoms: C_34  and  O_35
REMARK   10  A    between atoms: O_35  and  C_36
REMARK                            x       y       z     vdW  Elec       q    Type
REMARK                         _______ _______ _______ _____ _____    ______ ____
ROOT
ATOM      1  C   LIG A   1      -5.165   4.034 127.268  0.00  0.00    +0.154 C 
ATOM      2  C   LIG A   1      -3.989   3.778 128.219  0.00  0.00    +0.056 C 
ATOM      3  C   LIG A   1      -4.340   4.617 129.422  0.00  0.00    +0.056 C 
ATOM      4  C   LIG A   1      -5.848   4.572 129.433  0.00  0.00    +0.167 C 
ATOM      5  O   LIG A   1      -6.272   4.487 128.069  0.00  0.00    -0.371 OA
ATOM      6  C   LIG A   1      -3.758   5.997 129.083  0.00  0.00    +0.154 C 
ATOM      7  O   LIG A   1      -2.788   5.793 128.029  0.00  0.00    -0.371 OA
ATOM      8  C   LIG A   1      -2.688   4.391 127.759  0.00  0.00    +0.167 C 
ENDROOT
BRANCH   6   9
ATOM      9  C   LIG A   1      -3.101   6.659 130.282  0.00  0.00    -0.015 A 
ATOM     10  C   LIG A   1      -2.024   6.028 130.932  0.00  0.00    +0.055 A 
ATOM     11  C   LIG A   1      -1.435   6.676 132.001  0.00  0.00    +0.167 A 
ATOM     12  C   LIG A   1      -1.869   7.905 132.434  0.00  0.00    +0.166 A 
ATOM     13  O   LIG A   1      -1.151   8.371 133.491  0.00  0.00    -0.453 OA
ATOM     14  C   LIG A   1      -0.201   7.299 133.663  0.00  0.00    +0.466 C 
ATOM     15  O   LIG A   1      -0.388   6.210 132.734  0.00  0.00    -0.453 OA
ATOM     16  C   LIG A   1      -2.918   8.557 131.829  0.00  0.00    +0.050 A 
ATOM     17  C   LIG A   1      -3.533   7.926 130.744  0.00  0.00    +0.010 A 
ENDBRANCH   6   9
BRANCH   1  20
ATOM     18  C   LIG A   1      -6.480   2.023 124.300  0.00  0.00    +0.162 A 
ATOM     19  C   LIG A   1      -6.055   3.068 125.131  0.00  0.00    +0.055 A 
ATOM     20  C   LIG A   1      -5.572   2.840 126.429  0.00  0.00    -0.015 A 
ATOM     21  C   LIG A   1      -5.506   1.521 126.887  0.00  0.00    +0.010 A 
ATOM     22  C   LIG A   1      -5.957   0.468 126.080  0.00  0.00    +0.050 A 
ATOM     23  C   LIG A   1      -6.471   0.710 124.798  0.00  0.00    +0.162 A 
BRANCH  23  24
ATOM     24  O   LIG A   1      -6.843  -0.420 124.110  0.00  0.00    -0.491 OA
ATOM     25  C   LIG A   1      -6.918  -1.635 124.855  0.00  0.00    +0.277 C 
ENDBRANCH  23  24
BRANCH  18  26
ATOM     26  O   LIG A   1      -6.859   2.204 123.003  0.00  0.00    -0.485 OA
BRANCH  26  27
ATOM     27  C   LIG A   1      -6.780   3.486 122.392  0.00  0.00    +0.265 C 
BRANCH  27  28
ATOM     28  C   LIG A   1      -7.476   3.519 121.018  0.00  0.00    +0.177 C 
BRANCH  28  29
ATOM     29  C   LIG A   1      -6.748   4.283 119.920  0.00  0.00    -0.048 C 
ATOM     30  C   LIG A   1      -5.355   4.780 120.212  0.00  0.00    +0.041 C 
ATOM     31  C   LIG A   1      -7.316   4.518 118.734  0.00  0.00    +0.010 C 
ENDBRANCH  28  29
BRANCH  28  32
ATOM     32  O   LIG A   1      -8.775   4.084 121.187  0.00  0.00    -0.384 OA
ATOM     33  H   LIG A   1      -9.225   3.542 121.856  0.00  0.00    +0.210 HD
ENDBRANCH  28  32
ENDBRANCH  27  28
ENDBRANCH  26  27
ENDBRANCH  18  26
ENDBRANCH   1  20
TORSDOF 8
ENDMDL
MODEL 8
REMARK VINA RESULT:      -7.7      6.055      8.813
REMARK  Name = NuBBE_1191
REMARK  10 active torsions:
REMARK  status: ('A' for Active; 'I' for Inactive)
REMARK    1  A    between atoms: O_1  and  C_2
REMARK    2  A    between atoms: C_2  and  C_3
REMARK    3  A    between atoms: C_2  and  C_6
REMARK    4  A    between atoms: C_3  and  C_4
REMARK    5  A    between atoms: C_6  and  O_7
REMARK    6  A    between atoms: O_7  and  C_8
REMARK    7  A    between atoms: C_10  and  C_11
REMARK    8  A    between atoms: C_19  and  C_23
REMARK    9  A    between atoms: C_34  and  O_35
REMARK   10  A    between atoms: O_35  and  C_36
REMARK                            x       y       z     vdW  Elec       q    Type
REMARK                         _______ _______ _______ _____ _____    ______ ____
ROOT
ATOM      1  C   LIG A   1      -9.425   3.354 132.381  0.00  0.00    +0.154 C 
ATOM      2  C   LIG A   1      -9.249   4.066 131.034  0.00  0.00    +0.056 C 
ATOM      3  C   LIG A   1      -9.848   5.427 131.292  0.00  0.00    +0.056 C 
ATOM      4  C   LIG A   1      -9.543   5.654 132.752  0.00  0.00    +0.167 C 
ATOM      5  O   LIG A   1      -9.570   4.373 133.388  0.00  0.00    -0.371 OA
ATOM      6  C   LIG A   1     -11.340   5.230 130.987  0.00  0.00    +0.154 C 
ATOM      7  O   LIG A   1     -11.449   4.025 130.195  0.00  0.00    -0.371 OA
ATOM      8  C   LIG A   1     -10.133   3.523 129.936  0.00  0.00    +0.167 C 
ENDROOT
BRANCH   6   9
ATOM      9  C   LIG A   1     -11.938   6.408 130.239  0.00  0.00    -0.015 A 
ATOM     10  C   LIG A   1     -12.241   7.599 130.925  0.00  0.00    +0.055 A 
ATOM     11  C   LIG A   1     -12.756   8.658 130.203  0.00  0.00    +0.167 A 
ATOM     12  C   LIG A   1     -12.974   8.576 128.849  0.00  0.00    +0.166 A 
ATOM     13  O   LIG A   1     -13.477   9.728 128.330  0.00  0.00    -0.453 OA
ATOM     14  C   LIG A   1     -13.535  10.552 129.511  0.00  0.00    +0.466 C 
ATOM     15  O   LIG A   1     -13.099   9.874 130.708  0.00  0.00    -0.453 OA
ATOM     16  C   LIG A   1     -12.693   7.432 128.138  0.00  0.00    +0.050 A 
ATOM     17  C   LIG A   1     -12.169   6.345 128.842  0.00  0.00    +0.010 A 
ENDBRANCH   6   9
BRANCH   1  20
ATOM     18  C   LIG A   1      -7.410   0.121 132.640  0.00  0.00    +0.162 A 
ATOM     19  C   LIG A   1      -8.390   1.070 132.322  0.00  0.00    +0.055 A 
ATOM     20  C   LIG A   1      -8.301   2.405 132.745  0.00  0.00    -0.015 A 
ATOM     21  C   LIG A   1      -7.186   2.788 133.495  0.00  0.00    +0.010 A 
ATOM     22  C   LIG A   1      -6.213   1.843 133.848  0.00  0.00    +0.050 A 
ATOM     23  C   LIG A   1      -6.329   0.504 133.451  0.00  0.00    +0.162 A 
BRANCH  23  24
ATOM     24  O   LIG A   1      -5.285  -0.300 133.841  0.00  0.00    -0.491 OA
ATOM     25  C   LIG A   1      -5.450  -1.028 135.057  0.00  0.00    +0.277 C 
ENDBRANCH  23  24
BRANCH  18  26
ATOM     26  O   LIG A   1      -7.419  -1.155 132.161  0.00  0.00    -0.485 OA
BRANCH  26  27
ATOM     27  C   LIG A   1      -7.350  -1.411 130.763  0.00  0.00    +0.265 C 
BRANCH  27  28
ATOM     28  C   LIG A   1      -7.411  -2.915 130.443  0.00  0.00    +0.177 C 
BRANCH  28  29
ATOM     29  C   LIG A   1      -6.089  -3.572 130.067  0.00  0.00    -0.048 C 
ATOM     30  C   LIG A   1      -5.237  -2.893 129.025  0.00  0.00    +0.041 C 
ATOM     31  C   LIG A   1      -5.688  -4.715 130.629  0.00  0.00    +0.010 C 
ENDBRANCH  28  29
BRANCH  28  32
ATOM     32  O   LIG A   1      -8.339  -3.110 129.377  0.00  0.00    -0.384 OA
ATOM     33  H   LIG A   1      -8.349  -4.064 129.192  0.00  0.00    +0.210 HD
ENDBRANCH  28  32
ENDBRANCH  27  28
ENDBRANCH  26  27
ENDBRANCH  18  26
ENDBRANCH   1  20
TORSDOF 8
ENDMDL
MODEL 9
REMARK VINA RESULT:      -7.7      5.748      8.136
REMARK  Name = NuBBE_1191
REMARK  10 active torsions:
REMARK  status: ('A' for Active; 'I' for Inactive)
REMARK    1  A    between atoms: O_1  and  C_2
REMARK    2  A    between atoms: C_2  and  C_3
REMARK    3  A    between atoms: C_2  and  C_6
REMARK    4  A    between atoms: C_3  and  C_4
REMARK    5  A    between atoms: C_6  and  O_7
REMARK    6  A    between atoms: O_7  and  C_8
REMARK    7  A    between atoms: C_10  and  C_11
REMARK    8  A    between atoms: C_19  and  C_23
REMARK    9  A    between atoms: C_34  and  O_35
REMARK   10  A    between atoms: O_35  and  C_36
REMARK                            x       y       z     vdW  Elec       q    Type
REMARK                         _______ _______ _______ _____ _____    ______ ____
ROOT
ATOM      1  C   LIG A   1      -8.902   4.114 132.026  0.00  0.00    +0.154 C 
ATOM      2  C   LIG A   1      -8.717   5.144 130.904  0.00  0.00    +0.056 C 
ATOM      3  C   LIG A   1      -9.762   6.184 131.227  0.00  0.00    +0.056 C 
ATOM      4  C   LIG A   1      -9.827   6.135 132.734  0.00  0.00    +0.167 C 
ATOM      5  O   LIG A   1      -9.555   4.785 133.119  0.00  0.00    -0.371 OA
ATOM      6  C   LIG A   1     -11.024   5.658 130.529  0.00  0.00    +0.154 C 
ATOM      7  O   LIG A   1     -10.586   4.693 129.545  0.00  0.00    -0.371 OA
ATOM      8  C   LIG A   1      -9.155   4.652 129.545  0.00  0.00    +0.167 C 
ENDROOT
BRANCH   6   9
ATOM      9  C   LIG A   1     -11.821   6.765 129.861  0.00  0.00    -0.015 A 
ATOM     10  C   LIG A   1     -12.089   7.958 130.558  0.00  0.00    +0.055 A 
ATOM     11  C   LIG A   1     -12.791   8.953 129.906  0.00  0.00    +0.167 A 
ATOM     12  C   LIG A   1     -13.225   8.807 128.610  0.00  0.00    +0.166 A 
ATOM     13  O   LIG A   1     -13.887   9.903 128.153  0.00  0.00    -0.453 OA
ATOM     14  C   LIG A   1     -13.806  10.765 129.306  0.00  0.00    +0.466 C 
ATOM     15  O   LIG A   1     -13.130  10.162 130.430  0.00  0.00    -0.453 OA
ATOM     16  C   LIG A   1     -12.986   7.658 127.892  0.00  0.00    +0.050 A 
ATOM     17  C   LIG A   1     -12.275   6.634 128.526  0.00  0.00    +0.010 A 
ENDBRANCH   6   9
BRANCH   1  20
ATOM     18  C   LIG A   1      -5.218   3.116 132.131  0.00  0.00    +0.162 A 
ATOM     19  C   LIG A   1      -6.439   3.706 131.781  0.00  0.00    +0.055 A 
ATOM     20  C   LIG A   1      -7.621   3.457 132.497  0.00  0.00    -0.015 A 
ATOM     21  C   LIG A   1      -7.556   2.603 133.601  0.00  0.00    +0.010 A 
ATOM     22  C   LIG A   1      -6.349   1.980 133.945  0.00  0.00    +0.050 A 
ATOM     23  C   LIG A   1      -5.182   2.208 133.202  0.00  0.00    +0.162 A 
BRANCH  23  24
ATOM     24  O   LIG A   1      -4.068   1.557 133.675  0.00  0.00    -0.491 OA
ATOM     25  C   LIG A   1      -4.234   0.761 134.848  0.00  0.00    +0.277 C 
ENDBRANCH  23  24
BRANCH  18  26
ATOM     26  O   LIG A   1      -4.038   3.415 131.517  0.00  0.00    -0.485 OA
BRANCH  26  27
ATOM     27  C   LIG A   1      -3.254   4.523 131.943  0.00  0.00    +0.265 C 
BRANCH  27  28
ATOM     28  C   LIG A   1      -3.092   5.581 130.836  0.00  0.00    +0.177 C 
BRANCH  28  29
ATOM     29  C   LIG A   1      -3.766   6.923 131.092  0.00  0.00    -0.048 C 
ATOM     30  C   LIG A   1      -5.216   7.067 130.705  0.00  0.00    +0.041 C 
ATOM     31  C   LIG A   1      -3.105   7.948 131.634  0.00  0.00    +0.010 C 
ENDBRANCH  28  29
BRANCH  28  32
ATOM     32  O   LIG A   1      -3.598   5.037 129.618  0.00  0.00    -0.384 OA
ATOM     33  H   LIG A   1      -2.898   4.466 129.261  0.00  0.00    +0.210 HD
ENDBRANCH  28  32
ENDBRANCH  27  28
ENDBRANCH  26  27
ENDBRANCH  18  26
ENDBRANCH   1  20
TORSDOF 8
ENDMDL
