MODEL 1
REMARK VINA RESULT:      -7.8      0.000      0.000
REMARK  Name = NuBBE_1369
REMARK  15 active torsions:
REMARK  status: ('A' for Active; 'I' for Inactive)
REMARK    1  A    between atoms: C_7  and  C_27
REMARK    2  A    between atoms: C_8  and  C_10
REMARK    3  A    between atoms: C_10  and  C_11
REMARK    4  A    between atoms: C_11  and  O_12
REMARK    5  A    between atoms: O_12  and  C_13
REMARK    6  A    between atoms: C_15  and  C_16
REMARK    7  A    between atoms: C_15  and  C_25
REMARK    8  A    between atoms: C_16  and  O_18
REMARK    9  A    between atoms: C_16  and  C_22
REMARK   10  A    between atoms: O_18  and  C_19
REMARK   11  A    between atoms: C_19  and  C_20
REMARK   12  A    between atoms: C_22  and  C_23
REMARK   13  A    between atoms: C_28  and  O_29
REMARK   14  A    between atoms: C_33  and  C_34
REMARK   15  A    between atoms: C_35  and  C_37
REMARK                            x       y       z     vdW  Elec       q    Type
REMARK                         _______ _______ _______ _____ _____    ______ ____
ROOT
ATOM      1  O   LIG A   1     -10.161   0.435 122.921  0.00  0.00    -0.246 OA
ATOM      2  C   LIG A   1      -9.382   0.074 123.794  0.00  0.00    +0.333 C 
ATOM      3  C   LIG A   1      -9.496   0.612 125.161  0.00  0.00    +0.099 C 
ATOM      4  C   LIG A   1      -8.575   0.354 126.099  0.00  0.00    +0.011 C 
ATOM      5  C   LIG A   1      -8.492   1.044 127.376  0.00  0.00    +0.128 C 
ATOM      6  C   LIG A   1      -7.654   0.661 128.341  0.00  0.00    -0.015 C 
ATOM      7  C   LIG A   1      -7.276   1.859 129.177  0.00  0.00    +0.062 C 
ATOM      8  C   LIG A   1      -7.561   1.684 130.705  0.00  0.00    +0.026 C 
ATOM      9  C   LIG A   1      -8.638   2.821 131.111  0.00  0.00    +0.022 C 
ATOM     10  C   LIG A   1      -9.737   2.157 131.980  0.00  0.00    +0.015 C 
ATOM     11  C   LIG A   1      -9.321   3.134 129.744  0.00  0.00    +0.090 C 
ATOM     12  C   LIG A   1      -5.844   2.251 128.773  0.00  0.00    +0.023 C 
ATOM     13  C   LIG A   1      -8.310   2.890 128.634  0.00  0.00    +0.220 C 
ATOM     14  O   LIG A   1      -8.961   2.342 127.464  0.00  0.00    -0.460 OA
ATOM     15  C   LIG A   1      -6.910  -0.634 128.348  0.00  0.00    +0.036 C 
ATOM     16  C   LIG A   1      -7.191  -1.459 127.087  0.00  0.00    +0.020 C 
ATOM     17  C   LIG A   1      -7.405  -0.591 125.812  0.00  0.00    +0.038 C 
ATOM     18  C   LIG A   1      -6.175   0.293 125.475  0.00  0.00    +0.020 C 
ATOM     19  C   LIG A   1      -7.764  -1.516 124.614  0.00  0.00    +0.220 C 
ATOM     20  O   LIG A   1      -8.338  -0.748 123.533  0.00  0.00    -0.453 OA
ENDROOT
BRANCH  19  21
ATOM     21  C   LIG A   1      -6.594  -2.337 124.103  0.00  0.00    +0.031 A 
ATOM     22  C   LIG A   1      -5.942  -2.224 122.888  0.00  0.00    +0.202 A 
ATOM     23  O   LIG A   1      -4.938  -3.130 122.779  0.00  0.00    -0.471 OA
ATOM     24  C   LIG A   1      -4.932  -3.850 123.927  0.00  0.00    +0.195 A 
ATOM     25  C   LIG A   1      -5.920  -3.404 124.774  0.00  0.00    +0.048 A 
ENDBRANCH  19  21
BRANCH  13  26
ATOM     26  O   LIG A   1      -7.713   4.117 128.243  0.00  0.00    -0.355 OA
ATOM     27  H   LIG A   1      -8.122   4.783 128.822  0.00  0.00    +0.214 HD
ENDBRANCH  13  26
BRANCH   8  28
ATOM     28  C   LIG A   1      -6.340   1.521 131.644  0.00  0.00    +0.126 C 
BRANCH  28  29
ATOM     29  C   LIG A   1      -6.524   0.694 132.953  0.00  0.00    +0.307 C 
ATOM     30  O   LIG A   1      -6.731   1.155 134.050  0.00  0.00    -0.251 OA
BRANCH  29  31
ATOM     31  O   LIG A   1      -6.264  -0.630 132.665  0.00  0.00    -0.468 OA
ATOM     32  C   LIG A   1      -7.286  -1.585 132.997  0.00  0.00    +0.280 C 
ENDBRANCH  29  31
ENDBRANCH  28  29
ENDBRANCH   8  28
BRANCH   9  33
ATOM     33  C   LIG A   1      -8.092   4.134 131.853  0.00  0.00    +0.248 C 
BRANCH  33  34
ATOM     34  C   LIG A   1      -8.954   4.586 133.088  0.00  0.00    +0.171 C 
ATOM     35  C   LIG A   1      -8.496   4.201 134.488  0.00  0.00    +0.090 C 
ATOM     36  O   LIG A   1      -9.939   5.317 132.958  0.00  0.00    -0.294 OA
ENDBRANCH  33  34
BRANCH  33  37
ATOM     37  O   LIG A   1      -7.901   5.167 130.873  0.00  0.00    -0.453 OA
BRANCH  37  38
ATOM     38  C   LIG A   1      -6.813   5.973 130.961  0.00  0.00    +0.305 C 
ATOM     39  C   LIG A   1      -5.670   5.206 131.521  0.00  0.00    +0.136 C 
ATOM     40  O   LIG A   1      -6.764   7.185 130.746  0.00  0.00    -0.251 OA
ENDBRANCH  37  38
ENDBRANCH  33  37
ENDBRANCH   9  33
TORSDOF 9
ENDMDL
MODEL 2
REMARK VINA RESULT:      -7.8      2.979      8.329
REMARK  Name = NuBBE_1369
REMARK  15 active torsions:
REMARK  status: ('A' for Active; 'I' for Inactive)
REMARK    1  A    between atoms: C_7  and  C_27
REMARK    2  A    between atoms: C_8  and  C_10
REMARK    3  A    between atoms: C_10  and  C_11
REMARK    4  A    between atoms: C_11  and  O_12
REMARK    5  A    between atoms: O_12  and  C_13
REMARK    6  A    between atoms: C_15  and  C_16
REMARK    7  A    between atoms: C_15  and  C_25
REMARK    8  A    between atoms: C_16  and  O_18
REMARK    9  A    between atoms: C_16  and  C_22
REMARK   10  A    between atoms: O_18  and  C_19
REMARK   11  A    between atoms: C_19  and  C_20
REMARK   12  A    between atoms: C_22  and  C_23
REMARK   13  A    between atoms: C_28  and  O_29
REMARK   14  A    between atoms: C_33  and  C_34
REMARK   15  A    between atoms: C_35  and  C_37
REMARK                            x       y       z     vdW  Elec       q    Type
REMARK                         _______ _______ _______ _____ _____    ______ ____
ROOT
ATOM      1  O   LIG A   1      -2.255   6.290 127.890  0.00  0.00    -0.246 OA
ATOM      2  C   LIG A   1      -2.797   5.326 128.416  0.00  0.00    +0.333 C 
ATOM      3  C   LIG A   1      -3.377   4.255 127.586  0.00  0.00    +0.099 C 
ATOM      4  C   LIG A   1      -4.105   3.266 128.120  0.00  0.00    +0.011 C 
ATOM      5  C   LIG A   1      -4.906   2.330 127.347  0.00  0.00    +0.128 C 
ATOM      6  C   LIG A   1      -5.498   1.271 127.901  0.00  0.00    -0.015 C 
ATOM      7  C   LIG A   1      -6.738   0.925 127.113  0.00  0.00    +0.062 C 
ATOM      8  C   LIG A   1      -6.774  -0.553 126.601  0.00  0.00    +0.026 C 
ATOM      9  C   LIG A   1      -6.809  -0.484 124.985  0.00  0.00    +0.022 C 
ATOM     10  C   LIG A   1      -5.783  -1.509 124.435  0.00  0.00    +0.015 C 
ATOM     11  C   LIG A   1      -6.191   0.918 124.698  0.00  0.00    +0.090 C 
ATOM     12  C   LIG A   1      -7.941   1.408 127.940  0.00  0.00    +0.023 C 
ATOM     13  C   LIG A   1      -6.516   1.835 125.868  0.00  0.00    +0.220 C 
ATOM     14  O   LIG A   1      -5.415   2.738 126.128  0.00  0.00    -0.460 OA
ATOM     15  C   LIG A   1      -5.215   0.770 129.279  0.00  0.00    +0.036 C 
ATOM     16  C   LIG A   1      -4.186   1.645 130.003  0.00  0.00    +0.020 C 
ATOM     17  C   LIG A   1      -4.288   3.155 129.636  0.00  0.00    +0.038 C 
ATOM     18  C   LIG A   1      -5.675   3.762 129.975  0.00  0.00    +0.020 C 
ATOM     19  C   LIG A   1      -3.153   3.938 130.356  0.00  0.00    +0.220 C 
ATOM     20  O   LIG A   1      -2.973   5.240 129.756  0.00  0.00    -0.453 OA
ENDROOT
BRANCH  19  21
ATOM     21  C   LIG A   1      -3.363   4.081 131.853  0.00  0.00    +0.031 A 
ATOM     22  C   LIG A   1      -3.894   5.160 132.538  0.00  0.00    +0.202 A 
ATOM     23  O   LIG A   1      -3.928   4.929 133.874  0.00  0.00    -0.471 OA
ATOM     24  C   LIG A   1      -3.411   3.692 134.073  0.00  0.00    +0.195 A 
ATOM     25  C   LIG A   1      -3.054   3.126 132.872  0.00  0.00    +0.048 A 
ENDBRANCH  19  21
BRANCH  13  26
ATOM     26  O   LIG A   1      -7.647   2.635 125.560  0.00  0.00    -0.355 OA
ATOM     27  H   LIG A   1      -7.758   3.211 126.336  0.00  0.00    +0.214 HD
ENDBRANCH  13  26
BRANCH   8  28
ATOM     28  C   LIG A   1      -7.782  -1.517 127.275  0.00  0.00    +0.126 C 
BRANCH  28  29
ATOM     29  C   LIG A   1      -7.259  -2.457 128.403  0.00  0.00    +0.307 C 
ATOM     30  O   LIG A   1      -6.102  -2.590 128.725  0.00  0.00    -0.251 OA
BRANCH  29  31
ATOM     31  O   LIG A   1      -8.321  -3.209 128.863  0.00  0.00    -0.468 OA
ATOM     32  C   LIG A   1      -9.042  -3.985 127.892  0.00  0.00    +0.280 C 
ENDBRANCH  29  31
ENDBRANCH  28  29
ENDBRANCH   8  28
BRANCH   9  33
ATOM     33  C   LIG A   1      -8.224  -0.706 124.260  0.00  0.00    +0.248 C 
BRANCH  33  34
ATOM     34  C   LIG A   1      -8.347  -2.065 123.481  0.00  0.00    +0.171 C 
ATOM     35  C   LIG A   1      -8.962  -3.266 124.186  0.00  0.00    +0.090 C 
ATOM     36  O   LIG A   1      -8.041  -2.160 122.289  0.00  0.00    -0.294 OA
ENDBRANCH  33  34
BRANCH  33  37
ATOM     37  O   LIG A   1      -8.510   0.450 123.455  0.00  0.00    -0.453 OA
BRANCH  37  38
ATOM     38  C   LIG A   1      -9.801   0.761 123.174  0.00  0.00    +0.305 C 
ATOM     39  C   LIG A   1     -10.435   1.374 124.369  0.00  0.00    +0.136 C 
ATOM     40  O   LIG A   1     -10.429   0.482 122.152  0.00  0.00    -0.251 OA
ENDBRANCH  37  38
ENDBRANCH  33  37
ENDBRANCH   9  33
TORSDOF 9
ENDMDL
MODEL 3
REMARK VINA RESULT:      -7.7      2.572      6.143
REMARK  Name = NuBBE_1369
REMARK  15 active torsions:
REMARK  status: ('A' for Active; 'I' for Inactive)
REMARK    1  A    between atoms: C_7  and  C_27
REMARK    2  A    between atoms: C_8  and  C_10
REMARK    3  A    between atoms: C_10  and  C_11
REMARK    4  A    between atoms: C_11  and  O_12
REMARK    5  A    between atoms: O_12  and  C_13
REMARK    6  A    between atoms: C_15  and  C_16
REMARK    7  A    between atoms: C_15  and  C_25
REMARK    8  A    between atoms: C_16  and  O_18
REMARK    9  A    between atoms: C_16  and  C_22
REMARK   10  A    between atoms: O_18  and  C_19
REMARK   11  A    between atoms: C_19  and  C_20
REMARK   12  A    between atoms: C_22  and  C_23
REMARK   13  A    between atoms: C_28  and  O_29
REMARK   14  A    between atoms: C_33  and  C_34
REMARK   15  A    between atoms: C_35  and  C_37
REMARK                            x       y       z     vdW  Elec       q    Type
REMARK                         _______ _______ _______ _____ _____    ______ ____
ROOT
ATOM      1  O   LIG A   1      -4.862  -3.326 123.164  0.00  0.00    -0.246 OA
ATOM      2  C   LIG A   1      -5.526  -2.620 123.913  0.00  0.00    +0.333 C 
ATOM      3  C   LIG A   1      -5.142  -2.470 125.327  0.00  0.00    +0.099 C 
ATOM      4  C   LIG A   1      -5.924  -1.830 126.206  0.00  0.00    +0.011 C 
ATOM      5  C   LIG A   1      -5.732  -1.861 127.647  0.00  0.00    +0.128 C 
ATOM      6  C   LIG A   1      -6.441  -1.094 128.478  0.00  0.00    -0.015 C 
ATOM      7  C   LIG A   1      -6.557  -1.785 129.815  0.00  0.00    +0.062 C 
ATOM      8  C   LIG A   1      -6.053  -0.924 131.020  0.00  0.00    +0.026 C 
ATOM      9  C   LIG A   1      -4.814  -1.730 131.679  0.00  0.00    +0.022 C 
ATOM     10  C   LIG A   1      -3.664  -0.721 131.938  0.00  0.00    +0.015 C 
ATOM     11  C   LIG A   1      -4.328  -2.620 130.495  0.00  0.00    +0.090 C 
ATOM     12  C   LIG A   1      -7.987  -2.344 129.905  0.00  0.00    +0.023 C 
ATOM     13  C   LIG A   1      -5.522  -2.931 129.605  0.00  0.00    +0.220 C 
ATOM     14  O   LIG A   1      -5.124  -2.966 128.214  0.00  0.00    -0.460 OA
ATOM     15  C   LIG A   1      -7.303   0.046 128.046  0.00  0.00    +0.036 C 
ATOM     16  C   LIG A   1      -7.312   0.208 126.522  0.00  0.00    +0.020 C 
ATOM     17  C   LIG A   1      -7.215  -1.143 125.753  0.00  0.00    +0.038 C 
ATOM     18  C   LIG A   1      -8.386  -2.106 126.083  0.00  0.00    +0.020 C 
ATOM     19  C   LIG A   1      -7.147  -0.862 124.225  0.00  0.00    +0.220 C 
ATOM     20  O   LIG A   1      -6.677  -2.028 123.513  0.00  0.00    -0.453 OA
ENDROOT
BRANCH  19  21
ATOM     21  C   LIG A   1      -8.461  -0.387 123.631  0.00  0.00    +0.031 A 
ATOM     22  C   LIG A   1      -9.370  -1.117 122.885  0.00  0.00    +0.202 A 
ATOM     23  O   LIG A   1     -10.435  -0.358 122.522  0.00  0.00    -0.471 OA
ATOM     24  C   LIG A   1     -10.225   0.882 123.028  0.00  0.00    +0.195 A 
ATOM     25  C   LIG A   1      -9.036   0.919 123.719  0.00  0.00    +0.048 A 
ENDBRANCH  19  21
BRANCH  13  26
ATOM     26  O   LIG A   1      -6.045  -4.211 129.923  0.00  0.00    -0.355 OA
ATOM     27  H   LIG A   1      -6.786  -4.029 130.526  0.00  0.00    +0.214 HD
ENDBRANCH  13  26
BRANCH   8  28
ATOM     28  C   LIG A   1      -7.119  -0.373 131.998  0.00  0.00    +0.126 C 
BRANCH  28  29
ATOM     29  C   LIG A   1      -7.476   1.142 131.919  0.00  0.00    +0.307 C 
ATOM     30  O   LIG A   1      -7.090   1.911 131.071  0.00  0.00    -0.251 OA
BRANCH  29  31
ATOM     31  O   LIG A   1      -8.182   1.478 133.057  0.00  0.00    -0.468 OA
ATOM     32  C   LIG A   1      -8.974   2.676 133.007  0.00  0.00    +0.280 C 
ENDBRANCH  29  31
ENDBRANCH  28  29
ENDBRANCH   8  28
BRANCH   9  33
ATOM     33  C   LIG A   1      -5.098  -2.568 133.018  0.00  0.00    +0.248 C 
BRANCH  33  34
ATOM     34  C   LIG A   1      -3.804  -2.990 133.805  0.00  0.00    +0.171 C 
ATOM     35  C   LIG A   1      -3.592  -2.460 135.216  0.00  0.00    +0.090 C 
ATOM     36  O   LIG A   1      -3.004  -3.808 133.344  0.00  0.00    -0.294 OA
ENDBRANCH  33  34
BRANCH  33  37
ATOM     37  O   LIG A   1      -5.962  -3.668 132.693  0.00  0.00    -0.453 OA
BRANCH  37  38
ATOM     38  C   LIG A   1      -6.690  -4.256 133.677  0.00  0.00    +0.305 C 
ATOM     39  C   LIG A   1      -7.851  -3.394 134.017  0.00  0.00    +0.136 C 
ATOM     40  O   LIG A   1      -6.404  -5.274 134.308  0.00  0.00    -0.251 OA
ENDBRANCH  37  38
ENDBRANCH  33  37
ENDBRANCH   9  33
TORSDOF 9
ENDMDL
MODEL 4
REMARK VINA RESULT:      -7.6      2.778      4.515
REMARK  Name = NuBBE_1369
REMARK  15 active torsions:
REMARK  status: ('A' for Active; 'I' for Inactive)
REMARK    1  A    between atoms: C_7  and  C_27
REMARK    2  A    between atoms: C_8  and  C_10
REMARK    3  A    between atoms: C_10  and  C_11
REMARK    4  A    between atoms: C_11  and  O_12
REMARK    5  A    between atoms: O_12  and  C_13
REMARK    6  A    between atoms: C_15  and  C_16
REMARK    7  A    between atoms: C_15  and  C_25
REMARK    8  A    between atoms: C_16  and  O_18
REMARK    9  A    between atoms: C_16  and  C_22
REMARK   10  A    between atoms: O_18  and  C_19
REMARK   11  A    between atoms: C_19  and  C_20
REMARK   12  A    between atoms: C_22  and  C_23
REMARK   13  A    between atoms: C_28  and  O_29
REMARK   14  A    between atoms: C_33  and  C_34
REMARK   15  A    between atoms: C_35  and  C_37
REMARK                            x       y       z     vdW  Elec       q    Type
REMARK                         _______ _______ _______ _____ _____    ______ ____
ROOT
ATOM      1  O   LIG A   1     -11.129   0.662 123.004  0.00  0.00    -0.246 OA
ATOM      2  C   LIG A   1     -10.060   1.148 123.353  0.00  0.00    +0.333 C 
ATOM      3  C   LIG A   1      -9.573   0.959 124.730  0.00  0.00    +0.099 C 
ATOM      4  C   LIG A   1      -8.487   1.596 125.187  0.00  0.00    +0.011 C 
ATOM      5  C   LIG A   1      -8.099   1.653 126.587  0.00  0.00    +0.128 C 
ATOM      6  C   LIG A   1      -6.936   2.171 126.986  0.00  0.00    -0.015 C 
ATOM      7  C   LIG A   1      -7.090   2.724 128.381  0.00  0.00    +0.062 C 
ATOM      8  C   LIG A   1      -6.064   2.146 129.411  0.00  0.00    +0.026 C 
ATOM      9  C   LIG A   1      -6.926   1.380 130.546  0.00  0.00    +0.022 C 
ATOM     10  C   LIG A   1      -6.257   0.007 130.817  0.00  0.00    +0.015 C 
ATOM     11  C   LIG A   1      -8.252   1.056 129.794  0.00  0.00    +0.090 C 
ATOM     12  C   LIG A   1      -7.161   4.255 128.249  0.00  0.00    +0.023 C 
ATOM     13  C   LIG A   1      -8.485   2.131 128.743  0.00  0.00    +0.220 C 
ATOM     14  O   LIG A   1      -9.083   1.560 127.555  0.00  0.00    -0.460 OA
ATOM     15  C   LIG A   1      -5.805   2.508 126.071  0.00  0.00    +0.036 C 
ATOM     16  C   LIG A   1      -6.153   2.224 124.606  0.00  0.00    +0.020 C 
ATOM     17  C   LIG A   1      -7.650   2.484 124.262  0.00  0.00    +0.038 C 
ATOM     18  C   LIG A   1      -8.079   3.952 124.523  0.00  0.00    +0.020 C 
ATOM     19  C   LIG A   1      -7.914   2.087 122.781  0.00  0.00    +0.220 C 
ATOM     20  O   LIG A   1      -9.331   1.946 122.537  0.00  0.00    -0.453 OA
ENDROOT
BRANCH  19  21
ATOM     21  C   LIG A   1      -7.308   3.047 121.774  0.00  0.00    +0.031 A 
ATOM     22  C   LIG A   1      -7.955   3.748 120.770  0.00  0.00    +0.202 A 
ATOM     23  O   LIG A   1      -7.086   4.513 120.062  0.00  0.00    -0.471 OA
ATOM     24  C   LIG A   1      -5.857   4.311 120.597  0.00  0.00    +0.195 A 
ATOM     25  C   LIG A   1      -5.935   3.429 121.649  0.00  0.00    +0.048 A 
ENDBRANCH  19  21
BRANCH  13  26
ATOM     26  O   LIG A   1      -9.388   3.107 129.238  0.00  0.00    -0.355 OA
ATOM     27  H   LIG A   1      -9.826   2.675 129.991  0.00  0.00    +0.214 HD
ENDBRANCH  13  26
BRANCH   8  28
ATOM     28  C   LIG A   1      -4.946   3.093 129.912  0.00  0.00    +0.126 C 
BRANCH  28  29
ATOM     29  C   LIG A   1      -3.759   3.404 128.949  0.00  0.00    +0.307 C 
ATOM     30  O   LIG A   1      -3.160   2.590 128.289  0.00  0.00    -0.251 OA
BRANCH  29  31
ATOM     31  O   LIG A   1      -3.424   4.735 129.097  0.00  0.00    -0.468 OA
ATOM     32  C   LIG A   1      -2.575   5.311 128.090  0.00  0.00    +0.280 C 
ENDBRANCH  29  31
ENDBRANCH  28  29
ENDBRANCH   8  28
BRANCH   9  33
ATOM     33  C   LIG A   1      -7.165   2.140 131.939  0.00  0.00    +0.248 C 
BRANCH  33  34
ATOM     34  C   LIG A   1      -6.592   1.386 133.195  0.00  0.00    +0.171 C 
ATOM     35  C   LIG A   1      -5.259   1.833 133.779  0.00  0.00    +0.090 C 
ATOM     36  O   LIG A   1      -7.236   0.505 133.770  0.00  0.00    -0.294 OA
ENDBRANCH  33  34
BRANCH  33  37
ATOM     37  O   LIG A   1      -8.559   2.467 132.047  0.00  0.00    -0.453 OA
BRANCH  37  38
ATOM     38  C   LIG A   1      -8.936   3.536 132.795  0.00  0.00    +0.305 C 
ATOM     39  C   LIG A   1      -8.496   4.788 132.127  0.00  0.00    +0.136 C 
ATOM     40  O   LIG A   1      -9.446   3.518 133.915  0.00  0.00    -0.251 OA
ENDBRANCH  37  38
ENDBRANCH  33  37
ENDBRANCH   9  33
TORSDOF 9
ENDMDL
MODEL 5
REMARK VINA RESULT:      -7.5      3.846      8.320
REMARK  Name = NuBBE_1369
REMARK  15 active torsions:
REMARK  status: ('A' for Active; 'I' for Inactive)
REMARK    1  A    between atoms: C_7  and  C_27
REMARK    2  A    between atoms: C_8  and  C_10
REMARK    3  A    between atoms: C_10  and  C_11
REMARK    4  A    between atoms: C_11  and  O_12
REMARK    5  A    between atoms: O_12  and  C_13
REMARK    6  A    between atoms: C_15  and  C_16
REMARK    7  A    between atoms: C_15  and  C_25
REMARK    8  A    between atoms: C_16  and  O_18
REMARK    9  A    between atoms: C_16  and  C_22
REMARK   10  A    between atoms: O_18  and  C_19
REMARK   11  A    between atoms: C_19  and  C_20
REMARK   12  A    between atoms: C_22  and  C_23
REMARK   13  A    between atoms: C_28  and  O_29
REMARK   14  A    between atoms: C_33  and  C_34
REMARK   15  A    between atoms: C_35  and  C_37
REMARK                            x       y       z     vdW  Elec       q    Type
REMARK                         _______ _______ _______ _____ _____    ______ ____
ROOT
ATOM      1  O   LIG A   1      -5.287   7.530 130.354  0.00  0.00    -0.246 OA
ATOM      2  C   LIG A   1      -6.085   6.680 130.730  0.00  0.00    +0.333 C 
ATOM      3  C   LIG A   1      -5.610   5.349 131.146  0.00  0.00    +0.099 C 
ATOM      4  C   LIG A   1      -6.461   4.352 131.420  0.00  0.00    +0.011 C 
ATOM      5  C   LIG A   1      -6.067   2.962 131.591  0.00  0.00    +0.128 C 
ATOM      6  C   LIG A   1      -6.920   2.024 132.006  0.00  0.00    -0.015 C 
ATOM      7  C   LIG A   1      -6.502   0.687 131.443  0.00  0.00    +0.062 C 
ATOM      8  C   LIG A   1      -6.285  -0.419 132.528  0.00  0.00    +0.026 C 
ATOM      9  C   LIG A   1      -4.731  -0.862 132.436  0.00  0.00    +0.022 C 
ATOM     10  C   LIG A   1      -4.161  -0.928 133.876  0.00  0.00    +0.015 C 
ATOM     11  C   LIG A   1      -4.068   0.388 131.781  0.00  0.00    +0.090 C 
ATOM     12  C   LIG A   1      -7.475   0.362 130.298  0.00  0.00    +0.023 C 
ATOM     13  C   LIG A   1      -5.096   1.068 130.890  0.00  0.00    +0.220 C 
ATOM     14  O   LIG A   1      -4.938   2.506 130.936  0.00  0.00    -0.460 OA
ATOM     15  C   LIG A   1      -8.267   2.305 132.585  0.00  0.00    +0.036 C 
ATOM     16  C   LIG A   1      -8.575   3.806 132.609  0.00  0.00    +0.020 C 
ATOM     17  C   LIG A   1      -7.975   4.582 131.400  0.00  0.00    +0.038 C 
ATOM     18  C   LIG A   1      -8.499   4.064 130.034  0.00  0.00    +0.020 C 
ATOM     19  C   LIG A   1      -8.272   6.100 131.563  0.00  0.00    +0.220 C 
ATOM     20  O   LIG A   1      -7.424   6.882 130.694  0.00  0.00    -0.453 OA
ENDROOT
BRANCH  19  21
ATOM     21  C   LIG A   1      -9.728   6.466 131.334  0.00  0.00    +0.031 A 
ATOM     22  C   LIG A   1     -10.281   7.110 130.240  0.00  0.00    +0.202 A 
ATOM     23  O   LIG A   1     -11.620   7.268 130.385  0.00  0.00    -0.471 OA
ATOM     24  C   LIG A   1     -11.953   6.733 131.584  0.00  0.00    +0.195 A 
ATOM     25  C   LIG A   1     -10.836   6.223 132.204  0.00  0.00    +0.048 A 
ENDBRANCH  19  21
BRANCH  13  26
ATOM     26  O   LIG A   1      -4.908   0.670 129.541  0.00  0.00    -0.355 OA
ATOM     27  H   LIG A   1      -4.600  -0.251 129.598  0.00  0.00    +0.214 HD
ENDBRANCH  13  26
BRANCH   8  28
ATOM     28  C   LIG A   1      -7.327  -1.562 132.600  0.00  0.00    +0.126 C 
BRANCH  28  29
ATOM     29  C   LIG A   1      -7.583  -2.239 133.981  0.00  0.00    +0.307 C 
ATOM     30  O   LIG A   1      -7.199  -1.822 135.048  0.00  0.00    -0.251 OA
BRANCH  29  31
ATOM     31  O   LIG A   1      -8.190  -3.457 133.756  0.00  0.00    -0.468 OA
ATOM     32  C   LIG A   1      -8.407  -4.301 134.899  0.00  0.00    +0.280 C 
ENDBRANCH  29  31
ENDBRANCH  28  29
ENDBRANCH   8  28
BRANCH   9  33
ATOM     33  C   LIG A   1      -4.390  -2.228 131.665  0.00  0.00    +0.248 C 
BRANCH  33  34
ATOM     34  C   LIG A   1      -3.916  -3.398 132.601  0.00  0.00    +0.171 C 
ATOM     35  C   LIG A   1      -4.911  -4.484 132.986  0.00  0.00    +0.090 C 
ATOM     36  O   LIG A   1      -2.740  -3.508 132.956  0.00  0.00    -0.294 OA
ENDBRANCH  33  34
BRANCH  33  37
ATOM     37  O   LIG A   1      -3.475  -1.933 130.598  0.00  0.00    -0.453 OA
BRANCH  37  38
ATOM     38  C   LIG A   1      -3.404  -2.772 129.533  0.00  0.00    +0.305 C 
ATOM     39  C   LIG A   1      -4.710  -2.788 128.825  0.00  0.00    +0.136 C 
ATOM     40  O   LIG A   1      -2.472  -3.520 129.235  0.00  0.00    -0.251 OA
ENDBRANCH  37  38
ENDBRANCH  33  37
ENDBRANCH   9  33
TORSDOF 9
ENDMDL
MODEL 6
REMARK VINA RESULT:      -7.5      2.706      8.961
REMARK  Name = NuBBE_1369
REMARK  15 active torsions:
REMARK  status: ('A' for Active; 'I' for Inactive)
REMARK    1  A    between atoms: C_7  and  C_27
REMARK    2  A    between atoms: C_8  and  C_10
REMARK    3  A    between atoms: C_10  and  C_11
REMARK    4  A    between atoms: C_11  and  O_12
REMARK    5  A    between atoms: O_12  and  C_13
REMARK    6  A    between atoms: C_15  and  C_16
REMARK    7  A    between atoms: C_15  and  C_25
REMARK    8  A    between atoms: C_16  and  O_18
REMARK    9  A    between atoms: C_16  and  C_22
REMARK   10  A    between atoms: O_18  and  C_19
REMARK   11  A    between atoms: C_19  and  C_20
REMARK   12  A    between atoms: C_22  and  C_23
REMARK   13  A    between atoms: C_28  and  O_29
REMARK   14  A    between atoms: C_33  and  C_34
REMARK   15  A    between atoms: C_35  and  C_37
REMARK                            x       y       z     vdW  Elec       q    Type
REMARK                         _______ _______ _______ _____ _____    ______ ____
ROOT
ATOM      1  O   LIG A   1      -4.830   1.593 133.470  0.00  0.00    -0.246 OA
ATOM      2  C   LIG A   1      -4.969   2.181 132.405  0.00  0.00    +0.333 C 
ATOM      3  C   LIG A   1      -5.722   1.556 131.304  0.00  0.00    +0.099 C 
ATOM      4  C   LIG A   1      -5.767   2.103 130.082  0.00  0.00    +0.011 C 
ATOM      5  C   LIG A   1      -6.273   1.424 128.899  0.00  0.00    +0.128 C 
ATOM      6  C   LIG A   1      -6.437   2.050 127.733  0.00  0.00    -0.015 C 
ATOM      7  C   LIG A   1      -6.281   1.056 126.608  0.00  0.00    +0.062 C 
ATOM      8  C   LIG A   1      -7.504   1.001 125.634  0.00  0.00    +0.026 C 
ATOM      9  C   LIG A   1      -8.105  -0.499 125.727  0.00  0.00    +0.022 C 
ATOM     10  C   LIG A   1      -9.648  -0.394 125.851  0.00  0.00    +0.015 C 
ATOM     11  C   LIG A   1      -7.606  -0.971 127.126  0.00  0.00    +0.090 C 
ATOM     12  C   LIG A   1      -4.899   1.304 125.982  0.00  0.00    +0.023 C 
ATOM     13  C   LIG A   1      -6.291  -0.268 127.430  0.00  0.00    +0.220 C 
ATOM     14  O   LIG A   1      -6.196   0.045 128.840  0.00  0.00    -0.460 OA
ATOM     15  C   LIG A   1      -6.382   3.531 127.555  0.00  0.00    +0.036 C 
ATOM     16  C   LIG A   1      -6.071   4.252 128.871  0.00  0.00    +0.020 C 
ATOM     17  C   LIG A   1      -5.109   3.457 129.802  0.00  0.00    +0.038 C 
ATOM     18  C   LIG A   1      -3.735   3.170 129.141  0.00  0.00    +0.020 C 
ATOM     19  C   LIG A   1      -4.927   4.233 131.138  0.00  0.00    +0.220 C 
ATOM     20  O   LIG A   1      -4.371   3.371 132.156  0.00  0.00    -0.453 OA
ENDROOT
BRANCH  19  21
ATOM     21  C   LIG A   1      -4.084   5.489 131.005  0.00  0.00    +0.031 A 
ATOM     22  C   LIG A   1      -2.722   5.625 131.214  0.00  0.00    +0.202 A 
ATOM     23  O   LIG A   1      -2.315   6.902 131.000  0.00  0.00    -0.471 OA
ATOM     24  C   LIG A   1      -3.415   7.613 130.655  0.00  0.00    +0.195 A 
ATOM     25  C   LIG A   1      -4.523   6.798 130.637  0.00  0.00    +0.048 A 
ENDBRANCH  19  21
BRANCH  13  26
ATOM     26  O   LIG A   1      -5.201  -1.120 127.117  0.00  0.00    -0.355 OA
ATOM     27  H   LIG A   1      -5.221  -1.198 126.147  0.00  0.00    +0.214 HD
ENDBRANCH  13  26
BRANCH   8  28
ATOM     28  C   LIG A   1      -7.310   1.582 124.212  0.00  0.00    +0.126 C 
BRANCH  28  29
ATOM     29  C   LIG A   1      -7.643   3.087 123.981  0.00  0.00    +0.307 C 
ATOM     30  O   LIG A   1      -8.594   3.674 124.441  0.00  0.00    -0.251 OA
BRANCH  29  31
ATOM     31  O   LIG A   1      -6.754   3.587 123.051  0.00  0.00    -0.468 OA
ATOM     32  C   LIG A   1      -5.593   4.268 123.556  0.00  0.00    +0.280 C 
ENDBRANCH  29  31
ENDBRANCH  28  29
ENDBRANCH   8  28
BRANCH   9  33
ATOM     33  C   LIG A   1      -7.735  -1.524 124.549  0.00  0.00    +0.248 C 
BRANCH  33  34
ATOM     34  C   LIG A   1      -8.545  -2.871 124.584  0.00  0.00    +0.171 C 
ATOM     35  C   LIG A   1      -9.490  -3.193 123.435  0.00  0.00    +0.090 C 
ATOM     36  O   LIG A   1      -8.368  -3.710 125.470  0.00  0.00    -0.294 OA
ENDBRANCH  33  34
BRANCH  33  37
ATOM     37  O   LIG A   1      -6.310  -1.706 124.535  0.00  0.00    -0.453 OA
BRANCH  37  38
ATOM     38  C   LIG A   1      -5.732  -2.343 123.484  0.00  0.00    +0.305 C 
ATOM     39  C   LIG A   1      -4.787  -3.374 123.986  0.00  0.00    +0.136 C 
ATOM     40  O   LIG A   1      -5.841  -2.060 122.291  0.00  0.00    -0.251 OA
ENDBRANCH  37  38
ENDBRANCH  33  37
ENDBRANCH   9  33
TORSDOF 9
ENDMDL
MODEL 7
REMARK VINA RESULT:      -7.3      2.999      4.579
REMARK  Name = NuBBE_1369
REMARK  15 active torsions:
REMARK  status: ('A' for Active; 'I' for Inactive)
REMARK    1  A    between atoms: C_7  and  C_27
REMARK    2  A    between atoms: C_8  and  C_10
REMARK    3  A    between atoms: C_10  and  C_11
REMARK    4  A    between atoms: C_11  and  O_12
REMARK    5  A    between atoms: O_12  and  C_13
REMARK    6  A    between atoms: C_15  and  C_16
REMARK    7  A    between atoms: C_15  and  C_25
REMARK    8  A    between atoms: C_16  and  O_18
REMARK    9  A    between atoms: C_16  and  C_22
REMARK   10  A    between atoms: O_18  and  C_19
REMARK   11  A    between atoms: C_19  and  C_20
REMARK   12  A    between atoms: C_22  and  C_23
REMARK   13  A    between atoms: C_28  and  O_29
REMARK   14  A    between atoms: C_33  and  C_34
REMARK   15  A    between atoms: C_35  and  C_37
REMARK                            x       y       z     vdW  Elec       q    Type
REMARK                         _______ _______ _______ _____ _____    ______ ____
ROOT
ATOM      1  O   LIG A   1      -5.363   4.546 122.239  0.00  0.00    -0.246 OA
ATOM      2  C   LIG A   1      -5.878   3.975 123.192  0.00  0.00    +0.333 C 
ATOM      3  C   LIG A   1      -5.744   4.530 124.551  0.00  0.00    +0.099 C 
ATOM      4  C   LIG A   1      -6.165   3.858 125.630  0.00  0.00    +0.011 C 
ATOM      5  C   LIG A   1      -5.843   4.225 127.000  0.00  0.00    +0.128 C 
ATOM      6  C   LIG A   1      -6.400   3.620 128.051  0.00  0.00    -0.015 C 
ATOM      7  C   LIG A   1      -5.445   3.672 129.218  0.00  0.00    +0.062 C 
ATOM      8  C   LIG A   1      -6.052   4.316 130.508  0.00  0.00    +0.026 C 
ATOM      9  C   LIG A   1      -5.166   5.631 130.833  0.00  0.00    +0.022 C 
ATOM     10  C   LIG A   1      -6.134   6.798 131.158  0.00  0.00    +0.015 C 
ATOM     11  C   LIG A   1      -4.555   5.972 129.440  0.00  0.00    +0.090 C 
ATOM     12  C   LIG A   1      -4.835   2.267 129.359  0.00  0.00    +0.023 C 
ATOM     13  C   LIG A   1      -4.399   4.679 128.653  0.00  0.00    +0.220 C 
ATOM     14  O   LIG A   1      -4.664   4.903 127.248  0.00  0.00    -0.460 OA
ATOM     15  C   LIG A   1      -7.577   2.706 127.972  0.00  0.00    +0.036 C 
ATOM     16  C   LIG A   1      -8.050   2.509 126.528  0.00  0.00    +0.020 C 
ATOM     17  C   LIG A   1      -6.891   2.518 125.488  0.00  0.00    +0.038 C 
ATOM     18  C   LIG A   1      -5.845   1.401 125.747  0.00  0.00    +0.020 C 
ATOM     19  C   LIG A   1      -7.484   2.396 124.055  0.00  0.00    +0.220 C 
ATOM     20  O   LIG A   1      -6.505   2.781 123.065  0.00  0.00    -0.453 OA
ENDROOT
BRANCH  19  21
ATOM     21  C   LIG A   1      -8.031   1.017 123.734  0.00  0.00    +0.031 A 
ATOM     22  C   LIG A   1      -9.341   0.580 123.821  0.00  0.00    +0.202 A 
ATOM     23  O   LIG A   1      -9.455  -0.721 123.452  0.00  0.00    -0.471 OA
ATOM     24  C   LIG A   1      -8.210  -1.147 123.125  0.00  0.00    +0.195 A 
ATOM     25  C   LIG A   1      -7.302  -0.124 123.274  0.00  0.00    +0.048 A 
ENDBRANCH  19  21
BRANCH  13  26
ATOM     26  O   LIG A   1      -3.065   4.206 128.756  0.00  0.00    -0.355 OA
ATOM     27  H   LIG A   1      -2.654   4.448 127.908  0.00  0.00    +0.214 HD
ENDBRANCH  13  26
BRANCH   8  28
ATOM     28  C   LIG A   1      -6.357   3.375 131.700  0.00  0.00    +0.126 C 
BRANCH  28  29
ATOM     29  C   LIG A   1      -7.844   3.193 132.132  0.00  0.00    +0.307 C 
ATOM     30  O   LIG A   1      -8.254   2.348 132.892  0.00  0.00    -0.251 OA
BRANCH  29  31
ATOM     31  O   LIG A   1      -8.617   4.062 131.389  0.00  0.00    -0.468 OA
ATOM     32  C   LIG A   1      -9.832   3.539 130.827  0.00  0.00    +0.280 C 
ENDBRANCH  29  31
ENDBRANCH  28  29
ENDBRANCH   8  28
BRANCH   9  33
ATOM     33  C   LIG A   1      -4.061   5.517 131.991  0.00  0.00    +0.248 C 
BRANCH  33  34
ATOM     34  C   LIG A   1      -3.672   6.889 132.652  0.00  0.00    +0.171 C 
ATOM     35  C   LIG A   1      -2.951   7.934 131.812  0.00  0.00    +0.090 C 
ATOM     36  O   LIG A   1      -4.014   7.175 133.802  0.00  0.00    -0.294 OA
ENDBRANCH  33  34
BRANCH  33  37
ATOM     37  O   LIG A   1      -2.938   4.782 131.479  0.00  0.00    -0.453 OA
BRANCH  37  38
ATOM     38  C   LIG A   1      -2.044   4.245 132.348  0.00  0.00    +0.305 C 
ATOM     39  C   LIG A   1      -2.664   3.090 133.048  0.00  0.00    +0.136 C 
ATOM     40  O   LIG A   1      -0.932   4.685 132.640  0.00  0.00    -0.251 OA
ENDBRANCH  37  38
ENDBRANCH  33  37
ENDBRANCH   9  33
TORSDOF 9
ENDMDL
MODEL 8
REMARK VINA RESULT:      -7.1      2.392      4.350
REMARK  Name = NuBBE_1369
REMARK  15 active torsions:
REMARK  status: ('A' for Active; 'I' for Inactive)
REMARK    1  A    between atoms: C_7  and  C_27
REMARK    2  A    between atoms: C_8  and  C_10
REMARK    3  A    between atoms: C_10  and  C_11
REMARK    4  A    between atoms: C_11  and  O_12
REMARK    5  A    between atoms: O_12  and  C_13
REMARK    6  A    between atoms: C_15  and  C_16
REMARK    7  A    between atoms: C_15  and  C_25
REMARK    8  A    between atoms: C_16  and  O_18
REMARK    9  A    between atoms: C_16  and  C_22
REMARK   10  A    between atoms: O_18  and  C_19
REMARK   11  A    between atoms: C_19  and  C_20
REMARK   12  A    between atoms: C_22  and  C_23
REMARK   13  A    between atoms: C_28  and  O_29
REMARK   14  A    between atoms: C_33  and  C_34
REMARK   15  A    between atoms: C_35  and  C_37
REMARK                            x       y       z     vdW  Elec       q    Type
REMARK                         _______ _______ _______ _____ _____    ______ ____
ROOT
ATOM      1  O   LIG A   1      -9.460  -2.318 124.732  0.00  0.00    -0.246 OA
ATOM      2  C   LIG A   1      -8.825  -1.308 125.008  0.00  0.00    +0.333 C 
ATOM      3  C   LIG A   1      -8.213  -1.156 126.340  0.00  0.00    +0.099 C 
ATOM      4  C   LIG A   1      -7.641  -0.008 126.725  0.00  0.00    +0.011 C 
ATOM      5  C   LIG A   1      -7.248   0.293 128.092  0.00  0.00    +0.128 C 
ATOM      6  C   LIG A   1      -6.549   1.384 128.411  0.00  0.00    -0.015 C 
ATOM      7  C   LIG A   1      -6.882   1.792 129.825  0.00  0.00    +0.062 C 
ATOM      8  C   LIG A   1      -5.634   1.915 130.761  0.00  0.00    +0.026 C 
ATOM      9  C   LIG A   1      -5.831   0.827 131.943  0.00  0.00    +0.022 C 
ATOM     10  C   LIG A   1      -4.490   0.072 132.134  0.00  0.00    +0.015 C 
ATOM     11  C   LIG A   1      -6.800  -0.204 131.288  0.00  0.00    +0.090 C 
ATOM     12  C   LIG A   1      -7.808   3.016 129.731  0.00  0.00    +0.023 C 
ATOM     13  C   LIG A   1      -7.673   0.529 130.280  0.00  0.00    +0.220 C 
ATOM     14  O   LIG A   1      -7.935  -0.310 129.130  0.00  0.00    -0.460 OA
ATOM     15  C   LIG A   1      -5.874   2.272 127.420  0.00  0.00    +0.036 C 
ATOM     16  C   LIG A   1      -6.111   1.805 125.980  0.00  0.00    +0.020 C 
ATOM     17  C   LIG A   1      -7.517   1.172 125.757  0.00  0.00    +0.038 C 
ATOM     18  C   LIG A   1      -8.674   2.154 126.080  0.00  0.00    +0.020 C 
ATOM     19  C   LIG A   1      -7.624   0.658 124.293  0.00  0.00    +0.220 C 
ATOM     20  O   LIG A   1      -8.731  -0.260 124.155  0.00  0.00    -0.453 OA
ENDROOT
BRANCH  19  21
ATOM     21  C   LIG A   1      -7.737   1.766 123.262  0.00  0.00    +0.031 A 
ATOM     22  C   LIG A   1      -8.888   2.294 122.703  0.00  0.00    +0.202 A 
ATOM     23  O   LIG A   1      -8.600   3.276 121.813  0.00  0.00    -0.471 OA
ATOM     24  C   LIG A   1      -7.251   3.394 121.779  0.00  0.00    +0.195 A 
ATOM     25  C   LIG A   1      -6.673   2.499 122.649  0.00  0.00    +0.048 A 
ENDBRANCH  19  21
BRANCH  13  26
ATOM     26  O   LIG A   1      -8.928   0.843 130.863  0.00  0.00    -0.355 OA
ATOM     27  H   LIG A   1      -8.993   1.812 130.794  0.00  0.00    +0.214 HD
ENDBRANCH  13  26
BRANCH   8  28
ATOM     28  C   LIG A   1      -5.205   3.338 131.195  0.00  0.00    +0.126 C 
BRANCH  28  29
ATOM     29  C   LIG A   1      -3.682   3.630 131.357  0.00  0.00    +0.307 C 
ATOM     30  O   LIG A   1      -3.037   3.451 132.362  0.00  0.00    -0.251 OA
BRANCH  29  31
ATOM     31  O   LIG A   1      -3.241   4.260 130.210  0.00  0.00    -0.468 OA
ATOM     32  C   LIG A   1      -4.165   5.143 129.552  0.00  0.00    +0.280 C 
ENDBRANCH  29  31
ENDBRANCH  28  29
ENDBRANCH   8  28
BRANCH   9  33
ATOM     33  C   LIG A   1      -6.349   1.358 133.366  0.00  0.00    +0.248 C 
BRANCH  33  34
ATOM     34  C   LIG A   1      -5.813   0.542 134.597  0.00  0.00    +0.171 C 
ATOM     35  C   LIG A   1      -4.703   1.139 135.451  0.00  0.00    +0.090 C 
ATOM     36  O   LIG A   1      -6.327  -0.525 134.941  0.00  0.00    -0.294 OA
ENDBRANCH  33  34
BRANCH  33  37
ATOM     37  O   LIG A   1      -7.782   1.461 133.320  0.00  0.00    -0.453 OA
BRANCH  37  38
ATOM     38  C   LIG A   1      -8.362   2.688 133.373  0.00  0.00    +0.305 C 
ATOM     39  C   LIG A   1      -7.499   3.612 134.153  0.00  0.00    +0.136 C 
ATOM     40  O   LIG A   1      -9.482   2.999 132.967  0.00  0.00    -0.251 OA
ENDBRANCH  37  38
ENDBRANCH  33  37
ENDBRANCH   9  33
TORSDOF 9
ENDMDL
MODEL 9
REMARK VINA RESULT:      -7.1      3.359      7.262
REMARK  Name = NuBBE_1369
REMARK  15 active torsions:
REMARK  status: ('A' for Active; 'I' for Inactive)
REMARK    1  A    between atoms: C_7  and  C_27
REMARK    2  A    between atoms: C_8  and  C_10
REMARK    3  A    between atoms: C_10  and  C_11
REMARK    4  A    between atoms: C_11  and  O_12
REMARK    5  A    between atoms: O_12  and  C_13
REMARK    6  A    between atoms: C_15  and  C_16
REMARK    7  A    between atoms: C_15  and  C_25
REMARK    8  A    between atoms: C_16  and  O_18
REMARK    9  A    between atoms: C_16  and  C_22
REMARK   10  A    between atoms: O_18  and  C_19
REMARK   11  A    between atoms: C_19  and  C_20
REMARK   12  A    between atoms: C_22  and  C_23
REMARK   13  A    between atoms: C_28  and  O_29
REMARK   14  A    between atoms: C_33  and  C_34
REMARK   15  A    between atoms: C_35  and  C_37
REMARK                            x       y       z     vdW  Elec       q    Type
REMARK                         _______ _______ _______ _____ _____    ______ ____
ROOT
ATOM      1  O   LIG A   1      -5.326  -5.310 130.721  0.00  0.00    -0.246 OA
ATOM      2  C   LIG A   1      -5.864  -4.269 131.080  0.00  0.00    +0.333 C 
ATOM      3  C   LIG A   1      -6.008  -3.145 130.138  0.00  0.00    +0.099 C 
ATOM      4  C   LIG A   1      -6.454  -1.946 130.536  0.00  0.00    +0.011 C 
ATOM      5  C   LIG A   1      -6.386  -0.738 129.729  0.00  0.00    +0.128 C 
ATOM      6  C   LIG A   1      -6.971   0.402 130.100  0.00  0.00    -0.015 C 
ATOM      7  C   LIG A   1      -6.205   1.566 129.521  0.00  0.00    +0.062 C 
ATOM      8  C   LIG A   1      -7.080   2.539 128.663  0.00  0.00    +0.026 C 
ATOM      9  C   LIG A   1      -6.476   2.506 127.162  0.00  0.00    +0.022 C 
ATOM     10  C   LIG A   1      -7.659   2.374 126.168  0.00  0.00    +0.015 C 
ATOM     11  C   LIG A   1      -5.748   1.128 127.127  0.00  0.00    +0.090 C 
ATOM     12  C   LIG A   1      -5.395   2.185 130.673  0.00  0.00    +0.023 C 
ATOM     13  C   LIG A   1      -5.274   0.798 128.535  0.00  0.00    +0.220 C 
ATOM     14  O   LIG A   1      -5.380  -0.623 128.787  0.00  0.00    -0.460 OA
ATOM     15  C   LIG A   1      -7.959   0.520 131.213  0.00  0.00    +0.036 C 
ATOM     16  C   LIG A   1      -8.193  -0.823 131.912  0.00  0.00    +0.020 C 
ATOM     17  C   LIG A   1      -6.922  -1.720 131.976  0.00  0.00    +0.038 C 
ATOM     18  C   LIG A   1      -5.750  -1.045 132.737  0.00  0.00    +0.020 C 
ATOM     19  C   LIG A   1      -7.287  -3.085 132.626  0.00  0.00    +0.220 C 
ATOM     20  O   LIG A   1      -6.260  -4.067 132.359  0.00  0.00    -0.453 OA
ENDROOT
BRANCH  19  21
ATOM     21  C   LIG A   1      -7.548  -3.002 134.119  0.00  0.00    +0.031 A 
ATOM     22  C   LIG A   1      -6.837  -2.289 135.069  0.00  0.00    +0.202 A 
ATOM     23  O   LIG A   1      -7.365  -2.453 136.308  0.00  0.00    -0.471 OA
ATOM     24  C   LIG A   1      -8.427  -3.285 136.176  0.00  0.00    +0.195 A 
ATOM     25  C   LIG A   1      -8.588  -3.647 134.859  0.00  0.00    +0.048 A 
ENDBRANCH  19  21
BRANCH  13  26
ATOM     26  O   LIG A   1      -3.906   1.147 128.682  0.00  0.00    -0.355 OA
ATOM     27  H   LIG A   1      -3.841   2.043 128.307  0.00  0.00    +0.214 HD
ENDBRANCH  13  26
BRANCH   8  28
ATOM     28  C   LIG A   1      -7.382   3.937 129.257  0.00  0.00    +0.126 C 
BRANCH  28  29
ATOM     29  C   LIG A   1      -8.784   4.563 128.987  0.00  0.00    +0.307 C 
ATOM     30  O   LIG A   1      -8.992   5.573 128.357  0.00  0.00    -0.251 OA
BRANCH  29  31
ATOM     31  O   LIG A   1      -9.719   3.851 129.710  0.00  0.00    -0.468 OA
ATOM     32  C   LIG A   1      -9.607   3.889 131.143  0.00  0.00    +0.280 C 
ENDBRANCH  29  31
ENDBRANCH  28  29
ENDBRANCH   8  28
BRANCH   9  33
ATOM     33  C   LIG A   1      -5.535   3.724 126.710  0.00  0.00    +0.248 C 
BRANCH  33  34
ATOM     34  C   LIG A   1      -6.123   4.600 125.544  0.00  0.00    +0.171 C 
ATOM     35  C   LIG A   1      -5.688   4.312 124.114  0.00  0.00    +0.090 C 
ATOM     36  O   LIG A   1      -6.991   5.451 125.748  0.00  0.00    -0.294 OA
ENDBRANCH  33  34
BRANCH  33  37
ATOM     37  O   LIG A   1      -4.221   3.210 126.441  0.00  0.00    -0.453 OA
BRANCH  37  38
ATOM     38  C   LIG A   1      -3.134   3.937 126.808  0.00  0.00    +0.305 C 
ATOM     39  C   LIG A   1      -1.899   3.158 126.531  0.00  0.00    +0.136 C 
ATOM     40  O   LIG A   1      -3.126   5.017 127.398  0.00  0.00    -0.251 OA
ENDBRANCH  37  38
ENDBRANCH  33  37
ENDBRANCH   9  33
TORSDOF 9
ENDMDL
