MODEL 1
REMARK VINA RESULT:      -7.0      0.000      0.000
REMARK  Name = NuBBE_1598
REMARK  4 active torsions:
REMARK  status: ('A' for Active; 'I' for Inactive)
REMARK    1  A    between atoms: C_1  and  C_6
REMARK    2  A    between atoms: C_2  and  C_3
REMARK    3  A    between atoms: C_3  and  C_4
REMARK    4  A    between atoms: C_4  and  C_5
REMARK                            x       y       z     vdW  Elec       q    Type
REMARK                         _______ _______ _______ _____ _____    ______ ____
ROOT
ATOM      1  C   LIG A   1      -8.913   6.603 131.224  0.00  0.00    +0.064 A 
ATOM      2  N   LIG A   1      -9.102   7.267 130.060  0.00  0.00    -0.247 NA
ATOM      3  C   LIG A   1     -10.358   7.540 129.668  0.00  0.00    +0.072 A 
ATOM      4  C   LIG A   1     -11.487   7.161 130.426  0.00  0.00    +0.000 A 
ATOM      5  C   LIG A   1     -11.268   6.477 131.625  0.00  0.00    +0.012 A 
ATOM      6  C   LIG A   1      -9.966   6.194 132.031  0.00  0.00    +0.028 A 
ATOM      7  C   LIG A   1     -12.781   7.469 129.972  0.00  0.00    +0.010 A 
ATOM      8  C   LIG A   1     -12.962   8.154 128.772  0.00  0.00    +0.001 A 
ATOM      9  C   LIG A   1     -11.853   8.531 128.023  0.00  0.00    +0.002 A 
ATOM     10  C   LIG A   1     -10.568   8.222 128.478  0.00  0.00    +0.028 A 
ENDROOT
BRANCH   1  11
ATOM     11  C   LIG A   1      -7.526   6.322 131.629  0.00  0.00    +0.023 C 
ATOM     12  C   LIG A   1      -6.447   6.957 131.140  0.00  0.00    -0.025 C 
BRANCH  12  13
ATOM     13  C   LIG A   1      -5.039   6.664 131.568  0.00  0.00    +0.027 C 
BRANCH  13  14
ATOM     14  C   LIG A   1      -4.040   7.575 130.853  0.00  0.00    +0.001 C 
ATOM     15  C   LIG A   1      -3.000   8.126 131.817  0.00  0.00    +0.004 C 
ENDBRANCH  13  14
ENDBRANCH  12  13
ENDBRANCH   1  11
TORSDOF 3
ENDMDL
MODEL 2
REMARK VINA RESULT:      -6.5      1.573      2.140
REMARK  Name = NuBBE_1598
REMARK  4 active torsions:
REMARK  status: ('A' for Active; 'I' for Inactive)
REMARK    1  A    between atoms: C_1  and  C_6
REMARK    2  A    between atoms: C_2  and  C_3
REMARK    3  A    between atoms: C_3  and  C_4
REMARK    4  A    between atoms: C_4  and  C_5
REMARK                            x       y       z     vdW  Elec       q    Type
REMARK                         _______ _______ _______ _____ _____    ______ ____
ROOT
ATOM      1  C   LIG A   1      -9.055   6.697 131.230  0.00  0.00    +0.064 A 
ATOM      2  N   LIG A   1      -9.239   7.356 130.063  0.00  0.00    -0.247 NA
ATOM      3  C   LIG A   1     -10.494   7.556 129.625  0.00  0.00    +0.072 A 
ATOM      4  C   LIG A   1     -11.625   7.105 130.337  0.00  0.00    +0.000 A 
ATOM      5  C   LIG A   1     -11.411   6.427 131.541  0.00  0.00    +0.012 A 
ATOM      6  C   LIG A   1     -10.111   6.219 131.995  0.00  0.00    +0.028 A 
ATOM      7  C   LIG A   1     -12.918   7.338 129.836  0.00  0.00    +0.010 A 
ATOM      8  C   LIG A   1     -13.094   8.019 128.633  0.00  0.00    +0.001 A 
ATOM      9  C   LIG A   1     -11.982   8.467 127.929  0.00  0.00    +0.002 A 
ATOM     10  C   LIG A   1     -10.699   8.232 128.430  0.00  0.00    +0.028 A 
ENDROOT
BRANCH   1  11
ATOM     11  C   LIG A   1      -7.670   6.497 131.687  0.00  0.00    +0.023 C 
ATOM     12  C   LIG A   1      -7.317   5.727 132.731  0.00  0.00    -0.025 C 
BRANCH  12  13
ATOM     13  C   LIG A   1      -5.899   5.528 133.181  0.00  0.00    +0.027 C 
BRANCH  13  14
ATOM     14  C   LIG A   1      -5.775   5.661 134.700  0.00  0.00    +0.001 C 
ATOM     15  C   LIG A   1      -7.080   5.314 135.399  0.00  0.00    +0.004 C 
ENDBRANCH  13  14
ENDBRANCH  12  13
ENDBRANCH   1  11
TORSDOF 3
ENDMDL
MODEL 3
REMARK VINA RESULT:      -6.4      1.466      6.250
REMARK  Name = NuBBE_1598
REMARK  4 active torsions:
REMARK  status: ('A' for Active; 'I' for Inactive)
REMARK    1  A    between atoms: C_1  and  C_6
REMARK    2  A    between atoms: C_2  and  C_3
REMARK    3  A    between atoms: C_3  and  C_4
REMARK    4  A    between atoms: C_4  and  C_5
REMARK                            x       y       z     vdW  Elec       q    Type
REMARK                         _______ _______ _______ _____ _____    ______ ____
ROOT
ATOM      1  C   LIG A   1      -9.444   7.189 130.313  0.00  0.00    +0.064 A 
ATOM      2  N   LIG A   1      -8.095   7.292 130.281  0.00  0.00    -0.247 NA
ATOM      3  C   LIG A   1      -7.381   6.735 131.274  0.00  0.00    +0.072 A 
ATOM      4  C   LIG A   1      -7.985   6.048 132.348  0.00  0.00    +0.000 A 
ATOM      5  C   LIG A   1      -9.381   5.954 132.361  0.00  0.00    +0.012 A 
ATOM      6  C   LIG A   1     -10.120   6.531 131.332  0.00  0.00    +0.028 A 
ATOM      7  C   LIG A   1      -7.194   5.484 133.365  0.00  0.00    +0.010 A 
ATOM      8  C   LIG A   1      -5.806   5.596 133.319  0.00  0.00    +0.001 A 
ATOM      9  C   LIG A   1      -5.206   6.269 132.261  0.00  0.00    +0.002 A 
ATOM     10  C   LIG A   1      -5.997   6.830 131.254  0.00  0.00    +0.028 A 
ENDROOT
BRANCH   1  11
ATOM     11  C   LIG A   1     -10.199   7.804 129.209  0.00  0.00    +0.023 C 
ATOM     12  C   LIG A   1     -10.616   7.146 128.114  0.00  0.00    -0.025 C 
BRANCH  12  13
ATOM     13  C   LIG A   1     -11.391   7.785 126.999  0.00  0.00    +0.027 C 
BRANCH  13  14
ATOM     14  C   LIG A   1     -12.690   7.029 126.720  0.00  0.00    +0.001 C 
ATOM     15  C   LIG A   1     -13.647   7.108 127.900  0.00  0.00    +0.004 C 
ENDBRANCH  13  14
ENDBRANCH  12  13
ENDBRANCH   1  11
TORSDOF 3
ENDMDL
MODEL 4
REMARK VINA RESULT:      -6.2     11.005     11.536
REMARK  Name = NuBBE_1598
REMARK  4 active torsions:
REMARK  status: ('A' for Active; 'I' for Inactive)
REMARK    1  A    between atoms: C_1  and  C_6
REMARK    2  A    between atoms: C_2  and  C_3
REMARK    3  A    between atoms: C_3  and  C_4
REMARK    4  A    between atoms: C_4  and  C_5
REMARK                            x       y       z     vdW  Elec       q    Type
REMARK                         _______ _______ _______ _____ _____    ______ ____
ROOT
ATOM      1  C   LIG A   1      -7.535  -2.756 127.529  0.00  0.00    +0.064 A 
ATOM      2  N   LIG A   1      -6.786  -2.278 126.509  0.00  0.00    -0.247 NA
ATOM      3  C   LIG A   1      -7.299  -2.293 125.267  0.00  0.00    +0.072 A 
ATOM      4  C   LIG A   1      -8.590  -2.790 124.988  0.00  0.00    +0.000 A 
ATOM      5  C   LIG A   1      -9.347  -3.279 126.057  0.00  0.00    +0.012 A 
ATOM      6  C   LIG A   1      -8.815  -3.263 127.344  0.00  0.00    +0.028 A 
ATOM      7  C   LIG A   1      -9.082  -2.786 123.671  0.00  0.00    +0.010 A 
ATOM      8  C   LIG A   1      -8.300  -2.289 122.629  0.00  0.00    +0.001 A 
ATOM      9  C   LIG A   1      -7.028  -1.797 122.900  0.00  0.00    +0.002 A 
ATOM     10  C   LIG A   1      -6.543  -1.804 124.211  0.00  0.00    +0.028 A 
ENDROOT
BRANCH   1  11
ATOM     11  C   LIG A   1      -6.948  -2.722 128.878  0.00  0.00    +0.023 C 
ATOM     12  C   LIG A   1      -6.839  -3.790 129.687  0.00  0.00    -0.025 C 
BRANCH  12  13
ATOM     13  C   LIG A   1      -6.232  -3.740 131.059  0.00  0.00    +0.027 C 
BRANCH  13  14
ATOM     14  C   LIG A   1      -5.444  -5.015 131.365  0.00  0.00    +0.001 C 
ATOM     15  C   LIG A   1      -5.194  -5.171 132.857  0.00  0.00    +0.004 C 
ENDBRANCH  13  14
ENDBRANCH  12  13
ENDBRANCH   1  11
TORSDOF 3
ENDMDL
MODEL 5
REMARK VINA RESULT:      -6.1      2.847      6.504
REMARK  Name = NuBBE_1598
REMARK  4 active torsions:
REMARK  status: ('A' for Active; 'I' for Inactive)
REMARK    1  A    between atoms: C_1  and  C_6
REMARK    2  A    between atoms: C_2  and  C_3
REMARK    3  A    between atoms: C_3  and  C_4
REMARK    4  A    between atoms: C_4  and  C_5
REMARK                            x       y       z     vdW  Elec       q    Type
REMARK                         _______ _______ _______ _____ _____    ______ ____
ROOT
ATOM      1  C   LIG A   1     -10.385   6.253 130.852  0.00  0.00    +0.064 A 
ATOM      2  N   LIG A   1      -9.665   6.505 131.969  0.00  0.00    -0.247 NA
ATOM      3  C   LIG A   1      -9.143   5.469 132.648  0.00  0.00    +0.072 A 
ATOM      4  C   LIG A   1      -9.319   4.130 132.239  0.00  0.00    +0.000 A 
ATOM      5  C   LIG A   1     -10.066   3.894 131.081  0.00  0.00    +0.012 A 
ATOM      6  C   LIG A   1     -10.606   4.967 130.377  0.00  0.00    +0.028 A 
ATOM      7  C   LIG A   1      -8.754   3.080 132.985  0.00  0.00    +0.010 A 
ATOM      8  C   LIG A   1      -8.013   3.353 134.134  0.00  0.00    +0.001 A 
ATOM      9  C   LIG A   1      -7.836   4.671 134.540  0.00  0.00    +0.002 A 
ATOM     10  C   LIG A   1      -8.401   5.711 133.796  0.00  0.00    +0.028 A 
ENDROOT
BRANCH   1  11
ATOM     11  C   LIG A   1     -10.940   7.408 130.126  0.00  0.00    +0.023 C 
ATOM     12  C   LIG A   1     -12.236   7.764 130.142  0.00  0.00    -0.025 C 
BRANCH  12  13
ATOM     13  C   LIG A   1     -12.786   8.948 129.401  0.00  0.00    +0.027 C 
BRANCH  13  14
ATOM     14  C   LIG A   1     -13.411   8.529 128.069  0.00  0.00    +0.001 C 
ATOM     15  C   LIG A   1     -13.834   7.068 128.087  0.00  0.00    +0.004 C 
ENDBRANCH  13  14
ENDBRANCH  12  13
ENDBRANCH   1  11
TORSDOF 3
ENDMDL
MODEL 6
REMARK VINA RESULT:      -6.1      1.996      6.576
REMARK  Name = NuBBE_1598
REMARK  4 active torsions:
REMARK  status: ('A' for Active; 'I' for Inactive)
REMARK    1  A    between atoms: C_1  and  C_6
REMARK    2  A    between atoms: C_2  and  C_3
REMARK    3  A    between atoms: C_3  and  C_4
REMARK    4  A    between atoms: C_4  and  C_5
REMARK                            x       y       z     vdW  Elec       q    Type
REMARK                         _______ _______ _______ _____ _____    ______ ____
ROOT
ATOM      1  C   LIG A   1     -10.186   6.479 131.321  0.00  0.00    +0.064 A 
ATOM      2  N   LIG A   1     -10.025   5.772 132.464  0.00  0.00    -0.247 NA
ATOM      3  C   LIG A   1      -8.781   5.575 132.933  0.00  0.00    +0.072 A 
ATOM      4  C   LIG A   1      -7.637   6.078 132.278  0.00  0.00    +0.000 A 
ATOM      5  C   LIG A   1      -7.827   6.806 131.099  0.00  0.00    +0.012 A 
ATOM      6  C   LIG A   1      -9.115   7.010 130.613  0.00  0.00    +0.028 A 
ATOM      7  C   LIG A   1      -6.356   5.844 132.807  0.00  0.00    +0.010 A 
ATOM      8  C   LIG A   1      -6.204   5.115 133.986  0.00  0.00    +0.001 A 
ATOM      9  C   LIG A   1      -7.329   4.619 134.636  0.00  0.00    +0.002 A 
ATOM     10  C   LIG A   1      -8.600   4.854 134.104  0.00  0.00    +0.028 A 
ENDROOT
BRANCH   1  11
ATOM     11  C   LIG A   1     -11.560   6.682 130.835  0.00  0.00    +0.023 C 
ATOM     12  C   LIG A   1     -11.887   6.906 129.550  0.00  0.00    -0.025 C 
BRANCH  12  13
ATOM     13  C   LIG A   1     -13.294   7.106 129.069  0.00  0.00    +0.027 C 
BRANCH  13  14
ATOM     14  C   LIG A   1     -13.340   7.297 127.552  0.00  0.00    +0.001 C 
ATOM     15  C   LIG A   1     -11.944   7.307 126.948  0.00  0.00    +0.004 C 
ENDBRANCH  13  14
ENDBRANCH  12  13
ENDBRANCH   1  11
TORSDOF 3
ENDMDL
MODEL 7
REMARK VINA RESULT:      -6.0      1.395      2.795
REMARK  Name = NuBBE_1598
REMARK  4 active torsions:
REMARK  status: ('A' for Active; 'I' for Inactive)
REMARK    1  A    between atoms: C_1  and  C_6
REMARK    2  A    between atoms: C_2  and  C_3
REMARK    3  A    between atoms: C_3  and  C_4
REMARK    4  A    between atoms: C_4  and  C_5
REMARK                            x       y       z     vdW  Elec       q    Type
REMARK                         _______ _______ _______ _____ _____    ______ ____
ROOT
ATOM      1  C   LIG A   1      -6.495   6.763 131.289  0.00  0.00    +0.064 A 
ATOM      2  N   LIG A   1      -7.486   7.188 130.471  0.00  0.00    -0.247 NA
ATOM      3  C   LIG A   1      -8.760   6.938 130.817  0.00  0.00    +0.072 A 
ATOM      4  C   LIG A   1      -9.102   6.249 132.000  0.00  0.00    +0.000 A 
ATOM      5  C   LIG A   1      -8.061   5.819 132.830  0.00  0.00    +0.012 A 
ATOM      6  C   LIG A   1      -6.741   6.079 132.471  0.00  0.00    +0.028 A 
ATOM      7  C   LIG A   1     -10.451   6.009 132.317  0.00  0.00    +0.010 A 
ATOM      8  C   LIG A   1     -11.463   6.453 131.467  0.00  0.00    +0.001 A 
ATOM      9  C   LIG A   1     -11.131   7.134 130.302  0.00  0.00    +0.002 A 
ATOM     10  C   LIG A   1      -9.788   7.368 129.990  0.00  0.00    +0.028 A 
ENDROOT
BRANCH   1  11
ATOM     11  C   LIG A   1      -5.109   7.057 130.887  0.00  0.00    +0.023 C 
ATOM     12  C   LIG A   1      -4.056   7.042 131.722  0.00  0.00    -0.025 C 
BRANCH  12  13
ATOM     13  C   LIG A   1      -2.648   7.338 131.296  0.00  0.00    +0.027 C 
BRANCH  13  14
ATOM     14  C   LIG A   1      -1.681   6.257 131.782  0.00  0.00    +0.001 C 
ATOM     15  C   LIG A   1      -0.494   6.860 132.517  0.00  0.00    +0.004 C 
ENDBRANCH  13  14
ENDBRANCH  12  13
ENDBRANCH   1  11
TORSDOF 3
ENDMDL
MODEL 8
REMARK VINA RESULT:      -5.9     10.487     12.135
REMARK  Name = NuBBE_1598
REMARK  4 active torsions:
REMARK  status: ('A' for Active; 'I' for Inactive)
REMARK    1  A    between atoms: C_1  and  C_6
REMARK    2  A    between atoms: C_2  and  C_3
REMARK    3  A    between atoms: C_3  and  C_4
REMARK    4  A    between atoms: C_4  and  C_5
REMARK                            x       y       z     vdW  Elec       q    Type
REMARK                         _______ _______ _______ _____ _____    ______ ____
ROOT
ATOM      1  C   LIG A   1      -7.803  -2.765 126.856  0.00  0.00    +0.064 A 
ATOM      2  N   LIG A   1      -6.545  -2.403 127.200  0.00  0.00    -0.247 NA
ATOM      3  C   LIG A   1      -6.126  -2.636 128.455  0.00  0.00    +0.072 A 
ATOM      4  C   LIG A   1      -6.948  -3.244 129.428  0.00  0.00    +0.000 A 
ATOM      5  C   LIG A   1      -8.244  -3.611 129.050  0.00  0.00    +0.012 A 
ATOM      6  C   LIG A   1      -8.678  -3.370 127.749  0.00  0.00    +0.028 A 
ATOM      7  C   LIG A   1      -6.464  -3.465 130.729  0.00  0.00    +0.010 A 
ATOM      8  C   LIG A   1      -5.166  -3.087 131.070  0.00  0.00    +0.001 A 
ATOM      9  C   LIG A   1      -4.352  -2.489 130.115  0.00  0.00    +0.002 A 
ATOM     10  C   LIG A   1      -4.839  -2.271 128.823  0.00  0.00    +0.028 A 
ENDROOT
BRANCH   1  11
ATOM     11  C   LIG A   1      -8.232  -2.503 125.473  0.00  0.00    +0.023 C 
ATOM     12  C   LIG A   1      -8.992  -3.336 124.741  0.00  0.00    -0.025 C 
BRANCH  12  13
ATOM     13  C   LIG A   1      -9.427  -3.052 123.333  0.00  0.00    +0.027 C 
BRANCH  13  14
ATOM     14  C   LIG A   1      -8.729  -1.809 122.777  0.00  0.00    +0.001 C 
ATOM     15  C   LIG A   1      -9.703  -0.653 122.606  0.00  0.00    +0.004 C 
ENDBRANCH  13  14
ENDBRANCH  12  13
ENDBRANCH   1  11
TORSDOF 3
ENDMDL
MODEL 9
REMARK VINA RESULT:      -5.7      2.350      6.410
REMARK  Name = NuBBE_1598
REMARK  4 active torsions:
REMARK  status: ('A' for Active; 'I' for Inactive)
REMARK    1  A    between atoms: C_1  and  C_6
REMARK    2  A    between atoms: C_2  and  C_3
REMARK    3  A    between atoms: C_3  and  C_4
REMARK    4  A    between atoms: C_4  and  C_5
REMARK                            x       y       z     vdW  Elec       q    Type
REMARK                         _______ _______ _______ _____ _____    ______ ____
ROOT
ATOM      1  C   LIG A   1      -9.546   5.994 130.304  0.00  0.00    +0.064 A 
ATOM      2  N   LIG A   1      -9.772   4.694 130.601  0.00  0.00    -0.247 NA
ATOM      3  C   LIG A   1      -9.063   4.124 131.590  0.00  0.00    +0.072 A 
ATOM      4  C   LIG A   1      -8.091   4.831 132.330  0.00  0.00    +0.000 A 
ATOM      5  C   LIG A   1      -7.874   6.174 132.005  0.00  0.00    +0.012 A 
ATOM      6  C   LIG A   1      -8.609   6.764 130.980  0.00  0.00    +0.028 A 
ATOM      7  C   LIG A   1      -7.374   4.190 133.354  0.00  0.00    +0.010 A 
ATOM      8  C   LIG A   1      -7.618   2.850 133.652  0.00  0.00    +0.001 A 
ATOM      9  C   LIG A   1      -8.576   2.150 132.927  0.00  0.00    +0.002 A 
ATOM     10  C   LIG A   1      -9.285   2.792 131.908  0.00  0.00    +0.028 A 
ENDROOT
BRANCH   1  11
ATOM     11  C   LIG A   1     -10.341   6.592 129.219  0.00  0.00    +0.023 C 
ATOM     12  C   LIG A   1     -10.488   7.914 129.024  0.00  0.00    -0.025 C 
BRANCH  12  13
ATOM     13  C   LIG A   1     -11.298   8.509 127.910  0.00  0.00    +0.027 C 
BRANCH  13  14
ATOM     14  C   LIG A   1     -12.735   8.789 128.355  0.00  0.00    +0.001 C 
ATOM     15  C   LIG A   1     -13.681   7.685 127.907  0.00  0.00    +0.004 C 
ENDBRANCH  13  14
ENDBRANCH  12  13
ENDBRANCH   1  11
TORSDOF 3
ENDMDL
