MODEL 1
REMARK VINA RESULT:      -7.9      0.000      0.000
REMARK  Name = NuBBE_362
REMARK  12 active torsions:
REMARK  status: ('A' for Active; 'I' for Inactive)
REMARK    1  A    between atoms: O_1  and  C_2
REMARK    2  A    between atoms: C_5  and  C_9
REMARK    3  A    between atoms: C_7  and  O_8
REMARK    4  A    between atoms: C_10  and  C_11
REMARK    5  A    between atoms: C_11  and  O_12
REMARK    6  A    between atoms: O_12  and  C_13
REMARK    7  A    between atoms: C_15  and  O_28
REMARK    8  A    between atoms: C_17  and  O_27
REMARK    9  A    between atoms: C_20  and  O_21
REMARK   10  A    between atoms: C_20  and  C_23
REMARK   11  A    between atoms: C_23  and  O_24
REMARK   12  A    between atoms: O_24  and  C_25
REMARK                            x       y       z     vdW  Elec       q    Type
REMARK                         _______ _______ _______ _____ _____    ______ ____
ROOT
ATOM      1  C   LIG A   1      -7.196  -0.732 123.554  0.00  0.00    +0.211 C 
ATOM      2  C   LIG A   1      -6.107  -1.805 123.388  0.00  0.00    +0.184 C 
ATOM      3  C   LIG A   1      -6.379  -3.018 124.292  0.00  0.00    +0.150 C 
ATOM      4  C   LIG A   1      -7.751  -3.625 124.011  0.00  0.00    +0.080 C 
ATOM      5  C   LIG A   1      -8.889  -2.604 124.066  0.00  0.00    +0.168 C 
ATOM      6  C   LIG A   1      -8.587  -1.324 123.279  0.00  0.00    +0.093 C 
ENDROOT
BRANCH   5   7
ATOM      7  O   LIG A   1     -10.025  -3.233 123.434  0.00  0.00    -0.377 OA
ATOM      8  H   LIG A   1     -10.537  -3.657 124.151  0.00  0.00    +0.211 HD
ENDBRANCH   5   7
BRANCH   5   9
ATOM      9  C   LIG A   1      -9.291  -2.301 125.531  0.00  0.00    +0.339 C 
ATOM     10  O   LIG A   1      -9.797  -1.266 125.937  0.00  0.00    -0.248 OA
BRANCH   9  11
ATOM     11  O   LIG A   1      -8.935  -3.367 126.314  0.00  0.00    -0.466 OA
ATOM     12  C   LIG A   1      -8.382  -3.043 127.590  0.00  0.00    +0.280 C 
ENDBRANCH   9  11
ENDBRANCH   5   9
BRANCH   3  13
ATOM     13  O   LIG A   1      -5.391  -4.022 124.015  0.00  0.00    -0.389 OA
ATOM     14  H   LIG A   1      -5.328  -4.593 124.802  0.00  0.00    +0.210 HD
ENDBRANCH   3  13
BRANCH   2  15
ATOM     15  O   LIG A   1      -6.048  -2.237 122.023  0.00  0.00    -0.386 OA
ATOM     16  H   LIG A   1      -5.949  -3.211 122.051  0.00  0.00    +0.210 HD
ENDBRANCH   2  15
BRANCH   1  17
ATOM     17  O   LIG A   1      -7.126  -0.206 124.895  0.00  0.00    -0.456 OA
BRANCH  17  18
ATOM     18  C   LIG A   1      -7.230   1.138 125.023  0.00  0.00    +0.332 C 
ATOM     19  O   LIG A   1      -7.531   1.754 126.039  0.00  0.00    -0.246 OA
BRANCH  18  21
ATOM     20  C   LIG A   1      -6.710   3.081 123.623  0.00  0.00    +0.015 C 
ATOM     21  C   LIG A   1      -6.873   1.751 123.735  0.00  0.00    +0.092 C 
BRANCH  20  25
ATOM     22  C   LIG A   1      -5.561   5.002 119.977  0.00  0.00    +0.158 A 
ATOM     23  C   LIG A   1      -6.655   4.144 119.980  0.00  0.00    +0.050 A 
ATOM     24  C   LIG A   1      -7.034   3.514 121.168  0.00  0.00    +0.012 A 
ATOM     25  C   LIG A   1      -6.336   3.747 122.364  0.00  0.00    -0.021 A 
ATOM     26  C   LIG A   1      -5.224   4.602 122.342  0.00  0.00    +0.057 A 
ATOM     27  C   LIG A   1      -4.847   5.231 121.152  0.00  0.00    +0.159 A 
BRANCH  22  28
ATOM     28  O   LIG A   1      -5.177   5.623 118.822  0.00  0.00    -0.503 OA
ATOM     29  H   LIG A   1      -4.380   5.192 118.480  0.00  0.00    +0.292 HD
ENDBRANCH  22  28
BRANCH  27  30
ATOM     30  O   LIG A   1      -3.773   6.076 121.125  0.00  0.00    -0.503 OA
ATOM     31  H   LIG A   1      -2.967   5.580 121.333  0.00  0.00    +0.292 HD
ENDBRANCH  27  30
ENDBRANCH  20  25
ENDBRANCH  18  21
ENDBRANCH  17  18
ENDBRANCH   1  17
TORSDOF 11
ENDMDL
MODEL 2
REMARK VINA RESULT:      -7.8      1.347      2.977
REMARK  Name = NuBBE_362
REMARK  12 active torsions:
REMARK  status: ('A' for Active; 'I' for Inactive)
REMARK    1  A    between atoms: O_1  and  C_2
REMARK    2  A    between atoms: C_5  and  C_9
REMARK    3  A    between atoms: C_7  and  O_8
REMARK    4  A    between atoms: C_10  and  C_11
REMARK    5  A    between atoms: C_11  and  O_12
REMARK    6  A    between atoms: O_12  and  C_13
REMARK    7  A    between atoms: C_15  and  O_28
REMARK    8  A    between atoms: C_17  and  O_27
REMARK    9  A    between atoms: C_20  and  O_21
REMARK   10  A    between atoms: C_20  and  C_23
REMARK   11  A    between atoms: C_23  and  O_24
REMARK   12  A    between atoms: O_24  and  C_25
REMARK                            x       y       z     vdW  Elec       q    Type
REMARK                         _______ _______ _______ _____ _____    ______ ____
ROOT
ATOM      1  C   LIG A   1      -8.091   0.247 125.474  0.00  0.00    +0.211 C 
ATOM      2  C   LIG A   1      -9.303   0.651 124.615  0.00  0.00    +0.184 C 
ATOM      3  C   LIG A   1      -9.245  -0.008 123.228  0.00  0.00    +0.150 C 
ATOM      4  C   LIG A   1      -9.170  -1.529 123.336  0.00  0.00    +0.080 C 
ATOM      5  C   LIG A   1      -8.043  -2.018 124.249  0.00  0.00    +0.168 C 
ATOM      6  C   LIG A   1      -7.996  -1.281 125.593  0.00  0.00    +0.093 C 
ENDROOT
BRANCH   5   7
ATOM      7  O   LIG A   1      -8.329  -3.404 124.534  0.00  0.00    -0.377 OA
ATOM      8  H   LIG A   1      -9.271  -3.540 124.313  0.00  0.00    +0.211 HD
ENDBRANCH   5   7
BRANCH   5   9
ATOM      9  C   LIG A   1      -6.679  -1.973 123.516  0.00  0.00    +0.339 C 
ATOM     10  O   LIG A   1      -6.469  -1.475 122.421  0.00  0.00    -0.248 OA
BRANCH   9  11
ATOM     11  O   LIG A   1      -5.750  -2.634 124.275  0.00  0.00    -0.466 OA
ATOM     12  C   LIG A   1      -4.701  -3.279 123.551  0.00  0.00    +0.280 C 
ENDBRANCH   9  11
ENDBRANCH   5   9
BRANCH   3  13
ATOM     13  O   LIG A   1     -10.447   0.322 122.517  0.00  0.00    -0.389 OA
ATOM     14  H   LIG A   1     -10.907  -0.514 122.320  0.00  0.00    +0.210 HD
ENDBRANCH   3  13
BRANCH   2  15
ATOM     15  O   LIG A   1     -10.518   0.266 125.271  0.00  0.00    -0.386 OA
ATOM     16  H   LIG A   1     -11.215   0.289 124.583  0.00  0.00    +0.210 HD
ENDBRANCH   2  15
BRANCH   1  17
ATOM     17  O   LIG A   1      -6.898   0.784 124.869  0.00  0.00    -0.456 OA
BRANCH  17  18
ATOM     18  C   LIG A   1      -6.420   1.938 125.395  0.00  0.00    +0.332 C 
ATOM     19  O   LIG A   1      -6.269   2.191 126.584  0.00  0.00    -0.246 OA
BRANCH  18  21
ATOM     20  C   LIG A   1      -6.598   2.668 123.063  0.00  0.00    +0.015 C 
ATOM     21  C   LIG A   1      -6.063   2.834 124.286  0.00  0.00    +0.092 C 
BRANCH  20  25
ATOM     22  C   LIG A   1      -5.642   5.203 119.752  0.00  0.00    +0.158 A 
ATOM     23  C   LIG A   1      -6.691   4.298 119.637  0.00  0.00    +0.050 A 
ATOM     24  C   LIG A   1      -7.007   3.468 120.715  0.00  0.00    +0.012 A 
ATOM     25  C   LIG A   1      -6.291   3.545 121.920  0.00  0.00    -0.021 A 
ATOM     26  C   LIG A   1      -5.224   4.451 122.016  0.00  0.00    +0.057 A 
ATOM     27  C   LIG A   1      -4.910   5.280 120.935  0.00  0.00    +0.159 A 
BRANCH  22  28
ATOM     28  O   LIG A   1      -5.320   6.020 118.704  0.00  0.00    -0.503 OA
ATOM     29  H   LIG A   1      -5.745   5.684 117.900  0.00  0.00    +0.292 HD
ENDBRANCH  22  28
BRANCH  27  30
ATOM     30  O   LIG A   1      -3.880   6.175 121.026  0.00  0.00    -0.503 OA
ATOM     31  H   LIG A   1      -3.559   6.388 120.136  0.00  0.00    +0.292 HD
ENDBRANCH  27  30
ENDBRANCH  20  25
ENDBRANCH  18  21
ENDBRANCH  17  18
ENDBRANCH   1  17
TORSDOF 11
ENDMDL
MODEL 3
REMARK VINA RESULT:      -7.2      1.067      2.847
REMARK  Name = NuBBE_362
REMARK  12 active torsions:
REMARK  status: ('A' for Active; 'I' for Inactive)
REMARK    1  A    between atoms: O_1  and  C_2
REMARK    2  A    between atoms: C_5  and  C_9
REMARK    3  A    between atoms: C_7  and  O_8
REMARK    4  A    between atoms: C_10  and  C_11
REMARK    5  A    between atoms: C_11  and  O_12
REMARK    6  A    between atoms: O_12  and  C_13
REMARK    7  A    between atoms: C_15  and  O_28
REMARK    8  A    between atoms: C_17  and  O_27
REMARK    9  A    between atoms: C_20  and  O_21
REMARK   10  A    between atoms: C_20  and  C_23
REMARK   11  A    between atoms: C_23  and  O_24
REMARK   12  A    between atoms: O_24  and  C_25
REMARK                            x       y       z     vdW  Elec       q    Type
REMARK                         _______ _______ _______ _____ _____    ______ ____
ROOT
ATOM      1  C   LIG A   1      -6.858  -1.006 126.257  0.00  0.00    +0.211 C 
ATOM      2  C   LIG A   1      -7.992  -1.819 126.907  0.00  0.00    +0.184 C 
ATOM      3  C   LIG A   1      -8.807  -2.580 125.850  0.00  0.00    +0.150 C 
ATOM      4  C   LIG A   1      -7.917  -3.504 125.020  0.00  0.00    +0.080 C 
ATOM      5  C   LIG A   1      -6.709  -2.792 124.408  0.00  0.00    +0.168 C 
ATOM      6  C   LIG A   1      -5.953  -1.917 125.414  0.00  0.00    +0.093 C 
ENDROOT
BRANCH   5   7
ATOM      7  O   LIG A   1      -5.801  -3.833 123.985  0.00  0.00    -0.377 OA
ATOM      8  H   LIG A   1      -6.151  -4.668 124.354  0.00  0.00    +0.211 HD
ENDBRANCH   5   7
BRANCH   5   9
ATOM      9  C   LIG A   1      -7.116  -1.999 123.141  0.00  0.00    +0.339 C 
ATOM     10  O   LIG A   1      -6.394  -1.249 122.502  0.00  0.00    -0.248 OA
BRANCH   9  11
ATOM     11  O   LIG A   1      -8.440  -2.231 122.884  0.00  0.00    -0.466 OA
ATOM     12  C   LIG A   1      -9.235  -1.074 122.619  0.00  0.00    +0.280 C 
ENDBRANCH   9  11
ENDBRANCH   5   9
BRANCH   3  13
ATOM     13  O   LIG A   1      -9.776  -3.395 126.524  0.00  0.00    -0.389 OA
ATOM     14  H   LIG A   1     -10.513  -3.544 125.904  0.00  0.00    +0.210 HD
ENDBRANCH   3  13
BRANCH   2  15
ATOM     15  O   LIG A   1      -7.448  -2.753 127.848  0.00  0.00    -0.386 OA
ATOM     16  H   LIG A   1      -6.781  -3.275 127.356  0.00  0.00    +0.210 HD
ENDBRANCH   2  15
BRANCH   1  17
ATOM     17  O   LIG A   1      -7.442   0.027 125.438  0.00  0.00    -0.456 OA
BRANCH  17  18
ATOM     18  C   LIG A   1      -6.910   1.267 125.559  0.00  0.00    +0.332 C 
ATOM     19  O   LIG A   1      -6.568   1.817 126.599  0.00  0.00    -0.246 OA
BRANCH  18  21
ATOM     20  C   LIG A   1      -6.193   3.040 124.027  0.00  0.00    +0.015 C 
ATOM     21  C   LIG A   1      -6.765   1.837 124.211  0.00  0.00    +0.092 C 
BRANCH  20  25
ATOM     22  C   LIG A   1      -5.585   4.813 120.181  0.00  0.00    +0.158 A 
ATOM     23  C   LIG A   1      -6.560   3.832 120.334  0.00  0.00    +0.050 A 
ATOM     24  C   LIG A   1      -6.762   3.250 121.587  0.00  0.00    +0.012 A 
ATOM     25  C   LIG A   1      -6.007   3.652 122.701  0.00  0.00    -0.021 A 
ATOM     26  C   LIG A   1      -5.016   4.630 122.528  0.00  0.00    +0.057 A 
ATOM     27  C   LIG A   1      -4.815   5.211 121.272  0.00  0.00    +0.159 A 
BRANCH  22  28
ATOM     28  O   LIG A   1      -5.375   5.390 118.960  0.00  0.00    -0.503 OA
ATOM     29  H   LIG A   1      -4.941   6.247 119.086  0.00  0.00    +0.292 HD
ENDBRANCH  22  28
BRANCH  27  30
ATOM     30  O   LIG A   1      -3.861   6.175 121.099  0.00  0.00    -0.503 OA
ATOM     31  H   LIG A   1      -4.288   7.014 120.870  0.00  0.00    +0.292 HD
ENDBRANCH  27  30
ENDBRANCH  20  25
ENDBRANCH  18  21
ENDBRANCH  17  18
ENDBRANCH   1  17
TORSDOF 11
ENDMDL
MODEL 4
REMARK VINA RESULT:      -7.1      8.271     11.132
REMARK  Name = NuBBE_362
REMARK  12 active torsions:
REMARK  status: ('A' for Active; 'I' for Inactive)
REMARK    1  A    between atoms: O_1  and  C_2
REMARK    2  A    between atoms: C_5  and  C_9
REMARK    3  A    between atoms: C_7  and  O_8
REMARK    4  A    between atoms: C_10  and  C_11
REMARK    5  A    between atoms: C_11  and  O_12
REMARK    6  A    between atoms: O_12  and  C_13
REMARK    7  A    between atoms: C_15  and  O_28
REMARK    8  A    between atoms: C_17  and  O_27
REMARK    9  A    between atoms: C_20  and  O_21
REMARK   10  A    between atoms: C_20  and  C_23
REMARK   11  A    between atoms: C_23  and  O_24
REMARK   12  A    between atoms: O_24  and  C_25
REMARK                            x       y       z     vdW  Elec       q    Type
REMARK                         _______ _______ _______ _____ _____    ______ ____
ROOT
ATOM      1  C   LIG A   1      -4.528   7.485 130.883  0.00  0.00    +0.211 C 
ATOM      2  C   LIG A   1      -3.423   7.254 131.928  0.00  0.00    +0.184 C 
ATOM      3  C   LIG A   1      -2.500   6.097 131.515  0.00  0.00    +0.150 C 
ATOM      4  C   LIG A   1      -1.874   6.346 130.145  0.00  0.00    +0.080 C 
ATOM      5  C   LIG A   1      -2.901   6.674 129.059  0.00  0.00    +0.168 C 
ATOM      6  C   LIG A   1      -3.919   7.734 129.495  0.00  0.00    +0.093 C 
ENDROOT
BRANCH   5   7
ATOM      7  O   LIG A   1      -2.155   7.230 127.954  0.00  0.00    -0.377 OA
ATOM      8  H   LIG A   1      -2.814   7.626 127.351  0.00  0.00    +0.211 HD
ENDBRANCH   5   7
BRANCH   5   9
ATOM      9  C   LIG A   1      -3.591   5.387 128.542  0.00  0.00    +0.339 C 
ATOM     10  O   LIG A   1      -3.262   4.241 128.809  0.00  0.00    -0.248 OA
BRANCH   9  11
ATOM     11  O   LIG A   1      -4.603   5.741 127.691  0.00  0.00    -0.466 OA
ATOM     12  C   LIG A   1      -4.941   4.777 126.693  0.00  0.00    +0.280 C 
ENDBRANCH   9  11
ENDBRANCH   5   9
BRANCH   3  13
ATOM     13  O   LIG A   1      -1.436   6.000 132.472  0.00  0.00    -0.389 OA
ATOM     14  H   LIG A   1      -1.402   5.076 132.778  0.00  0.00    +0.210 HD
ENDBRANCH   3  13
BRANCH   2  15
ATOM     15  O   LIG A   1      -2.643   8.446 132.088  0.00  0.00    -0.386 OA
ATOM     16  H   LIG A   1      -2.714   8.932 131.240  0.00  0.00    +0.210 HD
ENDBRANCH   2  15
BRANCH   1  17
ATOM     17  O   LIG A   1      -5.389   6.329 130.858  0.00  0.00    -0.456 OA
BRANCH  17  18
ATOM     18  C   LIG A   1      -6.430   6.332 131.724  0.00  0.00    +0.332 C 
ATOM     19  O   LIG A   1      -6.408   5.971 132.895  0.00  0.00    -0.246 OA
BRANCH  18  21
ATOM     20  C   LIG A   1      -8.839   6.429 131.282  0.00  0.00    +0.015 C 
ATOM     21  C   LIG A   1      -7.601   6.892 131.032  0.00  0.00    +0.092 C 
BRANCH  20  25
ATOM     22  C   LIG A   1     -12.328   7.958 129.335  0.00  0.00    +0.158 A 
ATOM     23  C   LIG A   1     -12.465   7.253 130.526  0.00  0.00    +0.050 A 
ATOM     24  C   LIG A   1     -11.329   6.752 131.166  0.00  0.00    +0.012 A 
ATOM     25  C   LIG A   1     -10.047   6.963 130.632  0.00  0.00    -0.021 A 
ATOM     26  C   LIG A   1      -9.926   7.661 129.421  0.00  0.00    +0.057 A 
ATOM     27  C   LIG A   1     -11.064   8.161 128.783  0.00  0.00    +0.159 A 
BRANCH  22  28
ATOM     28  O   LIG A   1     -13.431   8.452 128.697  0.00  0.00    -0.503 OA
ATOM     29  H   LIG A   1     -13.263   8.469 127.743  0.00  0.00    +0.292 HD
ENDBRANCH  22  28
BRANCH  27  30
ATOM     30  O   LIG A   1     -10.953   8.854 127.610  0.00  0.00    -0.503 OA
ATOM     31  H   LIG A   1     -10.041   8.798 127.287  0.00  0.00    +0.292 HD
ENDBRANCH  27  30
ENDBRANCH  20  25
ENDBRANCH  18  21
ENDBRANCH  17  18
ENDBRANCH   1  17
TORSDOF 11
ENDMDL
MODEL 5
REMARK VINA RESULT:      -7.1      1.556      2.633
REMARK  Name = NuBBE_362
REMARK  12 active torsions:
REMARK  status: ('A' for Active; 'I' for Inactive)
REMARK    1  A    between atoms: O_1  and  C_2
REMARK    2  A    between atoms: C_5  and  C_9
REMARK    3  A    between atoms: C_7  and  O_8
REMARK    4  A    between atoms: C_10  and  C_11
REMARK    5  A    between atoms: C_11  and  O_12
REMARK    6  A    between atoms: O_12  and  C_13
REMARK    7  A    between atoms: C_15  and  O_28
REMARK    8  A    between atoms: C_17  and  O_27
REMARK    9  A    between atoms: C_20  and  O_21
REMARK   10  A    between atoms: C_20  and  C_23
REMARK   11  A    between atoms: C_23  and  O_24
REMARK   12  A    between atoms: O_24  and  C_25
REMARK                            x       y       z     vdW  Elec       q    Type
REMARK                         _______ _______ _______ _____ _____    ______ ____
ROOT
ATOM      1  C   LIG A   1      -8.918  -0.033 124.616  0.00  0.00    +0.211 C 
ATOM      2  C   LIG A   1      -8.613  -0.700 123.263  0.00  0.00    +0.184 C 
ATOM      3  C   LIG A   1      -7.324  -1.533 123.332  0.00  0.00    +0.150 C 
ATOM      4  C   LIG A   1      -7.405  -2.595 124.426  0.00  0.00    +0.080 C 
ATOM      5  C   LIG A   1      -7.793  -2.028 125.794  0.00  0.00    +0.168 C 
ATOM      6  C   LIG A   1      -9.000  -1.085 125.732  0.00  0.00    +0.093 C 
ENDROOT
BRANCH   5   7
ATOM      7  O   LIG A   1      -8.179  -3.160 126.603  0.00  0.00    -0.377 OA
ATOM      8  H   LIG A   1      -8.428  -3.870 125.979  0.00  0.00    +0.211 HD
ENDBRANCH   5   7
BRANCH   5   9
ATOM      9  C   LIG A   1      -6.575  -1.366 126.485  0.00  0.00    +0.339 C 
ATOM     10  O   LIG A   1      -5.412  -1.450 126.121  0.00  0.00    -0.248 OA
BRANCH   9  11
ATOM     11  O   LIG A   1      -7.008  -0.712 127.606  0.00  0.00    -0.466 OA
ATOM     12  C   LIG A   1      -6.224   0.412 128.012  0.00  0.00    +0.280 C 
ENDBRANCH   9  11
ENDBRANCH   5   9
BRANCH   3  13
ATOM     13  O   LIG A   1      -7.152  -2.209 122.077  0.00  0.00    -0.389 OA
ATOM     14  H   LIG A   1      -6.578  -2.980 122.239  0.00  0.00    +0.210 HD
ENDBRANCH   3  13
BRANCH   2  15
ATOM     15  O   LIG A   1      -9.703  -1.547 122.878  0.00  0.00    -0.386 OA
ATOM     16  H   LIG A   1     -10.415  -1.385 123.531  0.00  0.00    +0.210 HD
ENDBRANCH   2  15
BRANCH   1  17
ATOM     17  O   LIG A   1      -7.882   0.928 124.900  0.00  0.00    -0.456 OA
BRANCH  17  18
ATOM     18  C   LIG A   1      -8.285   2.201 125.131  0.00  0.00    +0.332 C 
ATOM     19  O   LIG A   1      -8.837   2.620 126.142  0.00  0.00    -0.246 OA
BRANCH  18  21
ATOM     20  C   LIG A   1      -6.778   2.764 123.282  0.00  0.00    +0.015 C 
ATOM     21  C   LIG A   1      -7.905   3.020 123.971  0.00  0.00    +0.092 C 
BRANCH  20  25
ATOM     22  C   LIG A   1      -5.615   5.043 119.854  0.00  0.00    +0.158 A 
ATOM     23  C   LIG A   1      -4.767   4.985 120.955  0.00  0.00    +0.050 A 
ATOM     24  C   LIG A   1      -5.142   4.243 122.076  0.00  0.00    +0.012 A 
ATOM     25  C   LIG A   1      -6.357   3.539 122.104  0.00  0.00    -0.021 A 
ATOM     26  C   LIG A   1      -7.210   3.620 120.993  0.00  0.00    +0.057 A 
ATOM     27  C   LIG A   1      -6.832   4.364 119.872  0.00  0.00    +0.159 A 
BRANCH  22  28
ATOM     28  O   LIG A   1      -5.261   5.767 118.750  0.00  0.00    -0.503 OA
ATOM     29  H   LIG A   1      -5.748   6.605 118.753  0.00  0.00    +0.292 HD
ENDBRANCH  22  28
BRANCH  27  30
ATOM     30  O   LIG A   1      -7.652   4.437 118.780  0.00  0.00    -0.503 OA
ATOM     31  H   LIG A   1      -7.554   3.632 118.250  0.00  0.00    +0.292 HD
ENDBRANCH  27  30
ENDBRANCH  20  25
ENDBRANCH  18  21
ENDBRANCH  17  18
ENDBRANCH   1  17
TORSDOF 11
ENDMDL
MODEL 6
REMARK VINA RESULT:      -6.8      2.096      3.318
REMARK  Name = NuBBE_362
REMARK  12 active torsions:
REMARK  status: ('A' for Active; 'I' for Inactive)
REMARK    1  A    between atoms: O_1  and  C_2
REMARK    2  A    between atoms: C_5  and  C_9
REMARK    3  A    between atoms: C_7  and  O_8
REMARK    4  A    between atoms: C_10  and  C_11
REMARK    5  A    between atoms: C_11  and  O_12
REMARK    6  A    between atoms: O_12  and  C_13
REMARK    7  A    between atoms: C_15  and  O_28
REMARK    8  A    between atoms: C_17  and  O_27
REMARK    9  A    between atoms: C_20  and  O_21
REMARK   10  A    between atoms: C_20  and  C_23
REMARK   11  A    between atoms: C_23  and  O_24
REMARK   12  A    between atoms: O_24  and  C_25
REMARK                            x       y       z     vdW  Elec       q    Type
REMARK                         _______ _______ _______ _____ _____    ______ ____
ROOT
ATOM      1  C   LIG A   1      -5.832  -0.090 126.118  0.00  0.00    +0.211 C 
ATOM      2  C   LIG A   1      -5.914  -0.574 127.576  0.00  0.00    +0.184 C 
ATOM      3  C   LIG A   1      -7.251  -1.281 127.853  0.00  0.00    +0.150 C 
ATOM      4  C   LIG A   1      -7.466  -2.456 126.903  0.00  0.00    +0.080 C 
ATOM      5  C   LIG A   1      -7.313  -2.081 125.428  0.00  0.00    +0.168 C 
ATOM      6  C   LIG A   1      -6.050  -1.258 125.145  0.00  0.00    +0.093 C 
ENDROOT
BRANCH   5   7
ATOM      7  O   LIG A   1      -7.179  -3.325 124.707  0.00  0.00    -0.377 OA
ATOM      8  H   LIG A   1      -7.348  -3.117 123.767  0.00  0.00    +0.211 HD
ENDBRANCH   5   7
BRANCH   5   9
ATOM      9  C   LIG A   1      -8.590  -1.381 124.899  0.00  0.00    +0.339 C 
ATOM     10  O   LIG A   1      -9.660  -1.306 125.483  0.00  0.00    -0.248 OA
BRANCH   9  11
ATOM     11  O   LIG A   1      -8.341  -0.905 123.640  0.00  0.00    -0.466 OA
ATOM     12  C   LIG A   1      -9.426  -0.997 122.715  0.00  0.00    +0.280 C 
ENDBRANCH   9  11
ENDBRANCH   5   9
BRANCH   3  13
ATOM     13  O   LIG A   1      -7.223  -1.797 129.191  0.00  0.00    -0.389 OA
ATOM     14  H   LIG A   1      -6.327  -2.146 129.350  0.00  0.00    +0.210 HD
ENDBRANCH   3  13
BRANCH   2  15
ATOM     15  O   LIG A   1      -4.836  -1.477 127.854  0.00  0.00    -0.386 OA
ATOM     16  H   LIG A   1      -4.961  -2.241 127.253  0.00  0.00    +0.210 HD
ENDBRANCH   2  15
BRANCH   1  17
ATOM     17  O   LIG A   1      -6.829   0.932 125.915  0.00  0.00    -0.456 OA
BRANCH  17  18
ATOM     18  C   LIG A   1      -6.422   2.214 126.073  0.00  0.00    +0.332 C 
ATOM     19  O   LIG A   1      -6.108   2.756 127.127  0.00  0.00    -0.246 OA
BRANCH  18  21
ATOM     20  C   LIG A   1      -7.131   2.390 123.734  0.00  0.00    +0.015 C 
ATOM     21  C   LIG A   1      -6.374   2.847 124.747  0.00  0.00    +0.092 C 
BRANCH  20  25
ATOM     22  C   LIG A   1      -7.199   4.182 119.850  0.00  0.00    +0.158 A 
ATOM     23  C   LIG A   1      -5.983   4.025 120.508  0.00  0.00    +0.050 A 
ATOM     24  C   LIG A   1      -5.956   3.441 121.776  0.00  0.00    +0.012 A 
ATOM     25  C   LIG A   1      -7.136   2.994 122.392  0.00  0.00    -0.021 A 
ATOM     26  C   LIG A   1      -8.357   3.174 121.723  0.00  0.00    +0.057 A 
ATOM     27  C   LIG A   1      -8.382   3.760 120.454  0.00  0.00    +0.159 A 
BRANCH  22  28
ATOM     28  O   LIG A   1      -7.240   4.754 118.610  0.00  0.00    -0.503 OA
ATOM     29  H   LIG A   1      -6.475   5.338 118.505  0.00  0.00    +0.292 HD
ENDBRANCH  22  28
BRANCH  27  30
ATOM     30  O   LIG A   1      -9.565   3.926 119.791  0.00  0.00    -0.503 OA
ATOM     31  H   LIG A   1      -9.424   4.489 119.015  0.00  0.00    +0.292 HD
ENDBRANCH  27  30
ENDBRANCH  20  25
ENDBRANCH  18  21
ENDBRANCH  17  18
ENDBRANCH   1  17
TORSDOF 11
ENDMDL
MODEL 7
REMARK VINA RESULT:      -6.8      3.001      3.970
REMARK  Name = NuBBE_362
REMARK  12 active torsions:
REMARK  status: ('A' for Active; 'I' for Inactive)
REMARK    1  A    between atoms: O_1  and  C_2
REMARK    2  A    between atoms: C_5  and  C_9
REMARK    3  A    between atoms: C_7  and  O_8
REMARK    4  A    between atoms: C_10  and  C_11
REMARK    5  A    between atoms: C_11  and  O_12
REMARK    6  A    between atoms: O_12  and  C_13
REMARK    7  A    between atoms: C_15  and  O_28
REMARK    8  A    between atoms: C_17  and  O_27
REMARK    9  A    between atoms: C_20  and  O_21
REMARK   10  A    between atoms: C_20  and  C_23
REMARK   11  A    between atoms: C_23  and  O_24
REMARK   12  A    between atoms: O_24  and  C_25
REMARK                            x       y       z     vdW  Elec       q    Type
REMARK                         _______ _______ _______ _____ _____    ______ ____
ROOT
ATOM      1  C   LIG A   1      -7.386  -0.797 123.293  0.00  0.00    +0.211 C 
ATOM      2  C   LIG A   1      -6.215  -1.794 123.241  0.00  0.00    +0.184 C 
ATOM      3  C   LIG A   1      -6.374  -2.894 124.302  0.00  0.00    +0.150 C 
ATOM      4  C   LIG A   1      -7.696  -3.639 124.137  0.00  0.00    +0.080 C 
ATOM      5  C   LIG A   1      -8.913  -2.713 124.088  0.00  0.00    +0.168 C 
ATOM      6  C   LIG A   1      -8.728  -1.528 123.132  0.00  0.00    +0.093 C 
ENDROOT
BRANCH   5   7
ATOM      7  O   LIG A   1     -10.004  -3.507 123.572  0.00  0.00    -0.377 OA
ATOM      8  H   LIG A   1      -9.617  -4.091 122.889  0.00  0.00    +0.211 HD
ENDBRANCH   5   7
BRANCH   5   9
ATOM      9  C   LIG A   1      -9.317  -2.252 125.510  0.00  0.00    +0.339 C 
ATOM     10  O   LIG A   1      -9.807  -1.172 125.802  0.00  0.00    -0.248 OA
BRANCH   9  11
ATOM     11  O   LIG A   1      -8.984  -3.235 126.402  0.00  0.00    -0.466 OA
ATOM     12  C   LIG A   1      -8.353  -2.795 127.606  0.00  0.00    +0.280 C 
ENDBRANCH   9  11
ENDBRANCH   5   9
BRANCH   3  13
ATOM     13  O   LIG A   1      -5.312  -3.844 124.134  0.00  0.00    -0.389 OA
ATOM     14  H   LIG A   1      -5.512  -4.608 124.705  0.00  0.00    +0.210 HD
ENDBRANCH   3  13
BRANCH   2  15
ATOM     15  O   LIG A   1      -6.142  -2.395 121.943  0.00  0.00    -0.386 OA
ATOM     16  H   LIG A   1      -5.259  -2.819 121.890  0.00  0.00    +0.210 HD
ENDBRANCH   2  15
BRANCH   1  17
ATOM     17  O   LIG A   1      -7.339  -0.095 124.552  0.00  0.00    -0.456 OA
BRANCH  17  18
ATOM     18  C   LIG A   1      -7.382   1.258 124.491  0.00  0.00    +0.332 C 
ATOM     19  O   LIG A   1      -8.208   1.936 123.891  0.00  0.00    -0.246 OA
BRANCH  18  21
ATOM     20  C   LIG A   1      -5.963   3.094 125.278  0.00  0.00    +0.015 C 
ATOM     21  C   LIG A   1      -6.286   1.789 125.315  0.00  0.00    +0.092 C 
BRANCH  20  25
ATOM     22  C   LIG A   1      -2.882   4.830 127.686  0.00  0.00    +0.158 A 
ATOM     23  C   LIG A   1      -2.718   3.539 127.195  0.00  0.00    +0.050 A 
ATOM     24  C   LIG A   1      -3.721   2.968 126.409  0.00  0.00    +0.012 A 
ATOM     25  C   LIG A   1      -4.887   3.683 126.092  0.00  0.00    -0.021 A 
ATOM     26  C   LIG A   1      -5.046   4.978 126.609  0.00  0.00    +0.057 A 
ATOM     27  C   LIG A   1      -4.041   5.548 127.396  0.00  0.00    +0.159 A 
BRANCH  22  28
ATOM     28  O   LIG A   1      -1.910   5.401 128.458  0.00  0.00    -0.503 OA
ATOM     29  H   LIG A   1      -1.053   5.013 128.225  0.00  0.00    +0.292 HD
ENDBRANCH  22  28
BRANCH  27  30
ATOM     30  O   LIG A   1      -4.183   6.814 127.891  0.00  0.00    -0.503 OA
ATOM     31  H   LIG A   1      -5.095   7.112 127.757  0.00  0.00    +0.292 HD
ENDBRANCH  27  30
ENDBRANCH  20  25
ENDBRANCH  18  21
ENDBRANCH  17  18
ENDBRANCH   1  17
TORSDOF 11
ENDMDL
MODEL 8
REMARK VINA RESULT:      -6.8      1.777      2.991
REMARK  Name = NuBBE_362
REMARK  12 active torsions:
REMARK  status: ('A' for Active; 'I' for Inactive)
REMARK    1  A    between atoms: O_1  and  C_2
REMARK    2  A    between atoms: C_5  and  C_9
REMARK    3  A    between atoms: C_7  and  O_8
REMARK    4  A    between atoms: C_10  and  C_11
REMARK    5  A    between atoms: C_11  and  O_12
REMARK    6  A    between atoms: O_12  and  C_13
REMARK    7  A    between atoms: C_15  and  O_28
REMARK    8  A    between atoms: C_17  and  O_27
REMARK    9  A    between atoms: C_20  and  O_21
REMARK   10  A    between atoms: C_20  and  C_23
REMARK   11  A    between atoms: C_23  and  O_24
REMARK   12  A    between atoms: O_24  and  C_25
REMARK                            x       y       z     vdW  Elec       q    Type
REMARK                         _______ _______ _______ _____ _____    ______ ____
ROOT
ATOM      1  C   LIG A   1      -6.707   0.387 125.089  0.00  0.00    +0.211 C 
ATOM      2  C   LIG A   1      -5.976   0.403 126.443  0.00  0.00    +0.184 C 
ATOM      3  C   LIG A   1      -6.262  -0.878 127.243  0.00  0.00    +0.150 C 
ATOM      4  C   LIG A   1      -5.869  -2.125 126.456  0.00  0.00    +0.080 C 
ATOM      5  C   LIG A   1      -6.482  -2.178 125.055  0.00  0.00    +0.168 C 
ATOM      6  C   LIG A   1      -6.327  -0.863 124.282  0.00  0.00    +0.093 C 
ENDROOT
BRANCH   5   7
ATOM      7  O   LIG A   1      -5.745  -3.186 124.330  0.00  0.00    -0.377 OA
ATOM      8  H   LIG A   1      -4.990  -2.726 123.913  0.00  0.00    +0.211 HD
ENDBRANCH   5   7
BRANCH   5   9
ATOM      9  C   LIG A   1      -7.958  -2.644 125.114  0.00  0.00    +0.339 C 
ATOM     10  O   LIG A   1      -8.522  -3.117 126.089  0.00  0.00    -0.248 OA
BRANCH   9  11
ATOM     11  O   LIG A   1      -8.518  -2.490 123.875  0.00  0.00    -0.466 OA
ATOM     12  C   LIG A   1      -9.567  -3.403 123.548  0.00  0.00    +0.280 C 
ENDBRANCH   9  11
ENDBRANCH   5   9
BRANCH   3  13
ATOM     13  O   LIG A   1      -5.474  -0.850 128.442  0.00  0.00    -0.389 OA
ATOM     14  H   LIG A   1      -5.011   0.007 128.466  0.00  0.00    +0.210 HD
ENDBRANCH   3  13
BRANCH   2  15
ATOM     15  O   LIG A   1      -4.563   0.525 126.236  0.00  0.00    -0.386 OA
ATOM     16  H   LIG A   1      -4.148   0.378 127.111  0.00  0.00    +0.210 HD
ENDBRANCH   2  15
BRANCH   1  17
ATOM     17  O   LIG A   1      -8.127   0.423 125.331  0.00  0.00    -0.456 OA
BRANCH  17  18
ATOM     18  C   LIG A   1      -8.828   1.380 124.676  0.00  0.00    +0.332 C 
ATOM     19  O   LIG A   1     -10.017   1.641 124.819  0.00  0.00    -0.246 OA
BRANCH  18  21
ATOM     20  C   LIG A   1      -8.334   2.633 122.629  0.00  0.00    +0.015 C 
ATOM     21  C   LIG A   1      -7.904   2.097 123.785  0.00  0.00    +0.092 C 
BRANCH  20  25
ATOM     22  C   LIG A   1      -5.840   4.830 119.936  0.00  0.00    +0.158 A 
ATOM     23  C   LIG A   1      -5.342   4.463 121.181  0.00  0.00    +0.050 A 
ATOM     24  C   LIG A   1      -6.152   3.746 122.064  0.00  0.00    +0.012 A 
ATOM     25  C   LIG A   1      -7.458   3.375 121.707  0.00  0.00    -0.021 A 
ATOM     26  C   LIG A   1      -7.954   3.767 120.454  0.00  0.00    +0.057 A 
ATOM     27  C   LIG A   1      -7.141   4.485 119.572  0.00  0.00    +0.159 A 
BRANCH  22  28
ATOM     28  O   LIG A   1      -5.059   5.533 119.062  0.00  0.00    -0.503 OA
ATOM     29  H   LIG A   1      -4.271   5.010 118.851  0.00  0.00    +0.292 HD
ENDBRANCH  22  28
BRANCH  27  30
ATOM     30  O   LIG A   1      -7.611   4.858 118.344  0.00  0.00    -0.503 OA
ATOM     31  H   LIG A   1      -7.258   5.731 118.115  0.00  0.00    +0.292 HD
ENDBRANCH  27  30
ENDBRANCH  20  25
ENDBRANCH  18  21
ENDBRANCH  17  18
ENDBRANCH   1  17
TORSDOF 11
ENDMDL
MODEL 9
REMARK VINA RESULT:      -6.8      6.039      9.634
REMARK  Name = NuBBE_362
REMARK  12 active torsions:
REMARK  status: ('A' for Active; 'I' for Inactive)
REMARK    1  A    between atoms: O_1  and  C_2
REMARK    2  A    between atoms: C_5  and  C_9
REMARK    3  A    between atoms: C_7  and  O_8
REMARK    4  A    between atoms: C_10  and  C_11
REMARK    5  A    between atoms: C_11  and  O_12
REMARK    6  A    between atoms: O_12  and  C_13
REMARK    7  A    between atoms: C_15  and  O_28
REMARK    8  A    between atoms: C_17  and  O_27
REMARK    9  A    between atoms: C_20  and  O_21
REMARK   10  A    between atoms: C_20  and  C_23
REMARK   11  A    between atoms: C_23  and  O_24
REMARK   12  A    between atoms: O_24  and  C_25
REMARK                            x       y       z     vdW  Elec       q    Type
REMARK                         _______ _______ _______ _____ _____    ______ ____
ROOT
ATOM      1  C   LIG A   1      -9.254   3.895 130.958  0.00  0.00    +0.211 C 
ATOM      2  C   LIG A   1      -9.038   4.351 132.412  0.00  0.00    +0.184 C 
ATOM      3  C   LIG A   1      -9.166   5.876 132.541  0.00  0.00    +0.150 C 
ATOM      4  C   LIG A   1     -10.524   6.365 132.042  0.00  0.00    +0.080 C 
ATOM      5  C   LIG A   1     -10.862   5.881 130.630  0.00  0.00    +0.168 C 
ATOM      6  C   LIG A   1     -10.615   4.380 130.435  0.00  0.00    +0.093 C 
ENDROOT
BRANCH   5   7
ATOM      7  O   LIG A   1     -12.278   6.104 130.456  0.00  0.00    -0.377 OA
ATOM      8  H   LIG A   1     -12.562   6.656 131.211  0.00  0.00    +0.211 HD
ENDBRANCH   5   7
BRANCH   5   9
ATOM      9  C   LIG A   1     -10.130   6.732 129.563  0.00  0.00    +0.339 C 
ATOM     10  O   LIG A   1      -9.348   7.644 129.786  0.00  0.00    -0.248 OA
BRANCH   9  11
ATOM     11  O   LIG A   1     -10.543   6.331 128.321  0.00  0.00    -0.466 OA
ATOM     12  C   LIG A   1     -10.620   7.358 127.331  0.00  0.00    +0.280 C 
ENDBRANCH   9  11
ENDBRANCH   5   9
BRANCH   3  13
ATOM     13  O   LIG A   1      -9.058   6.225 133.929  0.00  0.00    -0.389 OA
ATOM     14  H   LIG A   1      -8.460   6.992 133.991  0.00  0.00    +0.210 HD
ENDBRANCH   3  13
BRANCH   2  15
ATOM     15  O   LIG A   1      -9.997   3.721 133.270  0.00  0.00    -0.386 OA
ATOM     16  H   LIG A   1     -10.675   4.401 133.464  0.00  0.00    +0.210 HD
ENDBRANCH   2  15
BRANCH   1  17
ATOM     17  O   LIG A   1      -8.184   4.418 130.146  0.00  0.00    -0.456 OA
BRANCH  17  18
ATOM     18  C   LIG A   1      -7.218   3.541 129.781  0.00  0.00    +0.332 C 
ATOM     19  O   LIG A   1      -6.104   3.432 130.278  0.00  0.00    -0.246 OA
BRANCH  18  21
ATOM     20  C   LIG A   1      -7.536   1.368 128.693  0.00  0.00    +0.015 C 
ATOM     21  C   LIG A   1      -7.752   2.695 128.702  0.00  0.00    +0.092 C 
BRANCH  20  25
ATOM     22  C   LIG A   1      -9.044  -1.191 125.613  0.00  0.00    +0.158 A 
ATOM     23  C   LIG A   1      -8.199  -1.717 126.585  0.00  0.00    +0.050 A 
ATOM     24  C   LIG A   1      -7.704  -0.886 127.592  0.00  0.00    +0.012 A 
ATOM     25  C   LIG A   1      -8.060   0.471 127.649  0.00  0.00    -0.021 A 
ATOM     26  C   LIG A   1      -8.899   0.992 126.652  0.00  0.00    +0.057 A 
ATOM     27  C   LIG A   1      -9.393   0.158 125.645  0.00  0.00    +0.159 A 
BRANCH  22  28
ATOM     28  O   LIG A   1      -9.535  -1.992 124.621  0.00  0.00    -0.503 OA
ATOM     29  H   LIG A   1      -8.793  -2.402 124.150  0.00  0.00    +0.292 HD
ENDBRANCH  22  28
BRANCH  27  30
ATOM     30  O   LIG A   1     -10.223   0.655 124.679  0.00  0.00    -0.503 OA
ATOM     31  H   LIG A   1     -10.412   1.587 124.865  0.00  0.00    +0.292 HD
ENDBRANCH  27  30
ENDBRANCH  20  25
ENDBRANCH  18  21
ENDBRANCH  17  18
ENDBRANCH   1  17
TORSDOF 11
ENDMDL
