MODEL 1
REMARK VINA RESULT:      -6.2      0.000      0.000
REMARK  Name = NuBBE_1017
REMARK  10 active torsions:
REMARK  status: ('A' for Active; 'I' for Inactive)
REMARK    1  A    between atoms: C_1  and  C_2
REMARK    2  A    between atoms: C_2  and  C_3
REMARK    3  A    between atoms: C_7  and  O_8
REMARK    4  A    between atoms: O_8  and  C_9
REMARK    5  A    between atoms: C_10  and  O_11
REMARK    6  A    between atoms: O_11  and  C_12
REMARK    7  A    between atoms: C_14  and  C_15
REMARK    8  A    between atoms: C_15  and  C_16
REMARK    9  A    between atoms: C_16  and  C_17
REMARK   10  A    between atoms: C_17  and  O_18
REMARK                            x       y       z     vdW  Elec       q    Type
REMARK                         _______ _______ _______ _____ _____    ______ ____
ROOT
ATOM      1  C   LIG A   1      -8.836  -0.878 122.996  0.00  0.00    +0.060 C 
ATOM      2  C   LIG A   1      -9.017   0.487 123.670  0.00  0.00    +0.123 C 
ATOM      3  C   LIG A   1     -10.310   1.150 123.178  0.00  0.00    +0.060 C 
ATOM      4  C   LIG A   1      -9.080   0.298 125.155  0.00  0.00    +0.020 C 
ATOM      5  C   LIG A   1      -8.418   1.083 126.008  0.00  0.00    +0.015 C 
ATOM      6  C   LIG A   1      -7.594   2.188 125.505  0.00  0.00    +0.062 A 
ATOM      7  C   LIG A   1      -7.033   3.226 126.288  0.00  0.00    +0.172 A 
ATOM      8  C   LIG A   1      -6.299   4.265 125.646  0.00  0.00    +0.163 A 
ATOM      9  C   LIG A   1      -6.097   4.243 124.261  0.00  0.00    +0.056 A 
ATOM     10  C   LIG A   1      -6.580   3.192 123.484  0.00  0.00    -0.001 A 
ATOM     11  C   LIG A   1      -7.370   2.207 124.104  0.00  0.00    +0.136 A 
ATOM     12  O   LIG A   1      -7.900   1.277 123.243  0.00  0.00    -0.481 OA
ENDROOT
BRANCH   7  13
ATOM     13  O   LIG A   1      -7.235   3.446 127.635  0.00  0.00    -0.491 OA
ATOM     14  C   LIG A   1      -6.638   2.594 128.603  0.00  0.00    +0.277 C 
ENDBRANCH   7  13
BRANCH   8  15
ATOM     15  O   LIG A   1      -5.805   5.273 126.450  0.00  0.00    -0.491 OA
ATOM     16  C   LIG A   1      -4.500   5.086 126.990  0.00  0.00    +0.277 C 
ENDBRANCH   8  15
BRANCH  10  17
ATOM     17  C   LIG A   1      -6.266   3.170 122.001  0.00  0.00    +0.050 C 
BRANCH  17  18
ATOM     18  C   LIG A   1      -5.102   4.088 121.611  0.00  0.00    +0.125 C 
BRANCH  18  19
ATOM     19  C   LIG A   1      -5.399   4.932 120.424  0.00  0.00    +0.305 C 
ATOM     20  O   LIG A   1      -6.231   4.620 119.559  0.00  0.00    -0.251 OA
BRANCH  19  21
ATOM     21  O   LIG A   1      -4.711   6.095 120.371  0.00  0.00    -0.481 OA
ATOM     22  H   LIG A   1      -3.762   6.010 120.560  0.00  0.00    +0.295 HD
ENDBRANCH  19  21
ENDBRANCH  18  19
ENDBRANCH  17  18
ENDBRANCH  10  17
TORSDOF 6
ENDMDL
MODEL 2
REMARK VINA RESULT:      -6.2      3.606      6.018
REMARK  Name = NuBBE_1017
REMARK  10 active torsions:
REMARK  status: ('A' for Active; 'I' for Inactive)
REMARK    1  A    between atoms: C_1  and  C_2
REMARK    2  A    between atoms: C_2  and  C_3
REMARK    3  A    between atoms: C_7  and  O_8
REMARK    4  A    between atoms: O_8  and  C_9
REMARK    5  A    between atoms: C_10  and  O_11
REMARK    6  A    between atoms: O_11  and  C_12
REMARK    7  A    between atoms: C_14  and  C_15
REMARK    8  A    between atoms: C_15  and  C_16
REMARK    9  A    between atoms: C_16  and  C_17
REMARK   10  A    between atoms: C_17  and  O_18
REMARK                            x       y       z     vdW  Elec       q    Type
REMARK                         _______ _______ _______ _____ _____    ______ ____
ROOT
ATOM      1  C   LIG A   1      -6.086  -3.393 129.535  0.00  0.00    +0.060 C 
ATOM      2  C   LIG A   1      -7.308  -2.593 129.070  0.00  0.00    +0.123 C 
ATOM      3  C   LIG A   1      -8.557  -3.483 129.084  0.00  0.00    +0.060 C 
ATOM      4  C   LIG A   1      -7.510  -1.425 129.987  0.00  0.00    +0.020 C 
ATOM      5  C   LIG A   1      -7.785  -0.198 129.539  0.00  0.00    +0.015 C 
ATOM      6  C   LIG A   1      -7.908   0.049 128.097  0.00  0.00    +0.062 A 
ATOM      7  C   LIG A   1      -8.417   1.228 127.501  0.00  0.00    +0.172 A 
ATOM      8  C   LIG A   1      -8.528   1.299 126.082  0.00  0.00    +0.163 A 
ATOM      9  C   LIG A   1      -8.102   0.234 125.280  0.00  0.00    +0.056 A 
ATOM     10  C   LIG A   1      -7.533  -0.905 125.847  0.00  0.00    -0.001 A 
ATOM     11  C   LIG A   1      -7.494  -1.008 127.249  0.00  0.00    +0.136 A 
ATOM     12  O   LIG A   1      -7.025  -2.212 127.717  0.00  0.00    -0.481 OA
ENDROOT
BRANCH   7  13
ATOM     13  O   LIG A   1      -8.976   2.310 128.152  0.00  0.00    -0.491 OA
ATOM     14  C   LIG A   1      -8.149   3.292 128.760  0.00  0.00    +0.277 C 
ENDBRANCH   7  13
BRANCH   8  15
ATOM     15  O   LIG A   1      -9.065   2.455 125.552  0.00  0.00    -0.491 OA
ATOM     16  C   LIG A   1      -8.688   2.790 124.220  0.00  0.00    +0.277 C 
ENDBRANCH   8  15
BRANCH  10  17
ATOM     17  C   LIG A   1      -7.012  -1.997 124.934  0.00  0.00    +0.050 C 
BRANCH  17  18
ATOM     18  C   LIG A   1      -8.048  -3.085 124.632  0.00  0.00    +0.125 C 
BRANCH  18  19
ATOM     19  C   LIG A   1      -8.853  -2.802 123.415  0.00  0.00    +0.305 C 
ATOM     20  O   LIG A   1      -8.414  -2.171 122.441  0.00  0.00    -0.251 OA
BRANCH  19  21
ATOM     21  O   LIG A   1     -10.103  -3.317 123.431  0.00  0.00    -0.481 OA
ATOM     22  H   LIG A   1     -10.662  -3.039 122.688  0.00  0.00    +0.295 HD
ENDBRANCH  19  21
ENDBRANCH  18  19
ENDBRANCH  17  18
ENDBRANCH  10  17
TORSDOF 6
ENDMDL
MODEL 3
REMARK VINA RESULT:      -6.0      2.745      5.309
REMARK  Name = NuBBE_1017
REMARK  10 active torsions:
REMARK  status: ('A' for Active; 'I' for Inactive)
REMARK    1  A    between atoms: C_1  and  C_2
REMARK    2  A    between atoms: C_2  and  C_3
REMARK    3  A    between atoms: C_7  and  O_8
REMARK    4  A    between atoms: O_8  and  C_9
REMARK    5  A    between atoms: C_10  and  O_11
REMARK    6  A    between atoms: O_11  and  C_12
REMARK    7  A    between atoms: C_14  and  C_15
REMARK    8  A    between atoms: C_15  and  C_16
REMARK    9  A    between atoms: C_16  and  C_17
REMARK   10  A    between atoms: C_17  and  O_18
REMARK                            x       y       z     vdW  Elec       q    Type
REMARK                         _______ _______ _______ _____ _____    ______ ____
ROOT
ATOM      1  C   LIG A   1      -9.188  -3.534 124.286  0.00  0.00    +0.060 C 
ATOM      2  C   LIG A   1      -8.470  -2.214 123.983  0.00  0.00    +0.123 C 
ATOM      3  C   LIG A   1      -6.999  -2.482 123.640  0.00  0.00    +0.060 C 
ATOM      4  C   LIG A   1      -9.143  -1.541 122.827  0.00  0.00    +0.020 C 
ATOM      5  C   LIG A   1      -9.421  -0.235 122.819  0.00  0.00    +0.015 C 
ATOM      6  C   LIG A   1      -9.059   0.603 123.967  0.00  0.00    +0.062 A 
ATOM      7  C   LIG A   1      -9.082   2.019 123.999  0.00  0.00    +0.172 A 
ATOM      8  C   LIG A   1      -8.646   2.696 125.174  0.00  0.00    +0.163 A 
ATOM      9  C   LIG A   1      -8.239   1.975 126.302  0.00  0.00    +0.056 A 
ATOM     10  C   LIG A   1      -8.278   0.582 126.314  0.00  0.00    -0.001 A 
ATOM     11  C   LIG A   1      -8.634  -0.088 125.130  0.00  0.00    +0.136 A 
ATOM     12  O   LIG A   1      -8.531  -1.457 125.199  0.00  0.00    -0.481 OA
ENDROOT
BRANCH   7  13
ATOM     13  O   LIG A   1      -9.349   2.865 122.942  0.00  0.00    -0.491 OA
ATOM     14  C   LIG A   1      -8.344   3.159 121.982  0.00  0.00    +0.277 C 
ENDBRANCH   7  13
BRANCH   8  15
ATOM     15  O   LIG A   1      -8.652   4.076 125.141  0.00  0.00    -0.491 OA
ATOM     16  C   LIG A   1      -7.449   4.736 125.524  0.00  0.00    +0.277 C 
ENDBRANCH   8  15
BRANCH  10  17
ATOM     17  C   LIG A   1      -7.905  -0.152 127.586  0.00  0.00    +0.050 C 
BRANCH  17  18
ATOM     18  C   LIG A   1      -6.395  -0.188 127.850  0.00  0.00    +0.125 C 
BRANCH  18  19
ATOM     19  C   LIG A   1      -5.632  -0.875 126.776  0.00  0.00    +0.305 C 
ATOM     20  O   LIG A   1      -4.935  -0.274 125.945  0.00  0.00    -0.251 OA
BRANCH  19  21
ATOM     21  O   LIG A   1      -5.727  -2.224 126.789  0.00  0.00    -0.481 OA
ATOM     22  H   LIG A   1      -6.174  -2.588 127.570  0.00  0.00    +0.295 HD
ENDBRANCH  19  21
ENDBRANCH  18  19
ENDBRANCH  17  18
ENDBRANCH  10  17
TORSDOF 6
ENDMDL
MODEL 4
REMARK VINA RESULT:      -6.0      4.145      6.435
REMARK  Name = NuBBE_1017
REMARK  10 active torsions:
REMARK  status: ('A' for Active; 'I' for Inactive)
REMARK    1  A    between atoms: C_1  and  C_2
REMARK    2  A    between atoms: C_2  and  C_3
REMARK    3  A    between atoms: C_7  and  O_8
REMARK    4  A    between atoms: O_8  and  C_9
REMARK    5  A    between atoms: C_10  and  O_11
REMARK    6  A    between atoms: O_11  and  C_12
REMARK    7  A    between atoms: C_14  and  C_15
REMARK    8  A    between atoms: C_15  and  C_16
REMARK    9  A    between atoms: C_16  and  C_17
REMARK   10  A    between atoms: C_17  and  O_18
REMARK                            x       y       z     vdW  Elec       q    Type
REMARK                         _______ _______ _______ _____ _____    ______ ____
ROOT
ATOM      1  C   LIG A   1      -9.814   1.451 124.452  0.00  0.00    +0.060 C 
ATOM      2  C   LIG A   1      -8.552   0.899 125.125  0.00  0.00    +0.123 C 
ATOM      3  C   LIG A   1      -7.427   0.748 124.094  0.00  0.00    +0.060 C 
ATOM      4  C   LIG A   1      -8.121   1.839 126.209  0.00  0.00    +0.020 C 
ATOM      5  C   LIG A   1      -7.741   1.417 127.417  0.00  0.00    +0.015 C 
ATOM      6  C   LIG A   1      -7.726  -0.017 127.727  0.00  0.00    +0.062 A 
ATOM      7  C   LIG A   1      -7.136  -0.612 128.868  0.00  0.00    +0.172 A 
ATOM      8  C   LIG A   1      -7.153  -2.030 129.002  0.00  0.00    +0.163 A 
ATOM      9  C   LIG A   1      -7.782  -2.829 128.040  0.00  0.00    +0.056 A 
ATOM     10  C   LIG A   1      -8.431  -2.257 126.947  0.00  0.00    -0.001 A 
ATOM     11  C   LIG A   1      -8.348  -0.864 126.773  0.00  0.00    +0.136 A 
ATOM     12  O   LIG A   1      -8.914  -0.402 125.610  0.00  0.00    -0.481 OA
ENDROOT
BRANCH   7  13
ATOM     13  O   LIG A   1      -6.388   0.024 129.838  0.00  0.00    -0.491 OA
ATOM     14  C   LIG A   1      -7.027   0.722 130.898  0.00  0.00    +0.277 C 
ENDBRANCH   7  13
BRANCH   8  15
ATOM     15  O   LIG A   1      -6.531  -2.563 130.113  0.00  0.00    -0.491 OA
ATOM     16  C   LIG A   1      -6.362  -3.977 130.142  0.00  0.00    +0.277 C 
ENDBRANCH   8  15
BRANCH  10  17
ATOM     17  C   LIG A   1      -9.167  -3.157 125.976  0.00  0.00    +0.050 C 
BRANCH  17  18
ATOM     18  C   LIG A   1      -8.348  -3.509 124.729  0.00  0.00    +0.125 C 
BRANCH  18  19
ATOM     19  C   LIG A   1      -8.993  -3.071 123.464  0.00  0.00    +0.305 C 
ATOM     20  O   LIG A   1      -8.428  -2.355 122.624  0.00  0.00    -0.251 OA
BRANCH  19  21
ATOM     21  O   LIG A   1     -10.247  -3.543 123.277  0.00  0.00    -0.481 OA
ATOM     22  H   LIG A   1     -10.414  -3.901 122.390  0.00  0.00    +0.295 HD
ENDBRANCH  19  21
ENDBRANCH  18  19
ENDBRANCH  17  18
ENDBRANCH  10  17
TORSDOF 6
ENDMDL
MODEL 5
REMARK VINA RESULT:      -5.8      3.962      7.029
REMARK  Name = NuBBE_1017
REMARK  10 active torsions:
REMARK  status: ('A' for Active; 'I' for Inactive)
REMARK    1  A    between atoms: C_1  and  C_2
REMARK    2  A    between atoms: C_2  and  C_3
REMARK    3  A    between atoms: C_7  and  O_8
REMARK    4  A    between atoms: O_8  and  C_9
REMARK    5  A    between atoms: C_10  and  O_11
REMARK    6  A    between atoms: O_11  and  C_12
REMARK    7  A    between atoms: C_14  and  C_15
REMARK    8  A    between atoms: C_15  and  C_16
REMARK    9  A    between atoms: C_16  and  C_17
REMARK   10  A    between atoms: C_17  and  O_18
REMARK                            x       y       z     vdW  Elec       q    Type
REMARK                         _______ _______ _______ _____ _____    ______ ____
ROOT
ATOM      1  C   LIG A   1      -7.677  -2.525 130.549  0.00  0.00    +0.060 C 
ATOM      2  C   LIG A   1      -7.344  -2.541 129.053  0.00  0.00    +0.123 C 
ATOM      3  C   LIG A   1      -5.883  -2.956 128.843  0.00  0.00    +0.060 C 
ATOM      4  C   LIG A   1      -8.250  -3.510 128.357  0.00  0.00    +0.020 C 
ATOM      5  C   LIG A   1      -8.853  -3.227 127.200  0.00  0.00    +0.015 C 
ATOM      6  C   LIG A   1      -8.635  -1.927 126.554  0.00  0.00    +0.062 A 
ATOM      7  C   LIG A   1      -9.017  -1.585 125.234  0.00  0.00    +0.172 A 
ATOM      8  C   LIG A   1      -8.685  -0.296 124.725  0.00  0.00    +0.163 A 
ATOM      9  C   LIG A   1      -8.026   0.640 125.531  0.00  0.00    +0.056 A 
ATOM     10  C   LIG A   1      -7.707   0.345 126.855  0.00  0.00    -0.001 A 
ATOM     11  C   LIG A   1      -7.963  -0.952 127.334  0.00  0.00    +0.136 A 
ATOM     12  O   LIG A   1      -7.510  -1.187 128.609  0.00  0.00    -0.481 OA
ENDROOT
BRANCH   7  13
ATOM     13  O   LIG A   1      -9.567  -2.426 124.288  0.00  0.00    -0.491 OA
ATOM     14  C   LIG A   1      -8.739  -3.288 123.520  0.00  0.00    +0.277 C 
ENDBRANCH   7  13
BRANCH   8  15
ATOM     15  O   LIG A   1      -9.046  -0.025 123.420  0.00  0.00    -0.491 OA
ATOM     16  C   LIG A   1      -9.835   1.140 123.198  0.00  0.00    +0.277 C 
ENDBRANCH   8  15
BRANCH  10  17
ATOM     17  C   LIG A   1      -7.067   1.419 127.712  0.00  0.00    +0.050 C 
BRANCH  17  18
ATOM     18  C   LIG A   1      -8.007   2.587 128.029  0.00  0.00    +0.125 C 
BRANCH  18  19
ATOM     19  C   LIG A   1      -8.780   2.390 129.283  0.00  0.00    +0.305 C 
ATOM     20  O   LIG A   1      -9.756   3.087 129.598  0.00  0.00    -0.251 OA
BRANCH  19  21
ATOM     21  O   LIG A   1      -8.356   1.361 130.052  0.00  0.00    -0.481 OA
ATOM     22  H   LIG A   1      -7.575   0.897 129.710  0.00  0.00    +0.295 HD
ENDBRANCH  19  21
ENDBRANCH  18  19
ENDBRANCH  17  18
ENDBRANCH  10  17
TORSDOF 6
ENDMDL
MODEL 6
REMARK VINA RESULT:      -5.8      3.773      6.678
REMARK  Name = NuBBE_1017
REMARK  10 active torsions:
REMARK  status: ('A' for Active; 'I' for Inactive)
REMARK    1  A    between atoms: C_1  and  C_2
REMARK    2  A    between atoms: C_2  and  C_3
REMARK    3  A    between atoms: C_7  and  O_8
REMARK    4  A    between atoms: O_8  and  C_9
REMARK    5  A    between atoms: C_10  and  O_11
REMARK    6  A    between atoms: O_11  and  C_12
REMARK    7  A    between atoms: C_14  and  C_15
REMARK    8  A    between atoms: C_15  and  C_16
REMARK    9  A    between atoms: C_16  and  C_17
REMARK   10  A    between atoms: C_17  and  O_18
REMARK                            x       y       z     vdW  Elec       q    Type
REMARK                         _______ _______ _______ _____ _____    ______ ____
ROOT
ATOM      1  C   LIG A   1      -7.271  -2.712 130.860  0.00  0.00    +0.060 C 
ATOM      2  C   LIG A   1      -7.066  -2.624 129.344  0.00  0.00    +0.123 C 
ATOM      3  C   LIG A   1      -5.591  -2.862 128.997  0.00  0.00    +0.060 C 
ATOM      4  C   LIG A   1      -7.916  -3.658 128.671  0.00  0.00    +0.020 C 
ATOM      5  C   LIG A   1      -8.642  -3.394 127.582  0.00  0.00    +0.015 C 
ATOM      6  C   LIG A   1      -8.622  -2.051 126.991  0.00  0.00    +0.062 A 
ATOM      7  C   LIG A   1      -9.149  -1.696 125.725  0.00  0.00    +0.172 A 
ATOM      8  C   LIG A   1      -9.003  -0.357 125.261  0.00  0.00    +0.163 A 
ATOM      9  C   LIG A   1      -8.384   0.611 126.060  0.00  0.00    +0.056 A 
ATOM     10  C   LIG A   1      -7.924   0.296 127.338  0.00  0.00    -0.001 A 
ATOM     11  C   LIG A   1      -7.997  -1.041 127.766  0.00  0.00    +0.136 A 
ATOM     12  O   LIG A   1      -7.414  -1.279 128.987  0.00  0.00    -0.481 OA
ENDROOT
BRANCH   7  13
ATOM     13  O   LIG A   1      -9.682  -2.551 124.782  0.00  0.00    -0.491 OA
ATOM     14  C   LIG A   1      -8.834  -3.367 123.986  0.00  0.00    +0.277 C 
ENDBRANCH   7  13
BRANCH   8  15
ATOM     15  O   LIG A   1      -9.501  -0.071 124.005  0.00  0.00    -0.491 OA
ATOM     16  C   LIG A   1     -10.084   1.215 123.820  0.00  0.00    +0.277 C 
ENDBRANCH   8  15
BRANCH  10  17
ATOM     17  C   LIG A   1      -7.335   1.396 128.197  0.00  0.00    +0.050 C 
BRANCH  17  18
ATOM     18  C   LIG A   1      -8.264   2.605 128.364  0.00  0.00    +0.125 C 
BRANCH  18  19
ATOM     19  C   LIG A   1      -7.704   3.854 127.787  0.00  0.00    +0.305 C 
ATOM     20  O   LIG A   1      -6.581   3.918 127.263  0.00  0.00    -0.251 OA
BRANCH  19  21
ATOM     21  O   LIG A   1      -8.529   4.924 127.846  0.00  0.00    -0.481 OA
ATOM     22  H   LIG A   1      -9.248   4.843 128.493  0.00  0.00    +0.295 HD
ENDBRANCH  19  21
ENDBRANCH  18  19
ENDBRANCH  17  18
ENDBRANCH  10  17
TORSDOF 6
ENDMDL
MODEL 7
REMARK VINA RESULT:      -5.8      3.865      5.066
REMARK  Name = NuBBE_1017
REMARK  10 active torsions:
REMARK  status: ('A' for Active; 'I' for Inactive)
REMARK    1  A    between atoms: C_1  and  C_2
REMARK    2  A    between atoms: C_2  and  C_3
REMARK    3  A    between atoms: C_7  and  O_8
REMARK    4  A    between atoms: O_8  and  C_9
REMARK    5  A    between atoms: C_10  and  O_11
REMARK    6  A    between atoms: O_11  and  C_12
REMARK    7  A    between atoms: C_14  and  C_15
REMARK    8  A    between atoms: C_15  and  C_16
REMARK    9  A    between atoms: C_16  and  C_17
REMARK   10  A    between atoms: C_17  and  O_18
REMARK                            x       y       z     vdW  Elec       q    Type
REMARK                         _______ _______ _______ _____ _____    ______ ____
ROOT
ATOM      1  C   LIG A   1      -6.389  -1.789 122.474  0.00  0.00    +0.060 C 
ATOM      2  C   LIG A   1      -7.163  -2.027 123.776  0.00  0.00    +0.123 C 
ATOM      3  C   LIG A   1      -8.487  -2.741 123.478  0.00  0.00    +0.060 C 
ATOM      4  C   LIG A   1      -6.332  -2.867 124.697  0.00  0.00    +0.020 C 
ATOM      5  C   LIG A   1      -6.201  -2.594 125.997  0.00  0.00    +0.015 C 
ATOM      6  C   LIG A   1      -6.891  -1.437 126.581  0.00  0.00    +0.062 A 
ATOM      7  C   LIG A   1      -7.029  -1.167 127.964  0.00  0.00    +0.172 A 
ATOM      8  C   LIG A   1      -7.778  -0.029 128.380  0.00  0.00    +0.163 A 
ATOM      9  C   LIG A   1      -8.340   0.838 127.436  0.00  0.00    +0.056 A 
ATOM     10  C   LIG A   1      -8.154   0.627 126.071  0.00  0.00    -0.001 A 
ATOM     11  C   LIG A   1      -7.481  -0.537 125.658  0.00  0.00    +0.136 A 
ATOM     12  O   LIG A   1      -7.448  -0.721 124.296  0.00  0.00    -0.481 OA
ENDROOT
BRANCH   7  13
ATOM     13  O   LIG A   1      -6.633  -1.978 129.008  0.00  0.00    -0.491 OA
ATOM     14  C   LIG A   1      -7.361  -3.156 129.323  0.00  0.00    +0.277 C 
ENDBRANCH   7  13
BRANCH   8  15
ATOM     15  O   LIG A   1      -7.914   0.169 129.739  0.00  0.00    -0.491 OA
ATOM     16  C   LIG A   1      -7.944   1.519 130.194  0.00  0.00    +0.277 C 
ENDBRANCH   8  15
BRANCH  10  17
ATOM     17  C   LIG A   1      -8.712   1.638 125.089  0.00  0.00    +0.050 C 
BRANCH  17  18
ATOM     18  C   LIG A   1     -10.070   1.235 124.504  0.00  0.00    +0.125 C 
BRANCH  18  19
ATOM     19  C   LIG A   1     -10.081   1.211 123.018  0.00  0.00    +0.305 C 
ATOM     20  O   LIG A   1      -9.389   1.969 122.321  0.00  0.00    -0.251 OA
BRANCH  19  21
ATOM     21  O   LIG A   1     -10.886   0.271 122.473  0.00  0.00    -0.481 OA
ATOM     22  H   LIG A   1     -10.949  -0.551 122.985  0.00  0.00    +0.295 HD
ENDBRANCH  19  21
ENDBRANCH  18  19
ENDBRANCH  17  18
ENDBRANCH  10  17
TORSDOF 6
ENDMDL
MODEL 8
REMARK VINA RESULT:      -5.7      5.004      7.993
REMARK  Name = NuBBE_1017
REMARK  10 active torsions:
REMARK  status: ('A' for Active; 'I' for Inactive)
REMARK    1  A    between atoms: C_1  and  C_2
REMARK    2  A    between atoms: C_2  and  C_3
REMARK    3  A    between atoms: C_7  and  O_8
REMARK    4  A    between atoms: O_8  and  C_9
REMARK    5  A    between atoms: C_10  and  O_11
REMARK    6  A    between atoms: O_11  and  C_12
REMARK    7  A    between atoms: C_14  and  C_15
REMARK    8  A    between atoms: C_15  and  C_16
REMARK    9  A    between atoms: C_16  and  C_17
REMARK   10  A    between atoms: C_17  and  O_18
REMARK                            x       y       z     vdW  Elec       q    Type
REMARK                         _______ _______ _______ _____ _____    ______ ____
ROOT
ATOM      1  C   LIG A   1     -12.056   6.363 129.408  0.00  0.00    +0.060 C 
ATOM      2  C   LIG A   1     -10.745   6.184 130.182  0.00  0.00    +0.123 C 
ATOM      3  C   LIG A   1      -9.676   7.138 129.636  0.00  0.00    +0.060 C 
ATOM      4  C   LIG A   1     -10.987   6.473 131.632  0.00  0.00    +0.020 C 
ATOM      5  C   LIG A   1     -10.505   5.701 132.609  0.00  0.00    +0.015 C 
ATOM      6  C   LIG A   1      -9.697   4.520 132.285  0.00  0.00    +0.062 A 
ATOM      7  C   LIG A   1      -8.940   3.756 133.206  0.00  0.00    +0.172 A 
ATOM      8  C   LIG A   1      -8.158   2.665 132.730  0.00  0.00    +0.163 A 
ATOM      9  C   LIG A   1      -8.166   2.321 131.373  0.00  0.00    +0.056 A 
ATOM     10  C   LIG A   1      -8.961   3.017 130.463  0.00  0.00    -0.001 A 
ATOM     11  C   LIG A   1      -9.673   4.141 130.918  0.00  0.00    +0.136 A 
ATOM     12  O   LIG A   1     -10.333   4.833 129.932  0.00  0.00    -0.481 OA
ENDROOT
BRANCH   7  13
ATOM     13  O   LIG A   1      -8.743   4.032 134.544  0.00  0.00    -0.491 OA
ATOM     14  C   LIG A   1      -7.835   5.050 134.944  0.00  0.00    +0.277 C 
ENDBRANCH   7  13
BRANCH   8  15
ATOM     15  O   LIG A   1      -7.409   1.976 133.662  0.00  0.00    -0.491 OA
ATOM     16  C   LIG A   1      -6.735   0.805 133.210  0.00  0.00    +0.277 C 
ENDBRANCH   8  15
BRANCH  10  17
ATOM     17  C   LIG A   1      -9.000   2.557 129.020  0.00  0.00    +0.050 C 
BRANCH  17  18
ATOM     18  C   LIG A   1      -7.666   2.738 128.286  0.00  0.00    +0.125 C 
BRANCH  18  19
ATOM     19  C   LIG A   1      -7.388   4.153 127.924  0.00  0.00    +0.305 C 
ATOM     20  O   LIG A   1      -6.262   4.668 128.009  0.00  0.00    -0.251 OA
BRANCH  19  21
ATOM     21  O   LIG A   1      -8.456   4.838 127.458  0.00  0.00    -0.481 OA
ATOM     22  H   LIG A   1      -8.667   4.669 126.525  0.00  0.00    +0.295 HD
ENDBRANCH  19  21
ENDBRANCH  18  19
ENDBRANCH  17  18
ENDBRANCH  10  17
TORSDOF 6
ENDMDL
MODEL 9
REMARK VINA RESULT:      -5.7      2.166      4.968
REMARK  Name = NuBBE_1017
REMARK  10 active torsions:
REMARK  status: ('A' for Active; 'I' for Inactive)
REMARK    1  A    between atoms: C_1  and  C_2
REMARK    2  A    between atoms: C_2  and  C_3
REMARK    3  A    between atoms: C_7  and  O_8
REMARK    4  A    between atoms: O_8  and  C_9
REMARK    5  A    between atoms: C_10  and  O_11
REMARK    6  A    between atoms: O_11  and  C_12
REMARK    7  A    between atoms: C_14  and  C_15
REMARK    8  A    between atoms: C_15  and  C_16
REMARK    9  A    between atoms: C_16  and  C_17
REMARK   10  A    between atoms: C_17  and  O_18
REMARK                            x       y       z     vdW  Elec       q    Type
REMARK                         _______ _______ _______ _____ _____    ______ ____
ROOT
ATOM      1  C   LIG A   1      -3.133   5.030 127.874  0.00  0.00    +0.060 C 
ATOM      2  C   LIG A   1      -3.306   3.641 127.248  0.00  0.00    +0.123 C 
ATOM      3  C   LIG A   1      -2.006   3.207 126.560  0.00  0.00    +0.060 C 
ATOM      4  C   LIG A   1      -3.662   2.659 128.322  0.00  0.00    +0.020 C 
ATOM      5  C   LIG A   1      -4.627   1.748 128.171  0.00  0.00    +0.015 C 
ATOM      6  C   LIG A   1      -5.382   1.675 126.915  0.00  0.00    +0.062 A 
ATOM      7  C   LIG A   1      -6.258   0.629 126.535  0.00  0.00    +0.172 A 
ATOM      8  C   LIG A   1      -6.879   0.671 125.254  0.00  0.00    +0.163 A 
ATOM      9  C   LIG A   1      -6.662   1.752 124.392  0.00  0.00    +0.056 A 
ATOM     10  C   LIG A   1      -5.860   2.825 124.778  0.00  0.00    -0.001 A 
ATOM     11  C   LIG A   1      -5.185   2.748 126.010  0.00  0.00    +0.136 A 
ATOM     12  O   LIG A   1      -4.328   3.794 126.254  0.00  0.00    -0.481 OA
ENDROOT
BRANCH   7  13
ATOM     13  O   LIG A   1      -6.486  -0.548 127.219  0.00  0.00    -0.491 OA
ATOM     14  C   LIG A   1      -5.532  -1.600 127.183  0.00  0.00    +0.277 C 
ENDBRANCH   7  13
BRANCH   8  15
ATOM     15  O   LIG A   1      -7.693  -0.392 124.916  0.00  0.00    -0.491 OA
ATOM     16  C   LIG A   1      -8.982  -0.076 124.396  0.00  0.00    +0.277 C 
ENDBRANCH   8  15
BRANCH  10  17
ATOM     17  C   LIG A   1      -5.720   4.011 123.844  0.00  0.00    +0.050 C 
BRANCH  17  18
ATOM     18  C   LIG A   1      -6.013   3.670 122.378  0.00  0.00    +0.125 C 
BRANCH  18  19
ATOM     19  C   LIG A   1      -5.253   4.516 121.421  0.00  0.00    +0.305 C 
ATOM     20  O   LIG A   1      -4.319   5.257 121.762  0.00  0.00    -0.251 OA
BRANCH  19  21
ATOM     21  O   LIG A   1      -5.637   4.394 120.130  0.00  0.00    -0.481 OA
ATOM     22  H   LIG A   1      -5.752   5.237 119.663  0.00  0.00    +0.295 HD
ENDBRANCH  19  21
ENDBRANCH  18  19
ENDBRANCH  17  18
ENDBRANCH  10  17
TORSDOF 6
ENDMDL
