MODEL 1
REMARK VINA RESULT:      -7.6      0.000      0.000
REMARK  Name = NuBBE_1660
REMARK  7 active torsions:
REMARK  status: ('A' for Active; 'I' for Inactive)
REMARK    1  A    between atoms: C_1  and  C_2
REMARK    2  A    between atoms: C_7  and  C_8
REMARK    3  A    between atoms: C_7  and  O_9
REMARK    4  A    between atoms: C_16  and  O_29
REMARK    5  A    between atoms: C_18  and  O_28
REMARK    6  A    between atoms: C_22  and  C_23
REMARK    7  A    between atoms: C_22  and  C_24
REMARK                            x       y       z     vdW  Elec       q    Type
REMARK                         _______ _______ _______ _____ _____    ______ ____
ROOT
ATOM      1  C   LIG A   1      -9.018   1.241 127.013  0.00  0.00    +0.012 C 
ATOM      2  C   LIG A   1      -8.042   0.459 126.061  0.00  0.00    -0.023 C 
ATOM      3  C   LIG A   1      -6.759   1.308 125.756  0.00  0.00    +0.011 C 
ATOM      4  C   LIG A   1      -7.161   2.780 125.373  0.00  0.00    +0.060 C 
ATOM      5  C   LIG A   1      -5.967   3.758 125.029  0.00  0.00    +0.097 C 
ATOM      6  C   LIG A   1      -6.387   5.234 125.211  0.00  0.00    +0.047 C 
ATOM      7  C   LIG A   1      -4.764   3.465 125.851  0.00  0.00    +0.025 A 
ATOM      8  C   LIG A   1      -4.681   2.264 126.690  0.00  0.00    +0.111 A 
ATOM      9  C   LIG A   1      -5.714   1.283 126.891  0.00  0.00    +0.079 C 
ATOM     10  O   LIG A   1      -3.495   2.158 127.232  0.00  0.00    -0.467 OA
ATOM     11  C   LIG A   1      -2.741   3.238 126.797  0.00  0.00    +0.195 A 
ATOM     12  C   LIG A   1      -3.491   3.999 126.043  0.00  0.00    +0.048 A 
ATOM     13  C   LIG A   1      -8.393   2.790 124.411  0.00  0.00    +0.150 C 
ATOM     14  C   LIG A   1      -9.050   1.410 123.945  0.00  0.00    +0.147 C 
ATOM     15  C   LIG A   1      -8.665   0.063 124.655  0.00  0.00    +0.032 C 
ATOM     16  C   LIG A   1      -7.976  -1.222 123.766  0.00  0.00    -0.029 C 
ATOM     17  C   LIG A   1      -9.027  -1.878 122.810  0.00  0.00    +0.011 C 
ATOM     18  C   LIG A   1      -6.725  -1.055 122.843  0.00  0.00    +0.011 C 
ATOM     19  C   LIG A   1      -7.623  -2.357 124.676  0.00  0.00    +0.007 C 
ATOM     20  C   LIG A   1      -7.523  -1.981 126.091  0.00  0.00    +0.001 C 
ATOM     21  C   LIG A   1      -7.843  -0.764 126.903  0.00  0.00    +0.007 C 
ENDROOT
BRANCH   5  22
ATOM     22  O   LIG A   1      -5.621   3.568 123.650  0.00  0.00    -0.384 OA
ATOM     23  H   LIG A   1      -6.474   3.523 123.169  0.00  0.00    +0.211 HD
ENDBRANCH   5  22
BRANCH  14  24
ATOM     24  O   LIG A   1     -10.483   1.563 124.199  0.00  0.00    -0.389 OA
ATOM     25  H   LIG A   1     -10.715   2.508 124.138  0.00  0.00    +0.210 HD
ENDBRANCH  14  24
BRANCH  13  26
ATOM     26  O   LIG A   1      -8.248   3.657 123.285  0.00  0.00    -0.389 OA
ATOM     27  H   LIG A   1      -8.429   4.566 123.593  0.00  0.00    +0.210 HD
ENDBRANCH  13  26
TORSDOF 3
ENDMDL
MODEL 2
REMARK VINA RESULT:      -7.5      2.919      4.917
REMARK  Name = NuBBE_1660
REMARK  7 active torsions:
REMARK  status: ('A' for Active; 'I' for Inactive)
REMARK    1  A    between atoms: C_1  and  C_2
REMARK    2  A    between atoms: C_7  and  C_8
REMARK    3  A    between atoms: C_7  and  O_9
REMARK    4  A    between atoms: C_16  and  O_29
REMARK    5  A    between atoms: C_18  and  O_28
REMARK    6  A    between atoms: C_22  and  C_23
REMARK    7  A    between atoms: C_22  and  C_24
REMARK                            x       y       z     vdW  Elec       q    Type
REMARK                         _______ _______ _______ _____ _____    ______ ____
ROOT
ATOM      1  C   LIG A   1      -8.995   0.176 126.331  0.00  0.00    +0.012 C 
ATOM      2  C   LIG A   1      -8.153  -1.118 126.038  0.00  0.00    -0.023 C 
ATOM      3  C   LIG A   1      -7.299  -1.525 127.288  0.00  0.00    +0.011 C 
ATOM      4  C   LIG A   1      -6.561  -0.266 127.875  0.00  0.00    +0.060 C 
ATOM      5  C   LIG A   1      -5.650  -0.524 129.142  0.00  0.00    +0.097 C 
ATOM      6  C   LIG A   1      -5.432   0.779 129.944  0.00  0.00    +0.047 C 
ATOM      7  C   LIG A   1      -6.222  -1.575 130.023  0.00  0.00    +0.025 A 
ATOM      8  C   LIG A   1      -7.364  -2.394 129.601  0.00  0.00    +0.111 A 
ATOM      9  C   LIG A   1      -8.107  -2.266 128.376  0.00  0.00    +0.079 C 
ATOM     10  O   LIG A   1      -7.621  -3.322 130.486  0.00  0.00    -0.467 OA
ATOM     11  C   LIG A   1      -6.696  -3.189 131.510  0.00  0.00    +0.195 A 
ATOM     12  C   LIG A   1      -5.930  -2.160 131.254  0.00  0.00    +0.048 A 
ATOM     13  C   LIG A   1      -5.961   0.613 126.730  0.00  0.00    +0.150 C 
ATOM     14  C   LIG A   1      -6.136   0.162 125.206  0.00  0.00    +0.147 C 
ATOM     15  C   LIG A   1      -7.137  -0.985 124.824  0.00  0.00    +0.032 C 
ATOM     16  C   LIG A   1      -6.583  -2.396 124.038  0.00  0.00    -0.029 C 
ATOM     17  C   LIG A   1      -6.164  -2.095 122.561  0.00  0.00    +0.011 C 
ATOM     18  C   LIG A   1      -5.394  -3.263 124.565  0.00  0.00    +0.011 C 
ATOM     19  C   LIG A   1      -7.706  -3.369 123.857  0.00  0.00    +0.007 C 
ATOM     20  C   LIG A   1      -8.857  -3.125 124.734  0.00  0.00    +0.001 C 
ATOM     21  C   LIG A   1      -9.278  -2.038 125.673  0.00  0.00    +0.007 C 
ENDROOT
BRANCH   5  22
ATOM     22  O   LIG A   1      -4.369  -0.975 128.684  0.00  0.00    -0.384 OA
ATOM     23  H   LIG A   1      -4.557  -1.590 127.943  0.00  0.00    +0.211 HD
ENDBRANCH   5  22
BRANCH  14  24
ATOM     24  O   LIG A   1      -6.649   1.345 124.515  0.00  0.00    -0.389 OA
ATOM     25  H   LIG A   1      -7.542   1.150 124.178  0.00  0.00    +0.210 HD
ENDBRANCH  14  24
BRANCH  13  26
ATOM     26  O   LIG A   1      -4.612   1.025 126.957  0.00  0.00    -0.389 OA
ATOM     27  H   LIG A   1      -4.086   0.218 127.122  0.00  0.00    +0.210 HD
ENDBRANCH  13  26
TORSDOF 3
ENDMDL
MODEL 3
REMARK VINA RESULT:      -7.4      6.768      8.917
REMARK  Name = NuBBE_1660
REMARK  7 active torsions:
REMARK  status: ('A' for Active; 'I' for Inactive)
REMARK    1  A    between atoms: C_1  and  C_2
REMARK    2  A    between atoms: C_7  and  C_8
REMARK    3  A    between atoms: C_7  and  O_9
REMARK    4  A    between atoms: C_16  and  O_29
REMARK    5  A    between atoms: C_18  and  O_28
REMARK    6  A    between atoms: C_22  and  C_23
REMARK    7  A    between atoms: C_22  and  C_24
REMARK                            x       y       z     vdW  Elec       q    Type
REMARK                         _______ _______ _______ _____ _____    ______ ____
ROOT
ATOM      1  C   LIG A   1     -10.940   3.877 130.516  0.00  0.00    +0.012 C 
ATOM      2  C   LIG A   1      -9.997   5.047 130.973  0.00  0.00    -0.023 C 
ATOM      3  C   LIG A   1     -10.507   6.425 130.424  0.00  0.00    +0.011 C 
ATOM      4  C   LIG A   1     -10.864   6.302 128.896  0.00  0.00    +0.060 C 
ATOM      5  C   LIG A   1     -11.388   7.620 128.198  0.00  0.00    +0.097 C 
ATOM      6  C   LIG A   1     -12.202   7.289 126.927  0.00  0.00    +0.047 C 
ATOM      7  C   LIG A   1     -12.204   8.445 129.127  0.00  0.00    +0.025 A 
ATOM      8  C   LIG A   1     -12.283   8.137 130.559  0.00  0.00    +0.111 A 
ATOM      9  C   LIG A   1     -11.680   7.018 131.233  0.00  0.00    +0.079 C 
ATOM     10  O   LIG A   1     -12.964   9.058 131.193  0.00  0.00    -0.467 OA
ATOM     11  C   LIG A   1     -13.358  10.002 130.258  0.00  0.00    +0.195 A 
ATOM     12  C   LIG A   1     -12.954   9.618 129.075  0.00  0.00    +0.048 A 
ATOM     13  C   LIG A   1      -9.778   5.473 128.135  0.00  0.00    +0.150 C 
ATOM     14  C   LIG A   1      -8.515   4.898 128.929  0.00  0.00    +0.147 C 
ATOM     15  C   LIG A   1      -8.488   4.905 130.498  0.00  0.00    +0.032 C 
ATOM     16  C   LIG A   1      -7.262   5.743 131.342  0.00  0.00    -0.029 C 
ATOM     17  C   LIG A   1      -5.879   5.026 131.194  0.00  0.00    +0.011 C 
ATOM     18  C   LIG A   1      -6.905   7.242 131.075  0.00  0.00    +0.011 C 
ATOM     19  C   LIG A   1      -7.501   5.671 132.819  0.00  0.00    +0.007 C 
ATOM     20  C   LIG A   1      -8.877   5.318 133.186  0.00  0.00    +0.001 C 
ATOM     21  C   LIG A   1     -10.095   4.846 132.454  0.00  0.00    +0.007 C 
ENDROOT
BRANCH   5  22
ATOM     22  O   LIG A   1     -10.249   8.395 127.799  0.00  0.00    -0.384 OA
ATOM     23  H   LIG A   1      -9.542   8.172 128.441  0.00  0.00    +0.211 HD
ENDBRANCH   5  22
BRANCH  14  24
ATOM     24  O   LIG A   1      -8.448   3.482 128.566  0.00  0.00    -0.389 OA
ATOM     25  H   LIG A   1      -9.128   2.996 129.065  0.00  0.00    +0.210 HD
ENDBRANCH  14  24
BRANCH  13  26
ATOM     26  O   LIG A   1      -9.347   6.063 126.909  0.00  0.00    -0.389 OA
ATOM     27  H   LIG A   1      -8.635   6.697 127.126  0.00  0.00    +0.210 HD
ENDBRANCH  13  26
TORSDOF 3
ENDMDL
MODEL 4
REMARK VINA RESULT:      -7.4      2.250      5.507
REMARK  Name = NuBBE_1660
REMARK  7 active torsions:
REMARK  status: ('A' for Active; 'I' for Inactive)
REMARK    1  A    between atoms: C_1  and  C_2
REMARK    2  A    between atoms: C_7  and  C_8
REMARK    3  A    between atoms: C_7  and  O_9
REMARK    4  A    between atoms: C_16  and  O_29
REMARK    5  A    between atoms: C_18  and  O_28
REMARK    6  A    between atoms: C_22  and  C_23
REMARK    7  A    between atoms: C_22  and  C_24
REMARK                            x       y       z     vdW  Elec       q    Type
REMARK                         _______ _______ _______ _____ _____    ______ ____
ROOT
ATOM      1  C   LIG A   1      -9.054   2.358 122.678  0.00  0.00    +0.012 C 
ATOM      2  C   LIG A   1      -7.571   2.471 123.186  0.00  0.00    -0.023 C 
ATOM      3  C   LIG A   1      -7.093   1.120 123.821  0.00  0.00    +0.011 C 
ATOM      4  C   LIG A   1      -8.185   0.570 124.812  0.00  0.00    +0.060 C 
ATOM      5  C   LIG A   1      -7.838  -0.791 125.540  0.00  0.00    +0.097 C 
ATOM      6  C   LIG A   1      -9.121  -1.503 126.024  0.00  0.00    +0.047 C 
ATOM      7  C   LIG A   1      -7.052  -1.697 124.663  0.00  0.00    +0.025 A 
ATOM      8  C   LIG A   1      -6.500  -1.239 123.383  0.00  0.00    +0.111 A 
ATOM      9  C   LIG A   1      -6.684   0.055 122.781  0.00  0.00    +0.079 C 
ATOM     10  O   LIG A   1      -5.755  -2.168 122.840  0.00  0.00    -0.467 OA
ATOM     11  C   LIG A   1      -5.759  -3.258 123.697  0.00  0.00    +0.195 A 
ATOM     12  C   LIG A   1      -6.538  -2.991 124.714  0.00  0.00    +0.048 A 
ATOM     13  C   LIG A   1      -8.771   1.722 125.691  0.00  0.00    +0.150 C 
ATOM     14  C   LIG A   1      -8.229   3.214 125.512  0.00  0.00    +0.147 C 
ATOM     15  C   LIG A   1      -7.330   3.594 124.282  0.00  0.00    +0.032 C 
ATOM     16  C   LIG A   1      -5.755   4.213 124.515  0.00  0.00    -0.029 C 
ATOM     17  C   LIG A   1      -5.796   5.665 125.096  0.00  0.00    +0.011 C 
ATOM     18  C   LIG A   1      -4.680   3.513 125.409  0.00  0.00    +0.011 C 
ATOM     19  C   LIG A   1      -5.074   4.418 123.198  0.00  0.00    +0.007 C 
ATOM     20  C   LIG A   1      -5.678   3.671 122.088  0.00  0.00    +0.001 C 
ATOM     21  C   LIG A   1      -6.923   2.862 121.893  0.00  0.00    +0.007 C 
ENDROOT
BRANCH   5  22
ATOM     22  O   LIG A   1      -7.044  -0.488 126.694  0.00  0.00    -0.384 OA
ATOM     23  H   LIG A   1      -6.988  -1.325 127.202  0.00  0.00    +0.211 HD
ENDBRANCH   5  22
BRANCH  14  24
ATOM     24  O   LIG A   1      -9.427   4.041 125.362  0.00  0.00    -0.389 OA
ATOM     25  H   LIG A   1     -10.214   3.486 125.511  0.00  0.00    +0.210 HD
ENDBRANCH  14  24
BRANCH  13  26
ATOM     26  O   LIG A   1      -8.861   1.407 127.081  0.00  0.00    -0.389 OA
ATOM     27  H   LIG A   1      -9.553   1.980 127.465  0.00  0.00    +0.210 HD
ENDBRANCH  13  26
TORSDOF 3
ENDMDL
MODEL 5
REMARK VINA RESULT:      -7.3      2.046      5.337
REMARK  Name = NuBBE_1660
REMARK  7 active torsions:
REMARK  status: ('A' for Active; 'I' for Inactive)
REMARK    1  A    between atoms: C_1  and  C_2
REMARK    2  A    between atoms: C_7  and  C_8
REMARK    3  A    between atoms: C_7  and  O_9
REMARK    4  A    between atoms: C_16  and  O_29
REMARK    5  A    between atoms: C_18  and  O_28
REMARK    6  A    between atoms: C_22  and  C_23
REMARK    7  A    between atoms: C_22  and  C_24
REMARK                            x       y       z     vdW  Elec       q    Type
REMARK                         _______ _______ _______ _____ _____    ______ ____
ROOT
ATOM      1  C   LIG A   1      -5.996   2.946 124.140  0.00  0.00    +0.012 C 
ATOM      2  C   LIG A   1      -6.282   2.297 125.542  0.00  0.00    -0.023 C 
ATOM      3  C   LIG A   1      -6.926   0.877 125.380  0.00  0.00    +0.011 C 
ATOM      4  C   LIG A   1      -8.092   0.926 124.325  0.00  0.00    +0.060 C 
ATOM      5  C   LIG A   1      -8.846  -0.439 124.059  0.00  0.00    +0.097 C 
ATOM      6  C   LIG A   1      -9.548  -0.426 122.683  0.00  0.00    +0.047 C 
ATOM      7  C   LIG A   1      -7.924  -1.600 124.151  0.00  0.00    +0.025 A 
ATOM      8  C   LIG A   1      -6.553  -1.456 124.655  0.00  0.00    +0.111 A 
ATOM      9  C   LIG A   1      -5.905  -0.232 125.045  0.00  0.00    +0.079 C 
ATOM     10  O   LIG A   1      -5.969  -2.623 124.750  0.00  0.00    -0.467 OA
ATOM     11  C   LIG A   1      -6.883  -3.581 124.339  0.00  0.00    +0.195 A 
ATOM     12  C   LIG A   1      -7.981  -2.980 123.959  0.00  0.00    +0.048 A 
ATOM     13  C   LIG A   1      -8.972   2.202 124.526  0.00  0.00    +0.150 C 
ATOM     14  C   LIG A   1      -8.628   3.229 125.701  0.00  0.00    +0.147 C 
ATOM     15  C   LIG A   1      -7.263   3.132 126.471  0.00  0.00    +0.032 C 
ATOM     16  C   LIG A   1      -7.234   2.881 128.160  0.00  0.00    -0.029 C 
ATOM     17  C   LIG A   1      -7.725   4.151 128.931  0.00  0.00    +0.011 C 
ATOM     18  C   LIG A   1      -8.008   1.723 128.870  0.00  0.00    +0.011 C 
ATOM     19  C   LIG A   1      -5.823   2.742 128.643  0.00  0.00    +0.007 C 
ATOM     20  C   LIG A   1      -4.858   2.414 127.588  0.00  0.00    +0.001 C 
ATOM     21  C   LIG A   1      -4.889   2.336 126.093  0.00  0.00    +0.007 C 
ENDROOT
BRANCH   5  22
ATOM     22  O   LIG A   1      -9.856  -0.591 125.065  0.00  0.00    -0.384 OA
ATOM     23  H   LIG A   1     -10.022   0.312 125.409  0.00  0.00    +0.211 HD
ENDBRANCH   5  22
BRANCH  14  24
ATOM     24  O   LIG A   1      -8.598   4.545 125.061  0.00  0.00    -0.389 OA
ATOM     25  H   LIG A   1      -9.137   5.164 125.587  0.00  0.00    +0.210 HD
ENDBRANCH  14  24
BRANCH  13  26
ATOM     26  O   LIG A   1     -10.378   1.950 124.506  0.00  0.00    -0.389 OA
ATOM     27  H   LIG A   1     -10.796   2.677 124.005  0.00  0.00    +0.210 HD
ENDBRANCH  13  26
TORSDOF 3
ENDMDL
MODEL 6
REMARK VINA RESULT:      -7.1      4.112      6.094
REMARK  Name = NuBBE_1660
REMARK  7 active torsions:
REMARK  status: ('A' for Active; 'I' for Inactive)
REMARK    1  A    between atoms: C_1  and  C_2
REMARK    2  A    between atoms: C_7  and  C_8
REMARK    3  A    between atoms: C_7  and  O_9
REMARK    4  A    between atoms: C_16  and  O_29
REMARK    5  A    between atoms: C_18  and  O_28
REMARK    6  A    between atoms: C_22  and  C_23
REMARK    7  A    between atoms: C_22  and  C_24
REMARK                            x       y       z     vdW  Elec       q    Type
REMARK                         _______ _______ _______ _____ _____    ______ ____
ROOT
ATOM      1  C   LIG A   1      -8.072  -2.957 128.031  0.00  0.00    +0.012 C 
ATOM      2  C   LIG A   1      -6.960  -2.619 129.089  0.00  0.00    -0.023 C 
ATOM      3  C   LIG A   1      -7.140  -1.164 129.644  0.00  0.00    +0.011 C 
ATOM      4  C   LIG A   1      -7.381  -0.157 128.460  0.00  0.00    +0.060 C 
ATOM      5  C   LIG A   1      -7.573   1.360 128.867  0.00  0.00    +0.097 C 
ATOM      6  C   LIG A   1      -8.324   2.139 127.765  0.00  0.00    +0.047 C 
ATOM      7  C   LIG A   1      -8.288   1.492 130.163  0.00  0.00    +0.025 A 
ATOM      8  C   LIG A   1      -8.550   0.330 131.019  0.00  0.00    +0.111 A 
ATOM      9  C   LIG A   1      -8.239  -1.044 130.722  0.00  0.00    +0.079 C 
ATOM     10  O   LIG A   1      -9.089   0.700 132.152  0.00  0.00    -0.467 OA
ATOM     11  C   LIG A   1      -9.207   2.081 132.125  0.00  0.00    +0.195 A 
ATOM     12  C   LIG A   1      -8.786   2.517 130.966  0.00  0.00    +0.048 A 
ATOM     13  C   LIG A   1      -6.418  -0.459 127.266  0.00  0.00    +0.150 C 
ATOM     14  C   LIG A   1      -5.366  -1.658 127.377  0.00  0.00    +0.147 C 
ATOM     15  C   LIG A   1      -5.473  -2.709 128.537  0.00  0.00    +0.032 C 
ATOM     16  C   LIG A   1      -4.184  -2.924 129.637  0.00  0.00    -0.029 C 
ATOM     17  C   LIG A   1      -2.962  -3.618 128.949  0.00  0.00    +0.011 C 
ATOM     18  C   LIG A   1      -3.518  -1.748 130.422  0.00  0.00    +0.011 C 
ATOM     19  C   LIG A   1      -4.559  -3.917 130.694  0.00  0.00    +0.007 C 
ATOM     20  C   LIG A   1      -6.004  -4.135 130.824  0.00  0.00    +0.001 C 
ATOM     21  C   LIG A   1      -7.223  -3.735 130.053  0.00  0.00    +0.007 C 
ENDROOT
BRANCH   5  22
ATOM     22  O   LIG A   1      -6.274   1.949 129.013  0.00  0.00    -0.384 OA
ATOM     23  H   LIG A   1      -5.638   1.250 128.751  0.00  0.00    +0.211 HD
ENDBRANCH   5  22
BRANCH  14  24
ATOM     24  O   LIG A   1      -5.547  -2.440 126.153  0.00  0.00    -0.389 OA
ATOM     25  H   LIG A   1      -5.770  -3.357 126.395  0.00  0.00    +0.210 HD
ENDBRANCH  14  24
BRANCH  13  26
ATOM     26  O   LIG A   1      -5.774   0.696 126.727  0.00  0.00    -0.389 OA
ATOM     27  H   LIG A   1      -6.337   1.467 126.939  0.00  0.00    +0.210 HD
ENDBRANCH  13  26
TORSDOF 3
ENDMDL
MODEL 7
REMARK VINA RESULT:      -7.1      4.611      7.104
REMARK  Name = NuBBE_1660
REMARK  7 active torsions:
REMARK  status: ('A' for Active; 'I' for Inactive)
REMARK    1  A    between atoms: C_1  and  C_2
REMARK    2  A    between atoms: C_7  and  C_8
REMARK    3  A    between atoms: C_7  and  O_9
REMARK    4  A    between atoms: C_16  and  O_29
REMARK    5  A    between atoms: C_18  and  O_28
REMARK    6  A    between atoms: C_22  and  C_23
REMARK    7  A    between atoms: C_22  and  C_24
REMARK                            x       y       z     vdW  Elec       q    Type
REMARK                         _______ _______ _______ _____ _____    ______ ____
ROOT
ATOM      1  C   LIG A   1      -4.220   3.136 131.517  0.00  0.00    +0.012 C 
ATOM      2  C   LIG A   1      -4.274   3.913 130.152  0.00  0.00    -0.023 C 
ATOM      3  C   LIG A   1      -5.736   4.380 129.832  0.00  0.00    +0.011 C 
ATOM      4  C   LIG A   1      -6.748   3.197 130.063  0.00  0.00    +0.060 C 
ATOM      5  C   LIG A   1      -8.269   3.518 129.772  0.00  0.00    +0.097 C 
ATOM      6  C   LIG A   1      -9.196   2.537 130.523  0.00  0.00    +0.047 C 
ATOM      7  C   LIG A   1      -8.611   4.919 130.129  0.00  0.00    +0.025 A 
ATOM      8  C   LIG A   1      -7.576   5.897 130.482  0.00  0.00    +0.111 A 
ATOM      9  C   LIG A   1      -6.164   5.649 130.601  0.00  0.00    +0.079 C 
ATOM     10  O   LIG A   1      -8.098   7.085 130.648  0.00  0.00    -0.467 OA
ATOM     11  C   LIG A   1      -9.461   6.977 130.416  0.00  0.00    +0.195 A 
ATOM     12  C   LIG A   1      -9.747   5.727 130.163  0.00  0.00    +0.048 A 
ATOM     13  C   LIG A   1      -6.178   1.858 129.494  0.00  0.00    +0.150 C 
ATOM     14  C   LIG A   1      -4.747   1.841 128.781  0.00  0.00    +0.147 C 
ATOM     15  C   LIG A   1      -3.785   3.076 128.895  0.00  0.00    +0.032 C 
ATOM     16  C   LIG A   1      -3.259   3.899 127.494  0.00  0.00    -0.029 C 
ATOM     17  C   LIG A   1      -2.254   3.030 126.668  0.00  0.00    +0.011 C 
ATOM     18  C   LIG A   1      -4.234   4.437 126.396  0.00  0.00    +0.011 C 
ATOM     19  C   LIG A   1      -2.422   5.084 127.867  0.00  0.00    +0.007 C 
ATOM     20  C   LIG A   1      -2.595   5.525 129.255  0.00  0.00    +0.001 C 
ATOM     21  C   LIG A   1      -3.287   4.993 130.472  0.00  0.00    +0.007 C 
ENDROOT
BRANCH   5  22
ATOM     22  O   LIG A   1      -8.497   3.348 128.366  0.00  0.00    -0.384 OA
ATOM     23  H   LIG A   1      -8.821   2.428 128.263  0.00  0.00    +0.211 HD
ENDBRANCH   5  22
BRANCH  14  24
ATOM     24  O   LIG A   1      -4.016   0.744 129.417  0.00  0.00    -0.389 OA
ATOM     25  H   LIG A   1      -4.624  -0.006 129.548  0.00  0.00    +0.210 HD
ENDBRANCH  14  24
BRANCH  13  26
ATOM     26  O   LIG A   1      -7.112   1.111 128.713  0.00  0.00    -0.389 OA
ATOM     27  H   LIG A   1      -7.280   0.272 129.185  0.00  0.00    +0.210 HD
ENDBRANCH  13  26
TORSDOF 3
ENDMDL
MODEL 8
REMARK VINA RESULT:      -6.8      5.730      7.568
REMARK  Name = NuBBE_1660
REMARK  7 active torsions:
REMARK  status: ('A' for Active; 'I' for Inactive)
REMARK    1  A    between atoms: C_1  and  C_2
REMARK    2  A    between atoms: C_7  and  C_8
REMARK    3  A    between atoms: C_7  and  O_9
REMARK    4  A    between atoms: C_16  and  O_29
REMARK    5  A    between atoms: C_18  and  O_28
REMARK    6  A    between atoms: C_22  and  C_23
REMARK    7  A    between atoms: C_22  and  C_24
REMARK                            x       y       z     vdW  Elec       q    Type
REMARK                         _______ _______ _______ _____ _____    ______ ____
ROOT
ATOM      1  C   LIG A   1      -7.910   6.653 131.025  0.00  0.00    +0.012 C 
ATOM      2  C   LIG A   1      -7.663   5.344 131.859  0.00  0.00    -0.023 C 
ATOM      3  C   LIG A   1      -6.138   4.982 131.892  0.00  0.00    +0.011 C 
ATOM      4  C   LIG A   1      -5.526   5.077 130.446  0.00  0.00    +0.060 C 
ATOM      5  C   LIG A   1      -3.988   4.729 130.319  0.00  0.00    +0.097 C 
ATOM      6  C   LIG A   1      -3.379   5.361 129.048  0.00  0.00    +0.047 C 
ATOM      7  C   LIG A   1      -3.228   5.164 131.520  0.00  0.00    +0.025 A 
ATOM      8  C   LIG A   1      -3.908   5.638 132.730  0.00  0.00    +0.111 A 
ATOM      9  C   LIG A   1      -5.325   5.813 132.907  0.00  0.00    +0.079 C 
ATOM     10  O   LIG A   1      -3.046   5.858 133.690  0.00  0.00    -0.467 OA
ATOM     11  C   LIG A   1      -1.787   5.548 133.198  0.00  0.00    +0.195 A 
ATOM     12  C   LIG A   1      -1.900   5.194 131.945  0.00  0.00    +0.048 A 
ATOM     13  C   LIG A   1      -6.490   4.447 129.389  0.00  0.00    +0.150 C 
ATOM     14  C   LIG A   1      -7.879   3.811 129.859  0.00  0.00    +0.147 C 
ATOM     15  C   LIG A   1      -8.419   4.059 131.312  0.00  0.00    +0.032 C 
ATOM     16  C   LIG A   1      -8.711   2.748 132.367  0.00  0.00    -0.029 C 
ATOM     17  C   LIG A   1      -9.956   1.918 131.908  0.00  0.00    +0.011 C 
ATOM     18  C   LIG A   1      -7.652   1.641 132.676  0.00  0.00    +0.011 C 
ATOM     19  C   LIG A   1      -9.140   3.245 133.713  0.00  0.00    +0.007 C 
ATOM     20  C   LIG A   1      -8.802   4.650 133.968  0.00  0.00    +0.001 C 
ATOM     21  C   LIG A   1      -8.268   5.789 133.155  0.00  0.00    +0.007 C 
ENDROOT
BRANCH   5  22
ATOM     22  O   LIG A   1      -3.862   3.306 130.204  0.00  0.00    -0.384 OA
ATOM     23  H   LIG A   1      -3.246   3.038 130.919  0.00  0.00    +0.211 HD
ENDBRANCH   5  22
BRANCH  14  24
ATOM     24  O   LIG A   1      -8.889   4.407 128.984  0.00  0.00    -0.389 OA
ATOM     25  H   LIG A   1      -8.440   4.944 128.306  0.00  0.00    +0.210 HD
ENDBRANCH  14  24
BRANCH  13  26
ATOM     26  O   LIG A   1      -5.849   3.568 128.464  0.00  0.00    -0.389 OA
ATOM     27  H   LIG A   1      -6.223   3.753 127.581  0.00  0.00    +0.210 HD
ENDBRANCH  13  26
TORSDOF 3
ENDMDL
MODEL 9
REMARK VINA RESULT:      -6.8      2.366      5.327
REMARK  Name = NuBBE_1660
REMARK  7 active torsions:
REMARK  status: ('A' for Active; 'I' for Inactive)
REMARK    1  A    between atoms: C_1  and  C_2
REMARK    2  A    between atoms: C_7  and  C_8
REMARK    3  A    between atoms: C_7  and  O_9
REMARK    4  A    between atoms: C_16  and  O_29
REMARK    5  A    between atoms: C_18  and  O_28
REMARK    6  A    between atoms: C_22  and  C_23
REMARK    7  A    between atoms: C_22  and  C_24
REMARK                            x       y       z     vdW  Elec       q    Type
REMARK                         _______ _______ _______ _____ _____    ______ ____
ROOT
ATOM      1  C   LIG A   1      -9.858   0.456 125.418  0.00  0.00    +0.012 C 
ATOM      2  C   LIG A   1      -8.574   1.157 124.845  0.00  0.00    -0.023 C 
ATOM      3  C   LIG A   1      -7.348   0.179 124.863  0.00  0.00    +0.011 C 
ATOM      4  C   LIG A   1      -7.250  -0.543 126.258  0.00  0.00    +0.060 C 
ATOM      5  C   LIG A   1      -6.051  -1.560 126.431  0.00  0.00    +0.097 C 
ATOM      6  C   LIG A   1      -6.346  -2.581 127.552  0.00  0.00    +0.047 C 
ATOM      7  C   LIG A   1      -5.748  -2.269 125.161  0.00  0.00    +0.025 A 
ATOM      8  C   LIG A   1      -6.362  -1.868 123.890  0.00  0.00    +0.111 A 
ATOM      9  C   LIG A   1      -7.346  -0.835 123.700  0.00  0.00    +0.079 C 
ATOM     10  O   LIG A   1      -5.864  -2.558 122.896  0.00  0.00    -0.467 OA
ATOM     11  C   LIG A   1      -4.919  -3.424 123.423  0.00  0.00    +0.195 A 
ATOM     12  C   LIG A   1      -4.893  -3.280 124.723  0.00  0.00    +0.048 A 
ATOM     13  C   LIG A   1      -7.507   0.464 127.426  0.00  0.00    +0.150 C 
ATOM     14  C   LIG A   1      -7.804   2.001 127.101  0.00  0.00    +0.147 C 
ATOM     15  C   LIG A   1      -8.122   2.459 125.634  0.00  0.00    +0.032 C 
ATOM     16  C   LIG A   1      -7.136   3.613 124.850  0.00  0.00    -0.029 C 
ATOM     17  C   LIG A   1      -7.326   5.036 125.472  0.00  0.00    +0.011 C 
ATOM     18  C   LIG A   1      -5.582   3.486 124.744  0.00  0.00    +0.011 C 
ATOM     19  C   LIG A   1      -7.594   3.820 123.440  0.00  0.00    +0.007 C 
ATOM     20  C   LIG A   1      -8.437   2.737 122.919  0.00  0.00    +0.001 C 
ATOM     21  C   LIG A   1      -9.106   1.528 123.495  0.00  0.00    +0.007 C 
ENDROOT
BRANCH   5  22
ATOM     22  O   LIG A   1      -4.887  -0.814 126.813  0.00  0.00    -0.384 OA
ATOM     23  H   LIG A   1      -4.266  -0.893 126.058  0.00  0.00    +0.211 HD
ENDBRANCH   5  22
BRANCH  14  24
ATOM     24  O   LIG A   1      -9.013   2.326 127.859  0.00  0.00    -0.389 OA
ATOM     25  H   LIG A   1      -9.308   1.530 128.338  0.00  0.00    +0.210 HD
ENDBRANCH  14  24
BRANCH  13  26
ATOM     26  O   LIG A   1      -6.563   0.372 128.494  0.00  0.00    -0.389 OA
ATOM     27  H   LIG A   1      -6.562  -0.555 128.801  0.00  0.00    +0.210 HD
ENDBRANCH  13  26
TORSDOF 3
ENDMDL
