MODEL 1
REMARK VINA RESULT:      -8.3      0.000      0.000
REMARK  Name = NuBBE_1289
REMARK  17 active torsions:
REMARK  status: ('A' for Active; 'I' for Inactive)
REMARK    1  A    between atoms: C_1  and  C_2
REMARK    2  A    between atoms: C_3  and  C_5
REMARK    3  A    between atoms: C_5  and  C_6
REMARK    4  A    between atoms: C_6  and  O_8
REMARK    5  A    between atoms: O_8  and  C_9
REMARK    6  A    between atoms: C_10  and  C_11
REMARK    7  A    between atoms: C_22  and  C_23
REMARK    8  A    between atoms: C_24  and  C_27
REMARK    9  A    between atoms: C_34  and  C_35
REMARK   10  A    between atoms: C_36  and  O_48
REMARK   11  A    between atoms: C_39  and  O_41
REMARK   12  A    between atoms: O_41  and  C_42
REMARK   13  A    between atoms: C_42  and  C_44
REMARK   14  A    between atoms: C_44  and  C_47
REMARK   15  A    between atoms: C_45  and  C_46
REMARK   16  A    between atoms: O_48  and  C_49
REMARK   17  A    between atoms: C_49  and  C_51
REMARK                            x       y       z     vdW  Elec       q    Type
REMARK                         _______ _______ _______ _____ _____    ______ ____
ROOT
ATOM      1  C   LIG A   1      -4.989   1.826 128.377  0.00  0.00    +0.019 C 
ATOM      2  C   LIG A   1      -5.813   3.139 128.362  0.00  0.00    +0.024 C 
ATOM      3  C   LIG A   1      -6.322   3.637 129.787  0.00  0.00    +0.022 C 
ATOM      4  C   LIG A   1      -5.077   4.098 130.719  0.00  0.00    +0.015 C 
ATOM      5  C   LIG A   1      -4.137   2.865 130.955  0.00  0.00    +0.015 C 
ATOM      6  C   LIG A   1      -4.254   5.180 130.001  0.00  0.00    +0.042 C 
ATOM      7  C   LIG A   1      -4.228   5.261 128.476  0.00  0.00    +0.152 C 
ATOM      8  C   LIG A   1      -5.041   4.279 127.619  0.00  0.00    +0.158 C 
ATOM      9  O   LIG A   1      -5.992   4.833 126.661  0.00  0.00    -0.366 OA
ATOM     10  C   LIG A   1      -6.519   3.638 126.087  0.00  0.00    +0.146 C 
ATOM     11  C   LIG A   1      -6.829   2.836 127.301  0.00  0.00    -0.033 C 
ATOM     12  C   LIG A   1      -7.846   1.989 127.103  0.00  0.00    -0.063 C 
ATOM     13  C   LIG A   1      -8.383   0.983 128.057  0.00  0.00    +0.040 C 
ATOM     14  C   LIG A   1      -8.387   2.170 125.686  0.00  0.00    +0.051 C 
ATOM     15  C   LIG A   1      -7.817   3.573 125.305  0.00  0.00    +0.048 C 
ATOM     16  O   LIG A   1      -4.273   6.662 128.175  0.00  0.00    -0.373 OA
ATOM     17  C   LIG A   1      -3.620   7.301 129.307  0.00  0.00    +0.171 C 
ATOM     18  C   LIG A   1      -4.293   6.641 130.519  0.00  0.00    +0.034 C 
ATOM     19  C   LIG A   1      -5.617   7.422 130.713  0.00  0.00    +0.017 C 
ATOM     20  C   LIG A   1      -3.625   6.619 131.912  0.00  0.00    +0.188 C 
ATOM     21  C   LIG A   1      -4.265   5.481 132.804  0.00  0.00    +0.090 C 
ATOM     22  C   LIG A   1      -5.430   4.636 132.163  0.00  0.00    +0.187 C 
ENDROOT
BRANCH  14  23
ATOM     23  C   LIG A   1      -7.938   1.051 124.767  0.00  0.00    -0.003 A 
ATOM     24  C   LIG A   1      -6.704   0.329 124.772  0.00  0.00    +0.045 A 
ATOM     25  C   LIG A   1      -6.756  -0.575 123.739  0.00  0.00    +0.195 A 
ATOM     26  O   LIG A   1      -7.939  -0.475 123.090  0.00  0.00    -0.471 OA
ATOM     27  C   LIG A   1      -8.645   0.506 123.707  0.00  0.00    +0.199 A 
ENDBRANCH  14  23
BRANCH   3  28
ATOM     28  C   LIG A   1      -7.353   4.793 129.688  0.00  0.00    +0.125 C 
BRANCH  28  29
ATOM     29  C   LIG A   1      -8.789   4.632 130.129  0.00  0.00    +0.307 C 
ATOM     30  O   LIG A   1      -9.593   3.881 129.590  0.00  0.00    -0.251 OA
BRANCH  29  31
ATOM     31  O   LIG A   1      -9.114   5.545 131.078  0.00  0.00    -0.468 OA
ATOM     32  C   LIG A   1      -9.391   6.847 130.553  0.00  0.00    +0.280 C 
ENDBRANCH  29  31
ENDBRANCH  28  29
ENDBRANCH   3  28
BRANCH  22  33
ATOM     33  O   LIG A   1      -5.709   3.477 132.996  0.00  0.00    -0.457 OA
BRANCH  33  34
ATOM     34  C   LIG A   1      -6.617   3.529 133.987  0.00  0.00    +0.335 C 
ATOM     35  O   LIG A   1      -6.405   3.917 135.135  0.00  0.00    -0.245 OA
BRANCH  34  36
ATOM     36  C   LIG A   1      -7.932   3.027 133.465  0.00  0.00    +0.029 C 
ATOM     37  C   LIG A   1      -7.925   1.958 132.634  0.00  0.00    -0.020 C 
ATOM     38  C   LIG A   1      -9.121   1.313 132.002  0.00  0.00    +0.035 C 
ATOM     39  C   LIG A   1      -9.192   3.730 133.881  0.00  0.00    +0.051 C 
ENDBRANCH  34  36
ENDBRANCH  33  34
ENDBRANCH  22  33
BRANCH  20  40
ATOM     40  O   LIG A   1      -2.187   6.423 131.896  0.00  0.00    -0.461 OA
BRANCH  40  41
ATOM     41  C   LIG A   1      -1.452   7.432 132.473  0.00  0.00    +0.304 C 
ATOM     42  O   LIG A   1      -0.267   7.402 132.697  0.00  0.00    -0.251 OA
ATOM     43  C   LIG A   1      -2.305   8.644 132.705  0.00  0.00    +0.136 C 
ENDBRANCH  40  41
ENDBRANCH  20  40
TORSDOF 9
ENDMDL
MODEL 2
REMARK VINA RESULT:      -8.0      1.781      7.834
REMARK  Name = NuBBE_1289
REMARK  17 active torsions:
REMARK  status: ('A' for Active; 'I' for Inactive)
REMARK    1  A    between atoms: C_1  and  C_2
REMARK    2  A    between atoms: C_3  and  C_5
REMARK    3  A    between atoms: C_5  and  C_6
REMARK    4  A    between atoms: C_6  and  O_8
REMARK    5  A    between atoms: O_8  and  C_9
REMARK    6  A    between atoms: C_10  and  C_11
REMARK    7  A    between atoms: C_22  and  C_23
REMARK    8  A    between atoms: C_24  and  C_27
REMARK    9  A    between atoms: C_34  and  C_35
REMARK   10  A    between atoms: C_36  and  O_48
REMARK   11  A    between atoms: C_39  and  O_41
REMARK   12  A    between atoms: O_41  and  C_42
REMARK   13  A    between atoms: C_42  and  C_44
REMARK   14  A    between atoms: C_44  and  C_47
REMARK   15  A    between atoms: C_45  and  C_46
REMARK   16  A    between atoms: O_48  and  C_49
REMARK   17  A    between atoms: C_49  and  C_51
REMARK                            x       y       z     vdW  Elec       q    Type
REMARK                         _______ _______ _______ _____ _____    ______ ____
ROOT
ATOM      1  C   LIG A   1      -5.495   6.933 131.179  0.00  0.00    +0.019 C 
ATOM      2  C   LIG A   1      -4.592   5.699 130.928  0.00  0.00    +0.024 C 
ATOM      3  C   LIG A   1      -5.236   4.296 131.322  0.00  0.00    +0.022 C 
ATOM      4  C   LIG A   1      -6.482   3.935 130.348  0.00  0.00    +0.015 C 
ATOM      5  C   LIG A   1      -7.591   5.031 130.518  0.00  0.00    +0.015 C 
ATOM      6  C   LIG A   1      -6.026   3.958 128.879  0.00  0.00    +0.042 C 
ATOM      7  C   LIG A   1      -4.847   4.822 128.439  0.00  0.00    +0.152 C 
ATOM      8  C   LIG A   1      -4.070   5.675 129.453  0.00  0.00    +0.158 C 
ATOM      9  O   LIG A   1      -2.628   5.473 129.554  0.00  0.00    -0.366 OA
ATOM     10  C   LIG A   1      -2.296   6.422 130.567  0.00  0.00    +0.146 C 
ATOM     11  C   LIG A   1      -3.321   6.122 131.603  0.00  0.00    -0.033 C 
ATOM     12  C   LIG A   1      -2.891   6.404 132.838  0.00  0.00    -0.063 C 
ATOM     13  C   LIG A   1      -3.659   6.306 134.107  0.00  0.00    +0.040 C 
ATOM     14  C   LIG A   1      -1.448   6.901 132.771  0.00  0.00    +0.051 C 
ATOM     15  C   LIG A   1      -1.004   6.398 131.360  0.00  0.00    +0.048 C 
ATOM     16  O   LIG A   1      -4.125   4.019 127.496  0.00  0.00    -0.373 OA
ATOM     17  C   LIG A   1      -5.139   3.173 126.885  0.00  0.00    +0.171 C 
ATOM     18  C   LIG A   1      -5.915   2.626 128.092  0.00  0.00    +0.034 C 
ATOM     19  C   LIG A   1      -5.073   1.427 128.597  0.00  0.00    +0.017 C 
ATOM     20  C   LIG A   1      -7.356   2.086 127.959  0.00  0.00    +0.188 C 
ATOM     21  C   LIG A   1      -8.064   2.073 129.373  0.00  0.00    +0.090 C 
ATOM     22  C   LIG A   1      -7.213   2.558 130.607  0.00  0.00    +0.187 C 
ENDROOT
BRANCH  14  23
ATOM     23  C   LIG A   1      -1.365   8.405 132.943  0.00  0.00    -0.003 A 
ATOM     24  C   LIG A   1      -2.377   9.389 132.718  0.00  0.00    +0.045 A 
ATOM     25  C   LIG A   1      -1.823  10.616 132.994  0.00  0.00    +0.195 A 
ATOM     26  O   LIG A   1      -0.535  10.469 133.383  0.00  0.00    -0.471 OA
ATOM     27  C   LIG A   1      -0.261   9.140 133.346  0.00  0.00    +0.199 A 
ENDBRANCH  14  23
BRANCH   3  28
ATOM     28  C   LIG A   1      -4.206   3.134 131.301  0.00  0.00    +0.125 C 
BRANCH  28  29
ATOM     29  C   LIG A   1      -3.594   2.577 132.565  0.00  0.00    +0.307 C 
ATOM     30  O   LIG A   1      -2.542   2.973 133.050  0.00  0.00    -0.251 OA
BRANCH  29  31
ATOM     31  O   LIG A   1      -4.266   1.478 132.990  0.00  0.00    -0.468 OA
ATOM     32  C   LIG A   1      -4.256   0.399 132.050  0.00  0.00    +0.280 C 
ENDBRANCH  29  31
ENDBRANCH  28  29
ENDBRANCH   3  28
BRANCH  22  33
ATOM     33  O   LIG A   1      -8.081   2.744 131.758  0.00  0.00    -0.457 OA
BRANCH  33  34
ATOM     34  C   LIG A   1      -7.774   2.223 132.960  0.00  0.00    +0.335 C 
ATOM     35  O   LIG A   1      -7.557   1.036 133.194  0.00  0.00    -0.245 OA
BRANCH  34  36
ATOM     36  C   LIG A   1      -7.746   3.331 133.973  0.00  0.00    +0.029 C 
ATOM     37  C   LIG A   1      -6.582   3.580 134.617  0.00  0.00    -0.020 C 
ATOM     38  C   LIG A   1      -6.348   4.629 135.662  0.00  0.00    +0.035 C 
ATOM     39  C   LIG A   1      -9.004   4.108 134.230  0.00  0.00    +0.051 C 
ENDBRANCH  34  36
ENDBRANCH  33  34
ENDBRANCH  22  33
BRANCH  20  40
ATOM     40  O   LIG A   1      -8.202   2.823 127.039  0.00  0.00    -0.461 OA
BRANCH  40  41
ATOM     41  C   LIG A   1      -8.592   2.129 125.918  0.00  0.00    +0.304 C 
ATOM     42  O   LIG A   1      -9.123   2.602 124.944  0.00  0.00    -0.251 OA
ATOM     43  C   LIG A   1      -8.175   0.690 126.013  0.00  0.00    +0.136 C 
ENDBRANCH  40  41
ENDBRANCH  20  40
TORSDOF 9
ENDMDL
MODEL 3
REMARK VINA RESULT:      -7.9      2.040      8.387
REMARK  Name = NuBBE_1289
REMARK  17 active torsions:
REMARK  status: ('A' for Active; 'I' for Inactive)
REMARK    1  A    between atoms: C_1  and  C_2
REMARK    2  A    between atoms: C_3  and  C_5
REMARK    3  A    between atoms: C_5  and  C_6
REMARK    4  A    between atoms: C_6  and  O_8
REMARK    5  A    between atoms: O_8  and  C_9
REMARK    6  A    between atoms: C_10  and  C_11
REMARK    7  A    between atoms: C_22  and  C_23
REMARK    8  A    between atoms: C_24  and  C_27
REMARK    9  A    between atoms: C_34  and  C_35
REMARK   10  A    between atoms: C_36  and  O_48
REMARK   11  A    between atoms: C_39  and  O_41
REMARK   12  A    between atoms: O_41  and  C_42
REMARK   13  A    between atoms: C_42  and  C_44
REMARK   14  A    between atoms: C_44  and  C_47
REMARK   15  A    between atoms: C_45  and  C_46
REMARK   16  A    between atoms: O_48  and  C_49
REMARK   17  A    between atoms: C_49  and  C_51
REMARK                            x       y       z     vdW  Elec       q    Type
REMARK                         _______ _______ _______ _____ _____    ______ ____
ROOT
ATOM      1  C   LIG A   1      -2.924   4.465 128.901  0.00  0.00    +0.019 C 
ATOM      2  C   LIG A   1      -4.211   4.145 129.703  0.00  0.00    +0.024 C 
ATOM      3  C   LIG A   1      -5.550   4.080 128.841  0.00  0.00    +0.022 C 
ATOM      4  C   LIG A   1      -5.527   2.812 127.829  0.00  0.00    +0.015 C 
ATOM      5  C   LIG A   1      -4.328   2.982 126.832  0.00  0.00    +0.015 C 
ATOM      6  C   LIG A   1      -5.297   1.512 128.618  0.00  0.00    +0.042 C 
ATOM      7  C   LIG A   1      -4.553   1.528 129.952  0.00  0.00    +0.152 C 
ATOM      8  C   LIG A   1      -4.034   2.844 130.552  0.00  0.00    +0.158 C 
ATOM      9  O   LIG A   1      -4.467   3.197 131.900  0.00  0.00    -0.366 OA
ATOM     10  C   LIG A   1      -3.789   4.439 132.081  0.00  0.00    +0.146 C 
ATOM     11  C   LIG A   1      -4.120   5.147 130.816  0.00  0.00    -0.033 C 
ATOM     12  C   LIG A   1      -4.145   6.476 130.969  0.00  0.00    -0.063 C 
ATOM     13  C   LIG A   1      -4.363   7.503 129.917  0.00  0.00    +0.040 C 
ATOM     14  C   LIG A   1      -3.867   6.822 132.431  0.00  0.00    +0.051 C 
ATOM     15  C   LIG A   1      -4.157   5.460 133.140  0.00  0.00    +0.048 C 
ATOM     16  O   LIG A   1      -5.264   0.605 130.788  0.00  0.00    -0.373 OA
ATOM     17  C   LIG A   1      -5.816  -0.374 129.864  0.00  0.00    +0.171 C 
ATOM     18  C   LIG A   1      -6.457   0.496 128.773  0.00  0.00    +0.034 C 
ATOM     19  C   LIG A   1      -7.843   0.891 129.341  0.00  0.00    +0.017 C 
ATOM     20  C   LIG A   1      -6.739  -0.051 127.355  0.00  0.00    +0.188 C 
ATOM     21  C   LIG A   1      -6.911   1.146 126.336  0.00  0.00    +0.090 C 
ATOM     22  C   LIG A   1      -6.802   2.606 126.917  0.00  0.00    +0.187 C 
ENDROOT
BRANCH  14  23
ATOM     23  C   LIG A   1      -2.454   7.331 132.628  0.00  0.00    -0.003 A 
ATOM     24  C   LIG A   1      -1.224   6.602 132.578  0.00  0.00    +0.045 A 
ATOM     25  C   LIG A   1      -0.210   7.493 132.836  0.00  0.00    +0.195 A 
ATOM     26  O   LIG A   1      -0.718   8.731 133.039  0.00  0.00    -0.471 OA
ATOM     27  C   LIG A   1      -2.066   8.630 132.918  0.00  0.00    +0.199 A 
ENDBRANCH  14  23
BRANCH   3  28
ATOM     28  C   LIG A   1      -6.829   4.022 129.719  0.00  0.00    +0.125 C 
BRANCH  28  29
ATOM     29  C   LIG A   1      -7.998   4.953 129.501  0.00  0.00    +0.307 C 
ATOM     30  O   LIG A   1      -9.001   4.658 128.862  0.00  0.00    -0.251 OA
BRANCH  29  31
ATOM     31  O   LIG A   1      -7.720   6.202 129.952  0.00  0.00    -0.468 OA
ATOM     32  C   LIG A   1      -7.855   6.343 131.370  0.00  0.00    +0.280 C 
ENDBRANCH  29  31
ENDBRANCH  28  29
ENDBRANCH   3  28
BRANCH  22  33
ATOM     33  O   LIG A   1      -6.708   3.562 125.827  0.00  0.00    -0.457 OA
BRANCH  33  34
ATOM     34  C   LIG A   1      -7.779   3.876 125.075  0.00  0.00    +0.335 C 
ATOM     35  O   LIG A   1      -8.809   4.410 125.481  0.00  0.00    -0.245 OA
BRANCH  34  36
ATOM     36  C   LIG A   1      -7.512   3.461 123.657  0.00  0.00    +0.029 C 
ATOM     37  C   LIG A   1      -6.309   3.765 123.116  0.00  0.00    -0.020 C 
ATOM     38  C   LIG A   1      -5.852   3.449 121.724  0.00  0.00    +0.035 C 
ATOM     39  C   LIG A   1      -8.586   2.733 122.902  0.00  0.00    +0.051 C 
ENDBRANCH  34  36
ENDBRANCH  33  34
ENDBRANCH  22  33
BRANCH  20  40
ATOM     40  O   LIG A   1      -5.721  -0.944 126.832  0.00  0.00    -0.461 OA
BRANCH  40  41
ATOM     41  C   LIG A   1      -6.198  -2.078 126.217  0.00  0.00    +0.304 C 
ATOM     42  O   LIG A   1      -5.661  -2.669 125.314  0.00  0.00    -0.251 OA
ATOM     43  C   LIG A   1      -7.449  -2.560 126.890  0.00  0.00    +0.136 C 
ENDBRANCH  40  41
ENDBRANCH  20  40
TORSDOF 9
ENDMDL
MODEL 4
REMARK VINA RESULT:      -7.7      2.110      4.153
REMARK  Name = NuBBE_1289
REMARK  17 active torsions:
REMARK  status: ('A' for Active; 'I' for Inactive)
REMARK    1  A    between atoms: C_1  and  C_2
REMARK    2  A    between atoms: C_3  and  C_5
REMARK    3  A    between atoms: C_5  and  C_6
REMARK    4  A    between atoms: C_6  and  O_8
REMARK    5  A    between atoms: O_8  and  C_9
REMARK    6  A    between atoms: C_10  and  C_11
REMARK    7  A    between atoms: C_22  and  C_23
REMARK    8  A    between atoms: C_24  and  C_27
REMARK    9  A    between atoms: C_34  and  C_35
REMARK   10  A    between atoms: C_36  and  O_48
REMARK   11  A    between atoms: C_39  and  O_41
REMARK   12  A    between atoms: O_41  and  C_42
REMARK   13  A    between atoms: C_42  and  C_44
REMARK   14  A    between atoms: C_44  and  C_47
REMARK   15  A    between atoms: C_45  and  C_46
REMARK   16  A    between atoms: O_48  and  C_49
REMARK   17  A    between atoms: C_49  and  C_51
REMARK                            x       y       z     vdW  Elec       q    Type
REMARK                         _______ _______ _______ _____ _____    ______ ____
ROOT
ATOM      1  C   LIG A   1      -8.194   0.748 129.120  0.00  0.00    +0.019 C 
ATOM      2  C   LIG A   1      -7.236   1.630 128.279  0.00  0.00    +0.024 C 
ATOM      3  C   LIG A   1      -7.594   3.182 128.249  0.00  0.00    +0.022 C 
ATOM      4  C   LIG A   1      -7.386   3.855 129.710  0.00  0.00    +0.015 C 
ATOM      5  C   LIG A   1      -8.358   3.163 130.729  0.00  0.00    +0.015 C 
ATOM      6  C   LIG A   1      -5.949   3.614 130.201  0.00  0.00    +0.042 C 
ATOM      7  C   LIG A   1      -5.148   2.407 129.717  0.00  0.00    +0.152 C 
ATOM      8  C   LIG A   1      -5.749   1.413 128.711  0.00  0.00    +0.158 C 
ATOM      9  O   LIG A   1      -5.016   1.167 127.473  0.00  0.00    -0.366 OA
ATOM     10  C   LIG A   1      -5.874   0.219 126.839  0.00  0.00    +0.146 C 
ATOM     11  C   LIG A   1      -7.201   0.874 126.984  0.00  0.00    -0.033 C 
ATOM     12  C   LIG A   1      -8.041   0.541 125.998  0.00  0.00    -0.063 C 
ATOM     13  C   LIG A   1      -9.467   0.939 125.852  0.00  0.00    +0.040 C 
ATOM     14  C   LIG A   1      -7.325  -0.378 125.011  0.00  0.00    +0.051 C 
ATOM     15  C   LIG A   1      -5.825  -0.112 125.360  0.00  0.00    +0.048 C 
ATOM     16  O   LIG A   1      -3.817   2.898 129.512  0.00  0.00    -0.373 OA
ATOM     17  C   LIG A   1      -3.675   3.980 130.475  0.00  0.00    +0.171 C 
ATOM     18  C   LIG A   1      -4.955   4.802 130.270  0.00  0.00    +0.034 C 
ATOM     19  C   LIG A   1      -4.655   5.711 129.051  0.00  0.00    +0.017 C 
ATOM     20  C   LIG A   1      -5.498   5.752 131.362  0.00  0.00    +0.188 C 
ATOM     21  C   LIG A   1      -7.028   6.057 131.104  0.00  0.00    +0.090 C 
ATOM     22  C   LIG A   1      -7.687   5.402 129.832  0.00  0.00    +0.187 C 
ENDROOT
BRANCH  14  23
ATOM     23  C   LIG A   1      -7.750  -1.823 125.179  0.00  0.00    -0.003 A 
ATOM     24  C   LIG A   1      -8.397  -2.441 126.295  0.00  0.00    +0.045 A 
ATOM     25  C   LIG A   1      -8.562  -3.770 125.986  0.00  0.00    +0.195 A 
ATOM     26  O   LIG A   1      -8.069  -4.027 124.752  0.00  0.00    -0.471 OA
ATOM     27  C   LIG A   1      -7.578  -2.856 124.272  0.00  0.00    +0.199 A 
ENDBRANCH  14  23
BRANCH   3  28
ATOM     28  C   LIG A   1      -6.773   3.969 127.192  0.00  0.00    +0.125 C 
BRANCH  28  29
ATOM     29  C   LIG A   1      -7.403   4.537 125.942  0.00  0.00    +0.307 C 
ATOM     30  O   LIG A   1      -8.606   4.712 125.798  0.00  0.00    -0.251 OA
BRANCH  29  31
ATOM     31  O   LIG A   1      -6.488   4.664 124.948  0.00  0.00    -0.468 OA
ATOM     32  C   LIG A   1      -5.523   3.607 124.918  0.00  0.00    +0.280 C 
ENDBRANCH  29  31
ENDBRANCH  28  29
ENDBRANCH   3  28
BRANCH  22  33
ATOM     33  O   LIG A   1      -9.131   5.554 129.895  0.00  0.00    -0.457 OA
BRANCH  33  34
ATOM     34  C   LIG A   1      -9.710   6.768 129.870  0.00  0.00    +0.335 C 
ATOM     35  O   LIG A   1      -9.400   7.697 129.127  0.00  0.00    -0.245 OA
BRANCH  34  36
ATOM     36  C   LIG A   1     -10.796   6.807 130.906  0.00  0.00    +0.029 C 
ATOM     37  C   LIG A   1     -11.957   7.431 130.595  0.00  0.00    -0.020 C 
ATOM     38  C   LIG A   1     -13.153   7.585 131.485  0.00  0.00    +0.035 C 
ATOM     39  C   LIG A   1     -10.550   6.157 132.238  0.00  0.00    +0.051 C 
ENDBRANCH  34  36
ENDBRANCH  33  34
ENDBRANCH  22  33
BRANCH  20  40
ATOM     40  O   LIG A   1      -5.360   5.261 132.720  0.00  0.00    -0.461 OA
BRANCH  40  41
ATOM     41  C   LIG A   1      -4.708   6.108 133.585  0.00  0.00    +0.304 C 
ATOM     42  O   LIG A   1      -4.861   6.150 134.781  0.00  0.00    -0.251 OA
ATOM     43  C   LIG A   1      -3.684   6.926 132.856  0.00  0.00    +0.136 C 
ENDBRANCH  40  41
ENDBRANCH  20  40
TORSDOF 9
ENDMDL
MODEL 5
REMARK VINA RESULT:      -7.5      2.587      6.914
REMARK  Name = NuBBE_1289
REMARK  17 active torsions:
REMARK  status: ('A' for Active; 'I' for Inactive)
REMARK    1  A    between atoms: C_1  and  C_2
REMARK    2  A    between atoms: C_3  and  C_5
REMARK    3  A    between atoms: C_5  and  C_6
REMARK    4  A    between atoms: C_6  and  O_8
REMARK    5  A    between atoms: O_8  and  C_9
REMARK    6  A    between atoms: C_10  and  C_11
REMARK    7  A    between atoms: C_22  and  C_23
REMARK    8  A    between atoms: C_24  and  C_27
REMARK    9  A    between atoms: C_34  and  C_35
REMARK   10  A    between atoms: C_36  and  O_48
REMARK   11  A    between atoms: C_39  and  O_41
REMARK   12  A    between atoms: O_41  and  C_42
REMARK   13  A    between atoms: C_42  and  C_44
REMARK   14  A    between atoms: C_44  and  C_47
REMARK   15  A    between atoms: C_45  and  C_46
REMARK   16  A    between atoms: O_48  and  C_49
REMARK   17  A    between atoms: C_49  and  C_51
REMARK                            x       y       z     vdW  Elec       q    Type
REMARK                         _______ _______ _______ _____ _____    ______ ____
ROOT
ATOM      1  C   LIG A   1      -4.880   0.413 129.134  0.00  0.00    +0.019 C 
ATOM      2  C   LIG A   1      -6.151   1.299 129.155  0.00  0.00    +0.024 C 
ATOM      3  C   LIG A   1      -5.898   2.856 128.931  0.00  0.00    +0.022 C 
ATOM      4  C   LIG A   1      -5.379   3.147 127.422  0.00  0.00    +0.015 C 
ATOM      5  C   LIG A   1      -4.012   2.408 127.205  0.00  0.00    +0.015 C 
ATOM      6  C   LIG A   1      -6.381   2.583 126.401  0.00  0.00    +0.042 C 
ATOM      7  C   LIG A   1      -7.282   1.403 126.759  0.00  0.00    +0.152 C 
ATOM      8  C   LIG A   1      -7.227   0.762 128.155  0.00  0.00    +0.158 C 
ATOM      9  O   LIG A   1      -8.467   0.685 128.920  0.00  0.00    -0.366 OA
ATOM     10  C   LIG A   1      -8.006   0.046 130.110  0.00  0.00    +0.146 C 
ATOM     11  C   LIG A   1      -6.799   0.852 130.433  0.00  0.00    -0.033 C 
ATOM     12  C   LIG A   1      -6.544   0.881 131.746  0.00  0.00    -0.063 C 
ATOM     13  C   LIG A   1      -5.387   1.518 132.429  0.00  0.00    +0.040 C 
ATOM     14  C   LIG A   1      -7.627   0.102 132.489  0.00  0.00    +0.051 C 
ATOM     15  C   LIG A   1      -8.767   0.047 131.422  0.00  0.00    +0.048 C 
ATOM     16  O   LIG A   1      -8.554   1.713 126.177  0.00  0.00    -0.373 OA
ATOM     17  C   LIG A   1      -8.235   2.519 125.009  0.00  0.00    +0.171 C 
ATOM     18  C   LIG A   1      -7.245   3.556 125.559  0.00  0.00    +0.034 C 
ATOM     19  C   LIG A   1      -8.132   4.653 126.199  0.00  0.00    +0.017 C 
ATOM     20  C   LIG A   1      -6.261   4.313 124.638  0.00  0.00    +0.188 C 
ATOM     21  C   LIG A   1      -5.066   4.903 125.488  0.00  0.00    +0.090 C 
ATOM     22  C   LIG A   1      -5.100   4.657 127.044  0.00  0.00    +0.187 C 
ENDROOT
BRANCH  14  23
ATOM     23  C   LIG A   1      -7.134  -1.259 132.935  0.00  0.00    -0.003 A 
ATOM     24  C   LIG A   1      -7.898  -2.405 133.323  0.00  0.00    +0.045 A 
ATOM     25  C   LIG A   1      -7.006  -3.395 133.659  0.00  0.00    +0.195 A 
ATOM     26  O   LIG A   1      -5.737  -2.953 133.503  0.00  0.00    -0.471 OA
ATOM     27  C   LIG A   1      -5.817  -1.668 133.073  0.00  0.00    +0.199 A 
ENDBRANCH  14  23
BRANCH   3  28
ATOM     28  C   LIG A   1      -7.155   3.719 129.224  0.00  0.00    +0.125 C 
BRANCH  28  29
ATOM     29  C   LIG A   1      -7.222   4.673 130.393  0.00  0.00    +0.307 C 
ATOM     30  O   LIG A   1      -7.727   4.400 131.475  0.00  0.00    -0.251 OA
BRANCH  29  31
ATOM     31  O   LIG A   1      -6.809   5.915 130.034  0.00  0.00    -0.468 OA
ATOM     32  C   LIG A   1      -6.517   6.767 131.147  0.00  0.00    +0.280 C 
ENDBRANCH  29  31
ENDBRANCH  28  29
ENDBRANCH   3  28
BRANCH  22  33
ATOM     33  O   LIG A   1      -3.817   5.015 127.625  0.00  0.00    -0.457 OA
BRANCH  33  34
ATOM     34  C   LIG A   1      -3.682   6.095 128.416  0.00  0.00    +0.335 C 
ATOM     35  O   LIG A   1      -4.083   7.228 128.159  0.00  0.00    -0.245 OA
BRANCH  34  36
ATOM     36  C   LIG A   1      -2.953   5.690 129.665  0.00  0.00    +0.029 C 
ATOM     37  C   LIG A   1      -3.459   4.672 130.400  0.00  0.00    -0.020 C 
ATOM     38  C   LIG A   1      -2.891   4.125 131.675  0.00  0.00    +0.035 C 
ATOM     39  C   LIG A   1      -1.704   6.430 130.046  0.00  0.00    +0.051 C 
ENDBRANCH  34  36
ENDBRANCH  33  34
ENDBRANCH  22  33
BRANCH  20  40
ATOM     40  O   LIG A   1      -5.699   3.519 123.562  0.00  0.00    -0.461 OA
BRANCH  40  41
ATOM     41  C   LIG A   1      -5.635   4.148 122.341  0.00  0.00    +0.304 C 
ATOM     42  O   LIG A   1      -4.856   5.017 122.034  0.00  0.00    -0.251 OA
ATOM     43  C   LIG A   1      -6.611   3.538 121.378  0.00  0.00    +0.136 C 
ENDBRANCH  40  41
ENDBRANCH  20  40
TORSDOF 9
ENDMDL
MODEL 6
REMARK VINA RESULT:      -7.3      4.147      6.663
REMARK  Name = NuBBE_1289
REMARK  17 active torsions:
REMARK  status: ('A' for Active; 'I' for Inactive)
REMARK    1  A    between atoms: C_1  and  C_2
REMARK    2  A    between atoms: C_3  and  C_5
REMARK    3  A    between atoms: C_5  and  C_6
REMARK    4  A    between atoms: C_6  and  O_8
REMARK    5  A    between atoms: O_8  and  C_9
REMARK    6  A    between atoms: C_10  and  C_11
REMARK    7  A    between atoms: C_22  and  C_23
REMARK    8  A    between atoms: C_24  and  C_27
REMARK    9  A    between atoms: C_34  and  C_35
REMARK   10  A    between atoms: C_36  and  O_48
REMARK   11  A    between atoms: C_39  and  O_41
REMARK   12  A    between atoms: O_41  and  C_42
REMARK   13  A    between atoms: C_42  and  C_44
REMARK   14  A    between atoms: C_44  and  C_47
REMARK   15  A    between atoms: C_45  and  C_46
REMARK   16  A    between atoms: O_48  and  C_49
REMARK   17  A    between atoms: C_49  and  C_51
REMARK                            x       y       z     vdW  Elec       q    Type
REMARK                         _______ _______ _______ _____ _____    ______ ____
ROOT
ATOM      1  C   LIG A   1      -8.343  -2.294 129.357  0.00  0.00    +0.019 C 
ATOM      2  C   LIG A   1      -6.897  -1.743 129.278  0.00  0.00    +0.024 C 
ATOM      3  C   LIG A   1      -6.535  -0.627 130.356  0.00  0.00    +0.022 C 
ATOM      4  C   LIG A   1      -6.516  -1.251 131.853  0.00  0.00    +0.015 C 
ATOM      5  C   LIG A   1      -7.947  -1.794 132.194  0.00  0.00    +0.015 C 
ATOM      6  C   LIG A   1      -5.540  -2.437 131.917  0.00  0.00    +0.042 C 
ATOM      7  C   LIG A   1      -5.221  -3.257 130.668  0.00  0.00    +0.152 C 
ATOM      8  C   LIG A   1      -5.850  -2.905 129.311  0.00  0.00    +0.158 C 
ATOM      9  O   LIG A   1      -4.953  -2.653 128.187  0.00  0.00    -0.366 OA
ATOM     10  C   LIG A   1      -5.894  -2.374 127.152  0.00  0.00    +0.146 C 
ATOM     11  C   LIG A   1      -6.794  -1.397 127.822  0.00  0.00    -0.033 C 
ATOM     12  C   LIG A   1      -7.353  -0.545 126.955  0.00  0.00    -0.063 C 
ATOM     13  C   LIG A   1      -8.357   0.513 127.246  0.00  0.00    +0.040 C 
ATOM     14  C   LIG A   1      -6.831  -0.837 125.550  0.00  0.00    +0.051 C 
ATOM     15  C   LIG A   1      -5.545  -1.670 125.855  0.00  0.00    +0.048 C 
ATOM     16  O   LIG A   1      -3.815  -3.524 130.744  0.00  0.00    -0.373 OA
ATOM     17  C   LIG A   1      -3.527  -3.562 132.170  0.00  0.00    +0.171 C 
ATOM     18  C   LIG A   1      -4.209  -2.292 132.699  0.00  0.00    +0.034 C 
ATOM     19  C   LIG A   1      -3.198  -1.152 132.422  0.00  0.00    +0.017 C 
ATOM     20  C   LIG A   1      -4.602  -2.137 134.186  0.00  0.00    +0.188 C 
ATOM     21  C   LIG A   1      -5.700  -1.010 134.342  0.00  0.00    +0.090 C 
ATOM     22  C   LIG A   1      -6.154  -0.262 133.032  0.00  0.00    +0.187 C 
ENDROOT
BRANCH  14  23
ATOM     23  C   LIG A   1      -7.857  -1.574 124.712  0.00  0.00    -0.003 A 
ATOM     24  C   LIG A   1      -8.045  -2.984 124.563  0.00  0.00    +0.045 A 
ATOM     25  C   LIG A   1      -9.089  -3.166 123.688  0.00  0.00    +0.195 A 
ATOM     26  O   LIG A   1      -9.573  -1.969 123.282  0.00  0.00    -0.471 OA
ATOM     27  C   LIG A   1      -8.828  -1.015 123.896  0.00  0.00    +0.199 A 
ENDBRANCH  14  23
BRANCH   3  28
ATOM     28  C   LIG A   1      -5.180   0.074 130.067  0.00  0.00    +0.125 C 
BRANCH  28  29
ATOM     29  C   LIG A   1      -5.060   1.574 129.944  0.00  0.00    +0.307 C 
ATOM     30  O   LIG A   1      -4.657   2.307 130.839  0.00  0.00    -0.251 OA
BRANCH  29  31
ATOM     31  O   LIG A   1      -5.613   2.016 128.786  0.00  0.00    -0.468 OA
ATOM     32  C   LIG A   1      -4.725   1.951 127.665  0.00  0.00    +0.280 C 
ENDBRANCH  29  31
ENDBRANCH  28  29
ENDBRANCH   3  28
BRANCH  22  33
ATOM     33  O   LIG A   1      -7.341   0.530 133.307  0.00  0.00    -0.457 OA
BRANCH  33  34
ATOM     34  C   LIG A   1      -7.390   1.844 133.021  0.00  0.00    +0.335 C 
ATOM     35  O   LIG A   1      -6.700   2.718 133.542  0.00  0.00    -0.245 OA
BRANCH  34  36
ATOM     36  C   LIG A   1      -8.432   2.070 131.964  0.00  0.00    +0.029 C 
ATOM     37  C   LIG A   1      -8.167   2.968 130.986  0.00  0.00    -0.020 C 
ATOM     38  C   LIG A   1      -9.072   3.341 129.850  0.00  0.00    +0.035 C 
ATOM     39  C   LIG A   1      -9.717   1.297 132.037  0.00  0.00    +0.051 C 
ENDBRANCH  34  36
ENDBRANCH  33  34
ENDBRANCH  22  33
BRANCH  20  40
ATOM     40  O   LIG A   1      -5.104  -3.345 134.813  0.00  0.00    -0.461 OA
BRANCH  40  41
ATOM     41  C   LIG A   1      -4.333  -3.834 135.842  0.00  0.00    +0.304 C 
ATOM     42  O   LIG A   1      -3.134  -3.963 135.825  0.00  0.00    -0.251 OA
ATOM     43  C   LIG A   1      -5.175  -4.101 137.055  0.00  0.00    +0.136 C 
ENDBRANCH  40  41
ENDBRANCH  20  40
TORSDOF 9
ENDMDL
MODEL 7
REMARK VINA RESULT:      -7.3      3.008      7.039
REMARK  Name = NuBBE_1289
REMARK  17 active torsions:
REMARK  status: ('A' for Active; 'I' for Inactive)
REMARK    1  A    between atoms: C_1  and  C_2
REMARK    2  A    between atoms: C_3  and  C_5
REMARK    3  A    between atoms: C_5  and  C_6
REMARK    4  A    between atoms: C_6  and  O_8
REMARK    5  A    between atoms: O_8  and  C_9
REMARK    6  A    between atoms: C_10  and  C_11
REMARK    7  A    between atoms: C_22  and  C_23
REMARK    8  A    between atoms: C_24  and  C_27
REMARK    9  A    between atoms: C_34  and  C_35
REMARK   10  A    between atoms: C_36  and  O_48
REMARK   11  A    between atoms: C_39  and  O_41
REMARK   12  A    between atoms: O_41  and  C_42
REMARK   13  A    between atoms: C_42  and  C_44
REMARK   14  A    between atoms: C_44  and  C_47
REMARK   15  A    between atoms: C_45  and  C_46
REMARK   16  A    between atoms: O_48  and  C_49
REMARK   17  A    between atoms: C_49  and  C_51
REMARK                            x       y       z     vdW  Elec       q    Type
REMARK                         _______ _______ _______ _____ _____    ______ ____
ROOT
ATOM      1  C   LIG A   1      -9.004   3.054 132.573  0.00  0.00    +0.019 C 
ATOM      2  C   LIG A   1      -8.182   3.171 131.264  0.00  0.00    +0.024 C 
ATOM      3  C   LIG A   1      -6.608   2.992 131.433  0.00  0.00    +0.022 C 
ATOM      4  C   LIG A   1      -6.239   1.472 131.861  0.00  0.00    +0.015 C 
ATOM      5  C   LIG A   1      -6.903   1.161 133.248  0.00  0.00    +0.015 C 
ATOM      6  C   LIG A   1      -6.815   0.481 130.836  0.00  0.00    +0.042 C 
ATOM      7  C   LIG A   1      -8.049   0.839 130.010  0.00  0.00    +0.152 C 
ATOM      8  C   LIG A   1      -8.735   2.205 130.165  0.00  0.00    +0.158 C 
ATOM      9  O   LIG A   1      -8.898   3.027 128.970  0.00  0.00    -0.366 OA
ATOM     10  C   LIG A   1      -9.555   4.168 129.520  0.00  0.00    +0.146 C 
ATOM     11  C   LIG A   1      -8.704   4.461 130.704  0.00  0.00    -0.033 C 
ATOM     12  C   LIG A   1      -8.709   5.760 131.023  0.00  0.00    -0.063 C 
ATOM     13  C   LIG A   1      -8.041   6.409 132.182  0.00  0.00    +0.040 C 
ATOM     14  C   LIG A   1      -9.564   6.526 130.016  0.00  0.00    +0.051 C 
ATOM     15  C   LIG A   1      -9.637   5.514 128.827  0.00  0.00    +0.048 C 
ATOM     16  O   LIG A   1      -7.780   0.331 128.697  0.00  0.00    -0.373 OA
ATOM     17  C   LIG A   1      -6.919  -0.820 128.919  0.00  0.00    +0.171 C 
ATOM     18  C   LIG A   1      -5.855  -0.281 129.887  0.00  0.00    +0.034 C 
ATOM     19  C   LIG A   1      -4.826   0.443 128.983  0.00  0.00    +0.017 C 
ATOM     20  C   LIG A   1      -5.020  -1.220 130.786  0.00  0.00    +0.188 C 
ATOM     21  C   LIG A   1      -4.403  -0.408 131.994  0.00  0.00    +0.090 C 
ATOM     22  C   LIG A   1      -4.705   1.137 132.050  0.00  0.00    +0.187 C 
ENDROOT
BRANCH  14  23
ATOM     23  C   LIG A   1     -10.915   6.896 130.593  0.00  0.00    -0.003 A 
ATOM     24  C   LIG A   1     -11.873   7.836 130.099  0.00  0.00    +0.045 A 
ATOM     25  C   LIG A   1     -12.934   7.836 130.972  0.00  0.00    +0.195 A 
ATOM     26  O   LIG A   1     -12.711   6.956 131.976  0.00  0.00    -0.471 OA
ATOM     27  C   LIG A   1     -11.496   6.397 131.749  0.00  0.00    +0.199 A 
ENDBRANCH  14  23
BRANCH   3  28
ATOM     28  C   LIG A   1      -5.817   3.379 130.154  0.00  0.00    +0.125 C 
BRANCH  28  29
ATOM     29  C   LIG A   1      -5.039   4.669 130.047  0.00  0.00    +0.307 C 
ATOM     30  O   LIG A   1      -5.536   5.749 129.754  0.00  0.00    -0.251 OA
BRANCH  29  31
ATOM     31  O   LIG A   1      -3.704   4.444 130.148  0.00  0.00    -0.468 OA
ATOM     32  C   LIG A   1      -3.074   4.159 128.895  0.00  0.00    +0.280 C 
ENDBRANCH  29  31
ENDBRANCH  28  29
ENDBRANCH   3  28
BRANCH  22  33
ATOM     33  O   LIG A   1      -4.306   1.668 133.343  0.00  0.00    -0.457 OA
BRANCH  33  34
ATOM     34  C   LIG A   1      -3.536   2.767 133.443  0.00  0.00    +0.335 C 
ATOM     35  O   LIG A   1      -2.365   2.858 133.079  0.00  0.00    -0.245 OA
BRANCH  34  36
ATOM     36  C   LIG A   1      -4.339   3.864 134.079  0.00  0.00    +0.029 C 
ATOM     37  C   LIG A   1      -5.160   3.543 135.107  0.00  0.00    -0.020 C 
ATOM     38  C   LIG A   1      -6.046   4.483 135.867  0.00  0.00    +0.035 C 
ATOM     39  C   LIG A   1      -4.202   5.262 133.550  0.00  0.00    +0.051 C 
ENDBRANCH  34  36
ENDBRANCH  33  34
ENDBRANCH  22  33
BRANCH  20  40
ATOM     40  O   LIG A   1      -5.748  -2.351 131.329  0.00  0.00    -0.461 OA
BRANCH  40  41
ATOM     41  C   LIG A   1      -5.249  -3.587 130.990  0.00  0.00    +0.304 C 
ATOM     42  O   LIG A   1      -5.594  -4.642 131.462  0.00  0.00    -0.251 OA
ATOM     43  C   LIG A   1      -4.269  -3.471 129.860  0.00  0.00    +0.136 C 
ENDBRANCH  40  41
ENDBRANCH  20  40
TORSDOF 9
ENDMDL
MODEL 8
REMARK VINA RESULT:      -7.2      2.929      8.405
REMARK  Name = NuBBE_1289
REMARK  17 active torsions:
REMARK  status: ('A' for Active; 'I' for Inactive)
REMARK    1  A    between atoms: C_1  and  C_2
REMARK    2  A    between atoms: C_3  and  C_5
REMARK    3  A    between atoms: C_5  and  C_6
REMARK    4  A    between atoms: C_6  and  O_8
REMARK    5  A    between atoms: O_8  and  C_9
REMARK    6  A    between atoms: C_10  and  C_11
REMARK    7  A    between atoms: C_22  and  C_23
REMARK    8  A    between atoms: C_24  and  C_27
REMARK    9  A    between atoms: C_34  and  C_35
REMARK   10  A    between atoms: C_36  and  O_48
REMARK   11  A    between atoms: C_39  and  O_41
REMARK   12  A    between atoms: O_41  and  C_42
REMARK   13  A    between atoms: C_42  and  C_44
REMARK   14  A    between atoms: C_44  and  C_47
REMARK   15  A    between atoms: C_45  and  C_46
REMARK   16  A    between atoms: O_48  and  C_49
REMARK   17  A    between atoms: C_49  and  C_51
REMARK                            x       y       z     vdW  Elec       q    Type
REMARK                         _______ _______ _______ _____ _____    ______ ____
ROOT
ATOM      1  C   LIG A   1      -8.511   3.093 133.067  0.00  0.00    +0.019 C 
ATOM      2  C   LIG A   1      -7.241   3.386 132.229  0.00  0.00    +0.024 C 
ATOM      3  C   LIG A   1      -6.556   2.110 131.566  0.00  0.00    +0.022 C 
ATOM      4  C   LIG A   1      -7.508   1.471 130.418  0.00  0.00    +0.015 C 
ATOM      5  C   LIG A   1      -8.850   1.000 131.078  0.00  0.00    +0.015 C 
ATOM      6  C   LIG A   1      -7.855   2.539 129.367  0.00  0.00    +0.042 C 
ATOM      7  C   LIG A   1      -7.870   4.022 129.734  0.00  0.00    +0.152 C 
ATOM      8  C   LIG A   1      -7.519   4.488 131.154  0.00  0.00    +0.158 C 
ATOM      9  O   LIG A   1      -6.442   5.461 131.307  0.00  0.00    -0.366 OA
ATOM     10  C   LIG A   1      -6.432   5.627 132.724  0.00  0.00    +0.146 C 
ATOM     11  C   LIG A   1      -6.441   4.215 133.190  0.00  0.00    -0.033 C 
ATOM     12  C   LIG A   1      -5.837   4.068 134.375  0.00  0.00    -0.063 C 
ATOM     13  C   LIG A   1      -5.720   2.824 135.182  0.00  0.00    +0.040 C 
ATOM     14  C   LIG A   1      -5.291   5.417 134.836  0.00  0.00    +0.051 C 
ATOM     15  C   LIG A   1      -5.274   6.226 133.499  0.00  0.00    +0.048 C 
ATOM     16  O   LIG A   1      -7.287   4.692 128.608  0.00  0.00    -0.373 OA
ATOM     17  C   LIG A   1      -7.623   3.851 127.469  0.00  0.00    +0.171 C 
ATOM     18  C   LIG A   1      -7.240   2.443 127.947  0.00  0.00    +0.034 C 
ATOM     19  C   LIG A   1      -5.714   2.340 127.703  0.00  0.00    +0.017 C 
ATOM     20  C   LIG A   1      -7.843   1.172 127.305  0.00  0.00    +0.188 C 
ATOM     21  C   LIG A   1      -7.683  -0.059 128.285  0.00  0.00    +0.090 C 
ATOM     22  C   LIG A   1      -6.951   0.203 129.655  0.00  0.00    +0.187 C 
ENDROOT
BRANCH  14  23
ATOM     23  C   LIG A   1      -6.154   6.033 135.919  0.00  0.00    -0.003 A 
ATOM     24  C   LIG A   1      -7.555   5.863 136.151  0.00  0.00    +0.045 A 
ATOM     25  C   LIG A   1      -7.885   6.635 137.238  0.00  0.00    +0.195 A 
ATOM     26  O   LIG A   1      -6.788   7.274 137.708  0.00  0.00    -0.471 OA
ATOM     27  C   LIG A   1      -5.751   6.914 136.910  0.00  0.00    +0.199 A 
ENDBRANCH  14  23
BRANCH   3  28
ATOM     28  C   LIG A   1      -5.157   2.420 130.968  0.00  0.00    +0.125 C 
BRANCH  28  29
ATOM     29  C   LIG A   1      -3.895   2.355 131.796  0.00  0.00    +0.307 C 
ATOM     30  O   LIG A   1      -3.563   1.386 132.467  0.00  0.00    -0.251 OA
BRANCH  29  31
ATOM     31  O   LIG A   1      -3.273   3.560 131.835  0.00  0.00    -0.468 OA
ATOM     32  C   LIG A   1      -2.378   3.710 132.941  0.00  0.00    +0.280 C 
ENDBRANCH  29  31
ENDBRANCH  28  29
ENDBRANCH   3  28
BRANCH  22  33
ATOM     33  O   LIG A   1      -7.132  -0.940 130.534  0.00  0.00    -0.457 OA
BRANCH  33  34
ATOM     34  C   LIG A   1      -6.088  -1.523 131.150  0.00  0.00    +0.335 C 
ATOM     35  O   LIG A   1      -5.626  -1.200 132.243  0.00  0.00    -0.245 OA
BRANCH  34  36
ATOM     36  C   LIG A   1      -5.572  -2.633 130.279  0.00  0.00    +0.029 C 
ATOM     37  C   LIG A   1      -4.252  -2.651 129.981  0.00  0.00    -0.020 C 
ATOM     38  C   LIG A   1      -3.545  -3.661 129.128  0.00  0.00    +0.035 C 
ATOM     39  C   LIG A   1      -6.538  -3.667 129.776  0.00  0.00    +0.051 C 
ENDBRANCH  34  36
ENDBRANCH  33  34
ENDBRANCH  22  33
BRANCH  20  40
ATOM     40  O   LIG A   1      -9.243   1.279 126.941  0.00  0.00    -0.461 OA
BRANCH  40  41
ATOM     41  C   LIG A   1      -9.564   0.781 125.700  0.00  0.00    +0.304 C 
ATOM     42  O   LIG A   1     -10.032  -0.308 125.475  0.00  0.00    -0.251 OA
ATOM     43  C   LIG A   1      -9.351   1.821 124.639  0.00  0.00    +0.136 C 
ENDBRANCH  40  41
ENDBRANCH  20  40
TORSDOF 9
ENDMDL
MODEL 9
REMARK VINA RESULT:      -7.2      2.272      7.799
REMARK  Name = NuBBE_1289
REMARK  17 active torsions:
REMARK  status: ('A' for Active; 'I' for Inactive)
REMARK    1  A    between atoms: C_1  and  C_2
REMARK    2  A    between atoms: C_3  and  C_5
REMARK    3  A    between atoms: C_5  and  C_6
REMARK    4  A    between atoms: C_6  and  O_8
REMARK    5  A    between atoms: O_8  and  C_9
REMARK    6  A    between atoms: C_10  and  C_11
REMARK    7  A    between atoms: C_22  and  C_23
REMARK    8  A    between atoms: C_24  and  C_27
REMARK    9  A    between atoms: C_34  and  C_35
REMARK   10  A    between atoms: C_36  and  O_48
REMARK   11  A    between atoms: C_39  and  O_41
REMARK   12  A    between atoms: O_41  and  C_42
REMARK   13  A    between atoms: C_42  and  C_44
REMARK   14  A    between atoms: C_44  and  C_47
REMARK   15  A    between atoms: C_45  and  C_46
REMARK   16  A    between atoms: O_48  and  C_49
REMARK   17  A    between atoms: C_49  and  C_51
REMARK                            x       y       z     vdW  Elec       q    Type
REMARK                         _______ _______ _______ _____ _____    ______ ____
ROOT
ATOM      1  C   LIG A   1      -6.016   5.509 131.034  0.00  0.00    +0.019 C 
ATOM      2  C   LIG A   1      -4.962   4.509 130.496  0.00  0.00    +0.024 C 
ATOM      3  C   LIG A   1      -5.526   3.069 130.113  0.00  0.00    +0.022 C 
ATOM      4  C   LIG A   1      -6.512   3.155 128.828  0.00  0.00    +0.015 C 
ATOM      5  C   LIG A   1      -7.738   4.064 129.190  0.00  0.00    +0.015 C 
ATOM      6  C   LIG A   1      -5.779   3.811 127.645  0.00  0.00    +0.042 C 
ATOM      7  C   LIG A   1      -4.630   4.788 127.881  0.00  0.00    +0.152 C 
ATOM      8  C   LIG A   1      -4.159   5.125 129.304  0.00  0.00    +0.158 C 
ATOM      9  O   LIG A   1      -2.753   4.909 129.628  0.00  0.00    -0.366 OA
ATOM     10  C   LIG A   1      -2.725   5.331 130.991  0.00  0.00    +0.146 C 
ATOM     11  C   LIG A   1      -3.899   4.608 131.550  0.00  0.00    -0.033 C 
ATOM     12  C   LIG A   1      -3.752   4.333 132.851  0.00  0.00    -0.063 C 
ATOM     13  C   LIG A   1      -4.742   3.694 133.757  0.00  0.00    +0.040 C 
ATOM     14  C   LIG A   1      -2.383   4.820 133.320  0.00  0.00    +0.051 C 
ATOM     15  C   LIG A   1      -1.620   4.975 131.966  0.00  0.00    +0.048 C 
ATOM     16  O   LIG A   1      -3.658   4.473 126.874  0.00  0.00    -0.373 OA
ATOM     17  C   LIG A   1      -4.441   3.967 125.757  0.00  0.00    +0.171 C 
ATOM     18  C   LIG A   1      -5.380   2.949 126.420  0.00  0.00    +0.034 C 
ATOM     19  C   LIG A   1      -4.538   1.655 126.549  0.00  0.00    +0.017 C 
ATOM     20  C   LIG A   1      -6.705   2.509 125.756  0.00  0.00    +0.188 C 
ATOM     21  C   LIG A   1      -7.674   1.885 126.839  0.00  0.00    +0.090 C 
ATOM     22  C   LIG A   1      -7.137   1.796 128.317  0.00  0.00    +0.187 C 
ENDROOT
BRANCH  14  23
ATOM     23  C   LIG A   1      -2.487   6.103 134.120  0.00  0.00    -0.003 A 
ATOM     24  C   LIG A   1      -3.661   6.807 134.535  0.00  0.00    +0.045 A 
ATOM     25  C   LIG A   1      -3.247   7.923 135.221  0.00  0.00    +0.195 A 
ATOM     26  O   LIG A   1      -1.895   7.965 135.271  0.00  0.00    -0.471 OA
ATOM     27  C   LIG A   1      -1.441   6.874 134.604  0.00  0.00    +0.199 A 
ENDBRANCH  14  23
BRANCH   3  28
ATOM     28  C   LIG A   1      -4.401   2.035 129.837  0.00  0.00    +0.125 C 
BRANCH  28  29
ATOM     29  C   LIG A   1      -4.267   0.758 130.632  0.00  0.00    +0.307 C 
ATOM     30  O   LIG A   1      -3.869   0.709 131.790  0.00  0.00    -0.251 OA
BRANCH  29  31
ATOM     31  O   LIG A   1      -4.478  -0.330 129.849  0.00  0.00    -0.468 OA
ATOM     32  C   LIG A   1      -4.602  -1.551 130.584  0.00  0.00    +0.280 C 
ENDBRANCH  29  31
ENDBRANCH  28  29
ENDBRANCH   3  28
BRANCH  22  33
ATOM     33  O   LIG A   1      -8.230   1.463 129.216  0.00  0.00    -0.457 OA
BRANCH  33  34
ATOM     34  C   LIG A   1      -8.129   0.452 130.098  0.00  0.00    +0.335 C 
ATOM     35  O   LIG A   1      -7.984  -0.736 129.816  0.00  0.00    -0.245 OA
BRANCH  34  36
ATOM     36  C   LIG A   1      -8.231   1.012 131.488  0.00  0.00    +0.029 C 
ATOM     37  C   LIG A   1      -9.132   1.997 131.717  0.00  0.00    -0.020 C 
ATOM     38  C   LIG A   1      -9.382   2.690 133.022  0.00  0.00    +0.035 C 
ATOM     39  C   LIG A   1      -7.332   0.463 132.557  0.00  0.00    +0.051 C 
ENDBRANCH  34  36
ENDBRANCH  33  34
ENDBRANCH  22  33
BRANCH  20  40
ATOM     40  O   LIG A   1      -7.422   3.566 125.067  0.00  0.00    -0.461 OA
BRANCH  40  41
ATOM     41  C   LIG A   1      -7.802   3.271 123.779  0.00  0.00    +0.304 C 
ATOM     42  O   LIG A   1      -8.935   3.103 123.398  0.00  0.00    -0.251 OA
ATOM     43  C   LIG A   1      -6.617   3.284 122.859  0.00  0.00    +0.136 C 
ENDBRANCH  40  41
ENDBRANCH  20  40
TORSDOF 9
ENDMDL
