MODEL 1
REMARK VINA RESULT:      -9.7      0.000      0.000
REMARK  Name = NuBBE_381
REMARK  8 active torsions:
REMARK  status: ('A' for Active; 'I' for Inactive)
REMARK    1  A    between atoms: C_3  and  O_4
REMARK    2  A    between atoms: C_5  and  C_6
REMARK    3  A    between atoms: C_11  and  C_35
REMARK    4  A    between atoms: C_12  and  C_13
REMARK    5  A    between atoms: C_16  and  C_17
REMARK    6  A    between atoms: C_22  and  C_34
REMARK    7  A    between atoms: C_26  and  C_28
REMARK    8  A    between atoms: C_31  and  O_33
REMARK                            x       y       z     vdW  Elec       q    Type
REMARK                         _______ _______ _______ _____ _____    ______ ____
ROOT
ATOM      1  O   LIG A   1      -3.821  -0.971 132.356  0.00  0.00    -0.284 OA
ATOM      2  C   LIG A   1      -4.434  -1.614 131.541  0.00  0.00    +0.221 C 
ATOM      3  C   LIG A   1      -4.709  -3.066 131.789  0.00  0.00    +0.167 C 
ATOM      4  C   LIG A   1      -5.459  -3.780 130.938  0.00  0.00    +0.002 C 
ATOM      5  C   LIG A   1      -5.684  -5.264 131.142  0.00  0.00    +0.048 C 
ATOM      6  C   LIG A   1      -6.103  -3.066 129.816  0.00  0.00    -0.014 C 
ATOM      7  C   LIG A   1      -7.124  -3.643 129.172  0.00  0.00    +0.008 C 
ATOM      8  C   LIG A   1      -7.762  -3.048 128.044  0.00  0.00    +0.001 C 
ATOM      9  C   LIG A   1      -7.230  -1.981 127.394  0.00  0.00    -0.053 C 
ATOM     10  C   LIG A   1      -7.446  -1.929 125.876  0.00  0.00    -0.004 C 
ATOM     11  C   LIG A   1      -6.660  -0.930 124.882  0.00  0.00    -0.019 C 
ATOM     12  C   LIG A   1      -6.494  -1.719 123.522  0.00  0.00    +0.012 C 
ATOM     13  C   LIG A   1      -5.291  -0.636 125.575  0.00  0.00    +0.009 C 
ATOM     14  C   LIG A   1      -5.255  -0.403 127.129  0.00  0.00    +0.016 C 
ATOM     15  C   LIG A   1      -6.312  -1.033 128.107  0.00  0.00    +0.015 C 
ATOM     16  C   LIG A   1      -7.259   0.085 128.639  0.00  0.00    +0.021 C 
ATOM     17  C   LIG A   1      -5.690  -1.698 129.403  0.00  0.00    -0.026 C 
ATOM     18  C   LIG A   1      -4.910  -1.018 130.260  0.00  0.00    +0.059 C 
ATOM     19  C   LIG A   1      -8.989  -1.710 125.735  0.00  0.00    +0.012 C 
ATOM     20  C   LIG A   1      -9.447  -0.237 125.503  0.00  0.00    +0.011 C 
ATOM     21  C   LIG A   1      -8.874   0.405 124.227  0.00  0.00    +0.004 C 
ATOM     22  C   LIG A   1      -7.326   0.457 124.445  0.00  0.00    +0.005 C 
ATOM     23  C   LIG A   1      -6.637   1.171 123.204  0.00  0.00    +0.015 C 
ATOM     24  C   LIG A   1      -7.143   2.596 122.948  0.00  0.00    +0.055 C 
ATOM     25  C   LIG A   1      -6.518   3.216 121.692  0.00  0.00    +0.015 C 
ATOM     26  C   LIG A   1      -8.654   2.512 122.834  0.00  0.00    +0.165 C 
ATOM     27  O   LIG A   1      -9.290   2.900 121.854  0.00  0.00    -0.294 OA
ATOM     28  C   LIG A   1      -9.363   1.882 124.041  0.00  0.00    +0.187 C 
ATOM     29  C   LIG A   1      -9.377  -0.415 123.006  0.00  0.00    +0.014 C 
ATOM     30  C   LIG A   1      -6.766  -3.370 125.574  0.00  0.00    +0.016 C 
ENDROOT
BRANCH   3  31
ATOM     31  O   LIG A   1      -4.171  -3.613 132.942  0.00  0.00    -0.503 OA
ATOM     32  H   LIG A   1      -4.609  -3.133 133.675  0.00  0.00    +0.292 HD
ENDBRANCH   3  31
BRANCH  28  33
ATOM     33  O   LIG A   1     -10.776   1.957 123.867  0.00  0.00    -0.384 OA
ATOM     34  H   LIG A   1     -11.116   2.481 124.624  0.00  0.00    +0.210 HD
ENDBRANCH  28  33
TORSDOF 2
ENDMDL
MODEL 2
REMARK VINA RESULT:      -9.2      2.143      8.369
REMARK  Name = NuBBE_381
REMARK  8 active torsions:
REMARK  status: ('A' for Active; 'I' for Inactive)
REMARK    1  A    between atoms: C_3  and  O_4
REMARK    2  A    between atoms: C_5  and  C_6
REMARK    3  A    between atoms: C_11  and  C_35
REMARK    4  A    between atoms: C_12  and  C_13
REMARK    5  A    between atoms: C_16  and  C_17
REMARK    6  A    between atoms: C_22  and  C_34
REMARK    7  A    between atoms: C_26  and  C_28
REMARK    8  A    between atoms: C_31  and  O_33
REMARK                            x       y       z     vdW  Elec       q    Type
REMARK                         _______ _______ _______ _____ _____    ______ ____
ROOT
ATOM      1  O   LIG A   1      -6.504   5.212 126.388  0.00  0.00    -0.284 OA
ATOM      2  C   LIG A   1      -6.525   4.034 126.137  0.00  0.00    +0.221 C 
ATOM      3  C   LIG A   1      -6.643   3.576 124.714  0.00  0.00    +0.167 C 
ATOM      4  C   LIG A   1      -6.584   2.274 124.403  0.00  0.00    +0.002 C 
ATOM      5  C   LIG A   1      -6.773   1.796 122.977  0.00  0.00    +0.048 C 
ATOM      6  C   LIG A   1      -6.281   1.315 125.486  0.00  0.00    -0.014 C 
ATOM      7  C   LIG A   1      -5.861   0.084 125.173  0.00  0.00    +0.008 C 
ATOM      8  C   LIG A   1      -5.603  -0.918 126.155  0.00  0.00    +0.001 C 
ATOM      9  C   LIG A   1      -5.993  -0.778 127.448  0.00  0.00    -0.053 C 
ATOM     10  C   LIG A   1      -6.429  -2.059 128.171  0.00  0.00    -0.004 C 
ATOM     11  C   LIG A   1      -7.200  -2.082 129.588  0.00  0.00    -0.019 C 
ATOM     12  C   LIG A   1      -8.159  -3.338 129.535  0.00  0.00    +0.012 C 
ATOM     13  C   LIG A   1      -7.985  -0.732 129.664  0.00  0.00    +0.009 C 
ATOM     14  C   LIG A   1      -7.292   0.584 129.157  0.00  0.00    +0.016 C 
ATOM     15  C   LIG A   1      -6.179   0.585 128.046  0.00  0.00    +0.015 C 
ATOM     16  C   LIG A   1      -4.798   0.907 128.693  0.00  0.00    +0.021 C 
ATOM     17  C   LIG A   1      -6.376   1.685 126.924  0.00  0.00    -0.026 C 
ATOM     18  C   LIG A   1      -6.468   2.996 127.206  0.00  0.00    +0.059 C 
ATOM     19  C   LIG A   1      -5.103  -2.885 128.277  0.00  0.00    +0.012 C 
ATOM     20  C   LIG A   1      -4.348  -2.784 129.638  0.00  0.00    +0.011 C 
ATOM     21  C   LIG A   1      -5.169  -3.264 130.849  0.00  0.00    +0.004 C 
ATOM     22  C   LIG A   1      -6.380  -2.278 130.947  0.00  0.00    +0.005 C 
ATOM     23  C   LIG A   1      -7.262  -2.645 132.217  0.00  0.00    +0.015 C 
ATOM     24  C   LIG A   1      -6.491  -2.605 133.542  0.00  0.00    +0.055 C 
ATOM     25  C   LIG A   1      -7.354  -3.049 134.730  0.00  0.00    +0.015 C 
ATOM     26  C   LIG A   1      -5.277  -3.500 133.371  0.00  0.00    +0.165 C 
ATOM     27  O   LIG A   1      -5.024  -4.457 134.102  0.00  0.00    -0.294 OA
ATOM     28  C   LIG A   1      -4.365  -3.141 132.189  0.00  0.00    +0.187 C 
ATOM     29  C   LIG A   1      -5.509  -4.765 130.638  0.00  0.00    +0.014 C 
ATOM     30  C   LIG A   1      -7.587  -2.452 127.107  0.00  0.00    +0.016 C 
ENDROOT
BRANCH   3  31
ATOM     31  O   LIG A   1      -6.790   4.563 123.754  0.00  0.00    -0.503 OA
ATOM     32  H   LIG A   1      -5.907   4.979 123.685  0.00  0.00    +0.292 HD
ENDBRANCH   3  31
BRANCH  28  33
ATOM     33  O   LIG A   1      -3.212  -3.977 132.196  0.00  0.00    -0.384 OA
ATOM     34  H   LIG A   1      -2.796  -3.859 133.078  0.00  0.00    +0.210 HD
ENDBRANCH  28  33
TORSDOF 2
ENDMDL
MODEL 3
REMARK VINA RESULT:      -9.0      4.315      6.165
REMARK  Name = NuBBE_381
REMARK  8 active torsions:
REMARK  status: ('A' for Active; 'I' for Inactive)
REMARK    1  A    between atoms: C_3  and  O_4
REMARK    2  A    between atoms: C_5  and  C_6
REMARK    3  A    between atoms: C_11  and  C_35
REMARK    4  A    between atoms: C_12  and  C_13
REMARK    5  A    between atoms: C_16  and  C_17
REMARK    6  A    between atoms: C_22  and  C_34
REMARK    7  A    between atoms: C_26  and  C_28
REMARK    8  A    between atoms: C_31  and  O_33
REMARK                            x       y       z     vdW  Elec       q    Type
REMARK                         _______ _______ _______ _____ _____    ______ ____
ROOT
ATOM      1  O   LIG A   1      -2.616   7.226 128.103  0.00  0.00    -0.284 OA
ATOM      2  C   LIG A   1      -3.491   6.519 128.534  0.00  0.00    +0.221 C 
ATOM      3  C   LIG A   1      -4.110   6.824 129.865  0.00  0.00    +0.167 C 
ATOM      4  C   LIG A   1      -5.141   6.103 130.327  0.00  0.00    +0.002 C 
ATOM      5  C   LIG A   1      -5.727   6.357 131.700  0.00  0.00    +0.048 C 
ATOM      6  C   LIG A   1      -5.724   5.078 129.435  0.00  0.00    -0.014 C 
ATOM      7  C   LIG A   1      -6.945   4.600 129.697  0.00  0.00    +0.008 C 
ATOM      8  C   LIG A   1      -7.556   3.570 128.922  0.00  0.00    +0.001 C 
ATOM      9  C   LIG A   1      -6.855   2.835 128.021  0.00  0.00    -0.053 C 
ATOM     10  C   LIG A   1      -7.268   1.364 127.872  0.00  0.00    -0.004 C 
ATOM     11  C   LIG A   1      -6.394   0.252 127.096  0.00  0.00    -0.019 C 
ATOM     12  C   LIG A   1      -6.648  -1.107 127.863  0.00  0.00    +0.012 C 
ATOM     13  C   LIG A   1      -4.911   0.732 127.200  0.00  0.00    +0.009 C 
ATOM     14  C   LIG A   1      -4.587   2.260 127.028  0.00  0.00    +0.016 C 
ATOM     15  C   LIG A   1      -5.621   3.392 127.376  0.00  0.00    +0.015 C 
ATOM     16  C   LIG A   1      -6.142   4.043 126.059  0.00  0.00    +0.021 C 
ATOM     17  C   LIG A   1      -5.020   4.591 128.218  0.00  0.00    -0.026 C 
ATOM     18  C   LIG A   1      -3.969   5.314 127.797  0.00  0.00    +0.059 C 
ATOM     19  C   LIG A   1      -8.697   1.450 127.241  0.00  0.00    +0.012 C 
ATOM     20  C   LIG A   1      -8.768   1.268 125.694  0.00  0.00    +0.011 C 
ATOM     21  C   LIG A   1      -8.235  -0.087 125.196  0.00  0.00    +0.004 C 
ATOM     22  C   LIG A   1      -6.715  -0.100 125.569  0.00  0.00    +0.005 C 
ATOM     23  C   LIG A   1      -6.048  -1.439 125.034  0.00  0.00    +0.015 C 
ATOM     24  C   LIG A   1      -6.180  -1.637 123.519  0.00  0.00    +0.055 C 
ATOM     25  C   LIG A   1      -5.601  -2.980 123.056  0.00  0.00    +0.015 C 
ATOM     26  C   LIG A   1      -7.658  -1.525 123.189  0.00  0.00    +0.165 C 
ATOM     27  O   LIG A   1      -8.300  -2.406 122.617  0.00  0.00    -0.294 OA
ATOM     28  C   LIG A   1      -8.328  -0.218 123.637  0.00  0.00    +0.187 C 
ATOM     29  C   LIG A   1      -9.113  -1.209 125.816  0.00  0.00    +0.014 C 
ATOM     30  C   LIG A   1      -7.054   0.985 129.434  0.00  0.00    +0.016 C 
ENDROOT
BRANCH   3  31
ATOM     31  O   LIG A   1      -3.579   7.893 130.567  0.00  0.00    -0.503 OA
ATOM     32  H   LIG A   1      -3.364   8.560 129.884  0.00  0.00    +0.292 HD
ENDBRANCH   3  31
BRANCH  28  33
ATOM     33  O   LIG A   1      -9.676  -0.184 123.179  0.00  0.00    -0.384 OA
ATOM     34  H   LIG A   1      -9.636   0.066 122.230  0.00  0.00    +0.210 HD
ENDBRANCH  28  33
TORSDOF 2
ENDMDL
MODEL 4
REMARK VINA RESULT:      -8.9      2.953      8.917
REMARK  Name = NuBBE_381
REMARK  8 active torsions:
REMARK  status: ('A' for Active; 'I' for Inactive)
REMARK    1  A    between atoms: C_3  and  O_4
REMARK    2  A    between atoms: C_5  and  C_6
REMARK    3  A    between atoms: C_11  and  C_35
REMARK    4  A    between atoms: C_12  and  C_13
REMARK    5  A    between atoms: C_16  and  C_17
REMARK    6  A    between atoms: C_22  and  C_34
REMARK    7  A    between atoms: C_26  and  C_28
REMARK    8  A    between atoms: C_31  and  O_33
REMARK                            x       y       z     vdW  Elec       q    Type
REMARK                         _______ _______ _______ _____ _____    ______ ____
ROOT
ATOM      1  O   LIG A   1     -10.138  -3.085 125.249  0.00  0.00    -0.284 OA
ATOM      2  C   LIG A   1      -9.002  -2.880 125.593  0.00  0.00    +0.221 C 
ATOM      3  C   LIG A   1      -7.940  -2.647 124.561  0.00  0.00    +0.167 C 
ATOM      4  C   LIG A   1      -6.687  -2.335 124.920  0.00  0.00    +0.002 C 
ATOM      5  C   LIG A   1      -5.591  -2.168 123.887  0.00  0.00    +0.048 C 
ATOM      6  C   LIG A   1      -6.413  -2.110 126.354  0.00  0.00    -0.014 C 
ATOM      7  C   LIG A   1      -5.302  -1.457 126.715  0.00  0.00    +0.008 C 
ATOM      8  C   LIG A   1      -4.935  -1.249 128.077  0.00  0.00    +0.001 C 
ATOM      9  C   LIG A   1      -5.550  -1.901 129.097  0.00  0.00    -0.053 C 
ATOM     10  C   LIG A   1      -4.670  -2.273 130.298  0.00  0.00    -0.004 C 
ATOM     11  C   LIG A   1      -5.114  -3.294 131.465  0.00  0.00    -0.019 C 
ATOM     12  C   LIG A   1      -3.789  -4.025 131.924  0.00  0.00    +0.012 C 
ATOM     13  C   LIG A   1      -6.139  -4.271 130.804  0.00  0.00    +0.009 C 
ATOM     14  C   LIG A   1      -7.205  -3.698 129.801  0.00  0.00    +0.016 C 
ATOM     15  C   LIG A   1      -6.956  -2.402 128.946  0.00  0.00    +0.015 C 
ATOM     16  C   LIG A   1      -7.835  -1.239 129.496  0.00  0.00    +0.021 C 
ATOM     17  C   LIG A   1      -7.359  -2.538 127.420  0.00  0.00    -0.026 C 
ATOM     18  C   LIG A   1      -8.598  -2.879 127.029  0.00  0.00    +0.059 C 
ATOM     19  C   LIG A   1      -4.301  -0.885 130.921  0.00  0.00    +0.012 C 
ATOM     20  C   LIG A   1      -5.168  -0.435 132.136  0.00  0.00    +0.011 C 
ATOM     21  C   LIG A   1      -5.115  -1.395 133.338  0.00  0.00    +0.004 C 
ATOM     22  C   LIG A   1      -5.739  -2.736 132.828  0.00  0.00    +0.005 C 
ATOM     23  C   LIG A   1      -5.795  -3.784 134.020  0.00  0.00    +0.015 C 
ATOM     24  C   LIG A   1      -6.599  -3.302 135.234  0.00  0.00    +0.055 C 
ATOM     25  C   LIG A   1      -6.555  -4.304 136.395  0.00  0.00    +0.015 C 
ATOM     26  C   LIG A   1      -6.020  -1.958 135.638  0.00  0.00    +0.165 C 
ATOM     27  O   LIG A   1      -5.577  -1.712 136.760  0.00  0.00    -0.294 OA
ATOM     28  C   LIG A   1      -6.003  -0.897 134.528  0.00  0.00    +0.187 C 
ATOM     29  C   LIG A   1      -3.645  -1.458 133.840  0.00  0.00    +0.014 C 
ATOM     30  C   LIG A   1      -3.592  -3.129 129.441  0.00  0.00    +0.016 C 
ENDROOT
BRANCH   3  31
ATOM     31  O   LIG A   1      -8.329  -2.750 123.236  0.00  0.00    -0.503 OA
ATOM     32  H   LIG A   1      -7.843  -2.036 122.776  0.00  0.00    +0.292 HD
ENDBRANCH   3  31
BRANCH  28  33
ATOM     33  O   LIG A   1      -5.542   0.345 135.053  0.00  0.00    -0.384 OA
ATOM     34  H   LIG A   1      -5.496   0.229 136.027  0.00  0.00    +0.210 HD
ENDBRANCH  28  33
TORSDOF 2
ENDMDL
MODEL 5
REMARK VINA RESULT:      -8.9      4.877      6.393
REMARK  Name = NuBBE_381
REMARK  8 active torsions:
REMARK  status: ('A' for Active; 'I' for Inactive)
REMARK    1  A    between atoms: C_3  and  O_4
REMARK    2  A    between atoms: C_5  and  C_6
REMARK    3  A    between atoms: C_11  and  C_35
REMARK    4  A    between atoms: C_12  and  C_13
REMARK    5  A    between atoms: C_16  and  C_17
REMARK    6  A    between atoms: C_22  and  C_34
REMARK    7  A    between atoms: C_26  and  C_28
REMARK    8  A    between atoms: C_31  and  O_33
REMARK                            x       y       z     vdW  Elec       q    Type
REMARK                         _______ _______ _______ _____ _____    ______ ____
ROOT
ATOM      1  O   LIG A   1      -1.959  -2.909 134.189  0.00  0.00    -0.284 OA
ATOM      2  C   LIG A   1      -2.982  -2.869 133.553  0.00  0.00    +0.221 C 
ATOM      3  C   LIG A   1      -3.565  -4.132 132.996  0.00  0.00    +0.167 C 
ATOM      4  C   LIG A   1      -4.743  -4.124 132.358  0.00  0.00    +0.002 C 
ATOM      5  C   LIG A   1      -5.307  -5.382 131.730  0.00  0.00    +0.048 C 
ATOM      6  C   LIG A   1      -5.503  -2.857 132.322  0.00  0.00    -0.014 C 
ATOM      7  C   LIG A   1      -6.808  -2.884 132.028  0.00  0.00    +0.008 C 
ATOM      8  C   LIG A   1      -7.600  -1.703 131.916  0.00  0.00    +0.001 C 
ATOM      9  C   LIG A   1      -7.045  -0.465 131.860  0.00  0.00    -0.053 C 
ATOM     10  C   LIG A   1      -7.761   0.565 130.977  0.00  0.00    -0.004 C 
ATOM     11  C   LIG A   1      -7.124   1.979 130.535  0.00  0.00    -0.019 C 
ATOM     12  C   LIG A   1      -7.693   2.274 129.089  0.00  0.00    +0.012 C 
ATOM     13  C   LIG A   1      -5.576   1.764 130.537  0.00  0.00    +0.009 C 
ATOM     14  C   LIG A   1      -4.923   0.924 131.694  0.00  0.00    +0.016 C 
ATOM     15  C   LIG A   1      -5.698  -0.204 132.467  0.00  0.00    +0.015 C 
ATOM     16  C   LIG A   1      -6.020   0.282 133.912  0.00  0.00    +0.021 C 
ATOM     17  C   LIG A   1      -4.881  -1.548 132.656  0.00  0.00    -0.026 C 
ATOM     18  C   LIG A   1      -3.684  -1.585 133.265  0.00  0.00    +0.059 C 
ATOM     19  C   LIG A   1      -9.116   0.805 131.724  0.00  0.00    +0.012 C 
ATOM     20  C   LIG A   1      -9.171   2.066 132.640  0.00  0.00    +0.011 C 
ATOM     21  C   LIG A   1      -8.928   3.393 131.899  0.00  0.00    +0.004 C 
ATOM     22  C   LIG A   1      -7.461   3.307 131.361  0.00  0.00    +0.005 C 
ATOM     23  C   LIG A   1      -7.082   4.666 130.631  0.00  0.00    +0.015 C 
ATOM     24  C   LIG A   1      -7.202   5.906 131.527  0.00  0.00    +0.055 C 
ATOM     25  C   LIG A   1      -6.912   7.204 130.762  0.00  0.00    +0.015 C 
ATOM     26  C   LIG A   1      -8.607   5.899 132.099  0.00  0.00    +0.165 C 
ATOM     27  O   LIG A   1      -9.406   6.827 131.965  0.00  0.00    -0.294 OA
ATOM     28  C   LIG A   1      -8.993   4.625 132.864  0.00  0.00    +0.187 C 
ATOM     29  C   LIG A   1     -10.050   3.565 130.837  0.00  0.00    +0.014 C 
ATOM     30  C   LIG A   1      -7.690  -0.320 129.620  0.00  0.00    +0.016 C 
ENDROOT
BRANCH   3  31
ATOM     31  O   LIG A   1      -2.839  -5.294 133.199  0.00  0.00    -0.503 OA
ATOM     32  H   LIG A   1      -3.231  -5.945 132.583  0.00  0.00    +0.292 HD
ENDBRANCH   3  31
BRANCH  28  33
ATOM     33  O   LIG A   1     -10.285   4.781 133.443  0.00  0.00    -0.384 OA
ATOM     34  H   LIG A   1     -10.451   5.747 133.484  0.00  0.00    +0.210 HD
ENDBRANCH  28  33
TORSDOF 2
ENDMDL
MODEL 6
REMARK VINA RESULT:      -8.7      1.882      8.503
REMARK  Name = NuBBE_381
REMARK  8 active torsions:
REMARK  status: ('A' for Active; 'I' for Inactive)
REMARK    1  A    between atoms: C_3  and  O_4
REMARK    2  A    between atoms: C_5  and  C_6
REMARK    3  A    between atoms: C_11  and  C_35
REMARK    4  A    between atoms: C_12  and  C_13
REMARK    5  A    between atoms: C_16  and  C_17
REMARK    6  A    between atoms: C_22  and  C_34
REMARK    7  A    between atoms: C_26  and  C_28
REMARK    8  A    between atoms: C_31  and  O_33
REMARK                            x       y       z     vdW  Elec       q    Type
REMARK                         _______ _______ _______ _____ _____    ______ ____
ROOT
ATOM      1  O   LIG A   1      -9.084   2.719 124.868  0.00  0.00    -0.284 OA
ATOM      2  C   LIG A   1      -8.817   1.589 125.190  0.00  0.00    +0.221 C 
ATOM      3  C   LIG A   1      -9.114   0.457 124.254  0.00  0.00    +0.167 C 
ATOM      4  C   LIG A   1      -8.751  -0.798 124.554  0.00  0.00    +0.002 C 
ATOM      5  C   LIG A   1      -9.109  -1.959 123.649  0.00  0.00    +0.048 C 
ATOM      6  C   LIG A   1      -7.945  -1.013 125.774  0.00  0.00    -0.014 C 
ATOM      7  C   LIG A   1      -7.266  -2.156 125.918  0.00  0.00    +0.008 C 
ATOM      8  C   LIG A   1      -6.512  -2.467 127.088  0.00  0.00    +0.001 C 
ATOM      9  C   LIG A   1      -6.623  -1.742 128.230  0.00  0.00    -0.053 C 
ATOM     10  C   LIG A   1      -6.491  -2.518 129.547  0.00  0.00    -0.004 C 
ATOM     11  C   LIG A   1      -6.881  -1.922 130.994  0.00  0.00    -0.019 C 
ATOM     12  C   LIG A   1      -7.418  -3.149 131.835  0.00  0.00    +0.012 C 
ATOM     13  C   LIG A   1      -7.987  -0.851 130.725  0.00  0.00    +0.009 C 
ATOM     14  C   LIG A   1      -7.841   0.103 129.485  0.00  0.00    +0.016 C 
ATOM     15  C   LIG A   1      -7.059  -0.307 128.185  0.00  0.00    +0.015 C 
ATOM     16  C   LIG A   1      -5.723   0.493 128.107  0.00  0.00    +0.021 C 
ATOM     17  C   LIG A   1      -7.816   0.024 126.834  0.00  0.00    -0.026 C 
ATOM     18  C   LIG A   1      -8.220   1.265 126.518  0.00  0.00    +0.059 C 
ATOM     19  C   LIG A   1      -4.994  -2.976 129.549  0.00  0.00    +0.012 C 
ATOM     20  C   LIG A   1      -4.014  -2.088 130.376  0.00  0.00    +0.011 C 
ATOM     21  C   LIG A   1      -4.363  -1.990 131.872  0.00  0.00    +0.004 C 
ATOM     22  C   LIG A   1      -5.755  -1.277 131.929  0.00  0.00    +0.005 C 
ATOM     23  C   LIG A   1      -6.180  -1.063 133.444  0.00  0.00    +0.015 C 
ATOM     24  C   LIG A   1      -5.176  -0.241 134.262  0.00  0.00    +0.055 C 
ATOM     25  C   LIG A   1      -5.581  -0.132 135.738  0.00  0.00    +0.015 C 
ATOM     26  C   LIG A   1      -3.826  -0.915 134.103  0.00  0.00    +0.165 C 
ATOM     27  O   LIG A   1      -3.146  -1.316 135.048  0.00  0.00    -0.294 OA
ATOM     28  C   LIG A   1      -3.350  -1.087 132.654  0.00  0.00    +0.187 C 
ATOM     29  C   LIG A   1      -4.288  -3.419 132.479  0.00  0.00    +0.014 C 
ATOM     30  C   LIG A   1      -7.693  -3.560 129.234  0.00  0.00    +0.016 C 
ENDROOT
BRANCH   3  31
ATOM     31  O   LIG A   1      -9.756   0.781 123.070  0.00  0.00    -0.503 OA
ATOM     32  H   LIG A   1      -9.552   1.726 122.925  0.00  0.00    +0.292 HD
ENDBRANCH   3  31
BRANCH  28  33
ATOM     33  O   LIG A   1      -2.032  -1.628 132.638  0.00  0.00    -0.384 OA
ATOM     34  H   LIG A   1      -2.137  -2.598 132.526  0.00  0.00    +0.210 HD
ENDBRANCH  28  33
TORSDOF 2
ENDMDL
MODEL 7
REMARK VINA RESULT:      -8.7      2.322      9.005
REMARK  Name = NuBBE_381
REMARK  8 active torsions:
REMARK  status: ('A' for Active; 'I' for Inactive)
REMARK    1  A    between atoms: C_3  and  O_4
REMARK    2  A    between atoms: C_5  and  C_6
REMARK    3  A    between atoms: C_11  and  C_35
REMARK    4  A    between atoms: C_12  and  C_13
REMARK    5  A    between atoms: C_16  and  C_17
REMARK    6  A    between atoms: C_22  and  C_34
REMARK    7  A    between atoms: C_26  and  C_28
REMARK    8  A    between atoms: C_31  and  O_33
REMARK                            x       y       z     vdW  Elec       q    Type
REMARK                         _______ _______ _______ _____ _____    ______ ____
ROOT
ATOM      1  O   LIG A   1      -9.219  -3.270 124.086  0.00  0.00    -0.284 OA
ATOM      2  C   LIG A   1      -8.840  -2.461 124.895  0.00  0.00    +0.221 C 
ATOM      3  C   LIG A   1      -8.929  -0.997 124.585  0.00  0.00    +0.167 C 
ATOM      4  C   LIG A   1      -8.593  -0.078 125.501  0.00  0.00    +0.002 C 
ATOM      5  C   LIG A   1      -8.610   1.401 125.174  0.00  0.00    +0.048 C 
ATOM      6  C   LIG A   1      -8.248  -0.547 126.859  0.00  0.00    -0.014 C 
ATOM      7  C   LIG A   1      -8.263   0.322 127.876  0.00  0.00    +0.008 C 
ATOM      8  C   LIG A   1      -7.887  -0.035 129.204  0.00  0.00    +0.001 C 
ATOM      9  C   LIG A   1      -7.261  -1.206 129.486  0.00  0.00    -0.053 C 
ATOM     10  C   LIG A   1      -6.228  -1.171 130.620  0.00  0.00    -0.004 C 
ATOM     11  C   LIG A   1      -5.169  -2.352 130.918  0.00  0.00    -0.019 C 
ATOM     12  C   LIG A   1      -3.870  -1.636 131.466  0.00  0.00    +0.012 C 
ATOM     13  C   LIG A   1      -4.929  -3.060 129.546  0.00  0.00    +0.009 C 
ATOM     14  C   LIG A   1      -6.152  -3.311 128.591  0.00  0.00    +0.016 C 
ATOM     15  C   LIG A   1      -7.432  -2.398 128.592  0.00  0.00    +0.015 C 
ATOM     16  C   LIG A   1      -8.626  -3.177 129.222  0.00  0.00    +0.021 C 
ATOM     17  C   LIG A   1      -7.933  -1.972 127.151  0.00  0.00    -0.026 C 
ATOM     18  C   LIG A   1      -8.249  -2.868 126.202  0.00  0.00    +0.059 C 
ATOM     19  C   LIG A   1      -7.096  -0.905 131.895  0.00  0.00    +0.012 C 
ATOM     20  C   LIG A   1      -7.468  -2.164 132.738  0.00  0.00    +0.011 C 
ATOM     21  C   LIG A   1      -6.253  -2.936 133.284  0.00  0.00    +0.004 C 
ATOM     22  C   LIG A   1      -5.493  -3.463 132.022  0.00  0.00    +0.005 C 
ATOM     23  C   LIG A   1      -4.249  -4.339 132.478  0.00  0.00    +0.015 C 
ATOM     24  C   LIG A   1      -4.622  -5.537 133.359  0.00  0.00    +0.055 C 
ATOM     25  C   LIG A   1      -3.387  -6.305 133.849  0.00  0.00    +0.015 C 
ATOM     26  C   LIG A   1      -5.435  -4.992 134.519  0.00  0.00    +0.165 C 
ATOM     27  O   LIG A   1      -5.135  -5.156 135.702  0.00  0.00    -0.294 OA
ATOM     28  C   LIG A   1      -6.681  -4.189 134.121  0.00  0.00    +0.187 C 
ATOM     29  C   LIG A   1      -5.462  -1.987 134.227  0.00  0.00    +0.014 C 
ATOM     30  C   LIG A   1      -5.314  -0.005 129.961  0.00  0.00    +0.016 C 
ENDROOT
BRANCH   3  31
ATOM     31  O   LIG A   1      -9.393  -0.656 123.326  0.00  0.00    -0.503 OA
ATOM     32  H   LIG A   1     -10.049  -1.347 123.104  0.00  0.00    +0.292 HD
ENDBRANCH   3  31
BRANCH  28  33
ATOM     33  O   LIG A   1      -7.416  -3.826 135.286  0.00  0.00    -0.384 OA
ATOM     34  H   LIG A   1      -8.199  -4.418 135.310  0.00  0.00    +0.210 HD
ENDBRANCH  28  33
TORSDOF 2
ENDMDL
MODEL 8
REMARK VINA RESULT:      -8.0      7.363     10.776
REMARK  Name = NuBBE_381
REMARK  8 active torsions:
REMARK  status: ('A' for Active; 'I' for Inactive)
REMARK    1  A    between atoms: C_3  and  O_4
REMARK    2  A    between atoms: C_5  and  C_6
REMARK    3  A    between atoms: C_11  and  C_35
REMARK    4  A    between atoms: C_12  and  C_13
REMARK    5  A    between atoms: C_16  and  C_17
REMARK    6  A    between atoms: C_22  and  C_34
REMARK    7  A    between atoms: C_26  and  C_28
REMARK    8  A    between atoms: C_31  and  O_33
REMARK                            x       y       z     vdW  Elec       q    Type
REMARK                         _______ _______ _______ _____ _____    ______ ____
ROOT
ATOM      1  O   LIG A   1      -5.009   4.210 124.350  0.00  0.00    -0.284 OA
ATOM      2  C   LIG A   1      -5.032   3.811 125.487  0.00  0.00    +0.221 C 
ATOM      3  C   LIG A   1      -5.612   2.463 125.793  0.00  0.00    +0.167 C 
ATOM      4  C   LIG A   1      -5.573   1.962 127.035  0.00  0.00    +0.002 C 
ATOM      5  C   LIG A   1      -6.219   0.633 127.369  0.00  0.00    +0.048 C 
ATOM      6  C   LIG A   1      -4.838   2.724 128.066  0.00  0.00    -0.014 C 
ATOM      7  C   LIG A   1      -4.468   2.110 129.195  0.00  0.00    +0.008 C 
ATOM      8  C   LIG A   1      -3.807   2.786 130.263  0.00  0.00    +0.001 C 
ATOM      9  C   LIG A   1      -3.724   4.140 130.317  0.00  0.00    -0.053 C 
ATOM     10  C   LIG A   1      -3.781   4.773 131.714  0.00  0.00    -0.004 C 
ATOM     11  C   LIG A   1      -3.998   6.347 131.987  0.00  0.00    -0.019 C 
ATOM     12  C   LIG A   1      -4.820   6.441 133.335  0.00  0.00    +0.012 C 
ATOM     13  C   LIG A   1      -4.801   6.883 130.758  0.00  0.00    +0.009 C 
ATOM     14  C   LIG A   1      -4.429   6.370 129.320  0.00  0.00    +0.016 C 
ATOM     15  C   LIG A   1      -3.785   4.959 129.061  0.00  0.00    +0.015 C 
ATOM     16  C   LIG A   1      -2.292   5.137 128.652  0.00  0.00    +0.021 C 
ATOM     17  C   LIG A   1      -4.445   4.146 127.874  0.00  0.00    -0.026 C 
ATOM     18  C   LIG A   1      -4.526   4.632 126.624  0.00  0.00    +0.059 C 
ATOM     19  C   LIG A   1      -2.448   4.298 132.382  0.00  0.00    +0.012 C 
ATOM     20  C   LIG A   1      -1.270   5.319 132.346  0.00  0.00    +0.011 C 
ATOM     21  C   LIG A   1      -1.572   6.653 133.053  0.00  0.00    +0.004 C 
ATOM     22  C   LIG A   1      -2.738   7.302 132.236  0.00  0.00    +0.005 C 
ATOM     23  C   LIG A   1      -3.085   8.727 132.846  0.00  0.00    +0.015 C 
ATOM     24  C   LIG A   1      -1.901   9.701 132.862  0.00  0.00    +0.055 C 
ATOM     25  C   LIG A   1      -2.253  11.033 133.537  0.00  0.00    +0.015 C 
ATOM     26  C   LIG A   1      -0.765   8.997 133.582  0.00  0.00    +0.165 C 
ATOM     27  O   LIG A   1      -0.200   9.449 134.578  0.00  0.00    -0.294 OA
ATOM     28  C   LIG A   1      -0.358   7.641 132.986  0.00  0.00    +0.187 C 
ATOM     29  C   LIG A   1      -1.854   6.352 134.551  0.00  0.00    +0.014 C 
ATOM     30  C   LIG A   1      -5.210   4.121 132.120  0.00  0.00    +0.016 C 
ENDROOT
BRANCH   3  31
ATOM     31  O   LIG A   1      -6.160   1.766 124.729  0.00  0.00    -0.503 OA
ATOM     32  H   LIG A   1      -5.771   2.178 123.931  0.00  0.00    +0.292 HD
ENDBRANCH   3  31
BRANCH  28  33
ATOM     33  O   LIG A   1       0.781   7.132 133.674  0.00  0.00    -0.384 OA
ATOM     34  H   LIG A   1       0.861   7.661 134.497  0.00  0.00    +0.210 HD
ENDBRANCH  28  33
TORSDOF 2
ENDMDL
MODEL 9
REMARK VINA RESULT:      -8.0      3.303      9.489
REMARK  Name = NuBBE_381
REMARK  8 active torsions:
REMARK  status: ('A' for Active; 'I' for Inactive)
REMARK    1  A    between atoms: C_3  and  O_4
REMARK    2  A    between atoms: C_5  and  C_6
REMARK    3  A    between atoms: C_11  and  C_35
REMARK    4  A    between atoms: C_12  and  C_13
REMARK    5  A    between atoms: C_16  and  C_17
REMARK    6  A    between atoms: C_22  and  C_34
REMARK    7  A    between atoms: C_26  and  C_28
REMARK    8  A    between atoms: C_31  and  O_33
REMARK                            x       y       z     vdW  Elec       q    Type
REMARK                         _______ _______ _______ _____ _____    ______ ____
ROOT
ATOM      1  O   LIG A   1      -9.612   3.211 129.353  0.00  0.00    -0.284 OA
ATOM      2  C   LIG A   1      -8.686   2.482 129.100  0.00  0.00    +0.221 C 
ATOM      3  C   LIG A   1      -7.930   2.652 127.817  0.00  0.00    +0.167 C 
ATOM      4  C   LIG A   1      -6.846   1.910 127.553  0.00  0.00    +0.002 C 
ATOM      5  C   LIG A   1      -6.118   2.024 126.229  0.00  0.00    +0.048 C 
ATOM      6  C   LIG A   1      -6.351   1.006 128.611  0.00  0.00    -0.014 C 
ATOM      7  C   LIG A   1      -5.102   0.532 128.537  0.00  0.00    +0.008 C 
ATOM      8  C   LIG A   1      -4.566  -0.389 129.484  0.00  0.00    +0.001 C 
ATOM      9  C   LIG A   1      -5.350  -1.037 130.383  0.00  0.00    -0.053 C 
ATOM     10  C   LIG A   1      -4.938  -2.470 130.742  0.00  0.00    -0.004 C 
ATOM     11  C   LIG A   1      -5.876  -3.510 131.542  0.00  0.00    -0.019 C 
ATOM     12  C   LIG A   1      -5.523  -4.940 130.966  0.00  0.00    +0.012 C 
ATOM     13  C   LIG A   1      -7.345  -3.083 131.227  0.00  0.00    +0.009 C 
ATOM     14  C   LIG A   1      -7.705  -1.553 131.189  0.00  0.00    +0.016 C 
ATOM     15  C   LIG A   1      -6.655  -0.442 130.827  0.00  0.00    +0.015 C 
ATOM     16  C   LIG A   1      -6.287   0.365 132.109  0.00  0.00    +0.021 C 
ATOM     17  C   LIG A   1      -7.176   0.640 129.794  0.00  0.00    -0.026 C 
ATOM     18  C   LIG A   1      -8.275   1.379 130.016  0.00  0.00    +0.059 C 
ATOM     19  C   LIG A   1      -3.586  -2.279 131.507  0.00  0.00    +0.012 C 
ATOM     20  C   LIG A   1      -3.681  -2.285 133.064  0.00  0.00    +0.011 C 
ATOM     21  C   LIG A   1      -4.247  -3.589 133.654  0.00  0.00    +0.004 C 
ATOM     22  C   LIG A   1      -5.717  -3.682 133.125  0.00  0.00    +0.005 C 
ATOM     23  C   LIG A   1      -6.422  -4.969 133.735  0.00  0.00    +0.015 C 
ATOM     24  C   LIG A   1      -6.452  -4.993 135.268  0.00  0.00    +0.055 C 
ATOM     25  C   LIG A   1      -7.061  -6.290 135.816  0.00  0.00    +0.015 C 
ATOM     26  C   LIG A   1      -5.021  -4.808 135.738  0.00  0.00    +0.165 C 
ATOM     27  O   LIG A   1      -4.433  -5.604 136.471  0.00  0.00    -0.294 OA
ATOM     28  C   LIG A   1      -4.323  -3.543 135.218  0.00  0.00    +0.187 C 
ATOM     29  C   LIG A   1      -3.293  -4.751 133.262  0.00  0.00    +0.014 C 
ATOM     30  C   LIG A   1      -4.976  -3.027 129.219  0.00  0.00    +0.016 C 
ENDROOT
BRANCH   3  31
ATOM     31  O   LIG A   1      -8.396   3.622 126.945  0.00  0.00    -0.503 OA
ATOM     32  H   LIG A   1      -7.668   4.272 126.881  0.00  0.00    +0.292 HD
ENDBRANCH   3  31
BRANCH  28  33
ATOM     33  O   LIG A   1      -3.032  -3.424 135.810  0.00  0.00    -0.384 OA
ATOM     34  H   LIG A   1      -3.116  -3.782 136.720  0.00  0.00    +0.210 HD
ENDBRANCH  28  33
TORSDOF 2
ENDMDL
