MODEL 1
REMARK VINA RESULT:      -5.6      0.000      0.000
REMARK  Name = NuBBE_1915
REMARK  3 active torsions:
REMARK  status: ('A' for Active; 'I' for Inactive)
REMARK    1  A    between atoms: C_1  and  C_2
REMARK    2  A    between atoms: C_3  and  C_4
REMARK    3  A    between atoms: C_3  and  C_5
REMARK                            x       y       z     vdW  Elec       q    Type
REMARK                         _______ _______ _______ _____ _____    ______ ____
ROOT
ATOM      1  C   LIG A   1     -12.163   7.089 126.420  0.00  0.00    +0.012 C 
ATOM      2  C   LIG A   1     -12.368   7.541 127.820  0.00  0.00    -0.021 C 
ATOM      3  C   LIG A   1     -11.202   7.719 128.792  0.00  0.00    -0.026 C 
ATOM      4  C   LIG A   1     -10.197   8.786 128.342  0.00  0.00    +0.012 C 
ATOM      5  C   LIG A   1     -10.446   6.411 129.058  0.00  0.00    +0.012 C 
ATOM      6  C   LIG A   1     -12.113   8.178 130.009  0.00  0.00    -0.004 C 
ATOM      7  C   LIG A   1     -12.969   9.335 129.387  0.00  0.00    +0.008 C 
ATOM      8  C   LIG A   1     -13.430   8.542 128.183  0.00  0.00    -0.000 C 
ATOM      9  C   LIG A   1     -13.573   7.122 128.614  0.00  0.00    -0.000 C 
ATOM     10  C   LIG A   1     -13.208   7.060 130.079  0.00  0.00    +0.008 C 
ENDROOT
TORSDOF 0
ENDMDL
MODEL 2
REMARK VINA RESULT:      -5.6      1.184      2.909
REMARK  Name = NuBBE_1915
REMARK  3 active torsions:
REMARK  status: ('A' for Active; 'I' for Inactive)
REMARK    1  A    between atoms: C_1  and  C_2
REMARK    2  A    between atoms: C_3  and  C_4
REMARK    3  A    between atoms: C_3  and  C_5
REMARK                            x       y       z     vdW  Elec       q    Type
REMARK                         _______ _______ _______ _____ _____    ______ ____
ROOT
ATOM      1  C   LIG A   1     -12.880   7.758 131.506  0.00  0.00    +0.012 C 
ATOM      2  C   LIG A   1     -12.353   7.635 130.122  0.00  0.00    -0.021 C 
ATOM      3  C   LIG A   1     -11.207   6.685 129.774  0.00  0.00    -0.026 C 
ATOM      4  C   LIG A   1     -11.544   5.211 130.033  0.00  0.00    +0.012 C 
ATOM      5  C   LIG A   1      -9.906   7.029 130.509  0.00  0.00    +0.012 C 
ATOM      6  C   LIG A   1     -11.181   7.068 128.233  0.00  0.00    -0.004 C 
ATOM      7  C   LIG A   1     -12.679   6.891 127.804  0.00  0.00    +0.008 C 
ATOM      8  C   LIG A   1     -13.249   7.739 128.920  0.00  0.00    -0.000 C 
ATOM      9  C   LIG A   1     -12.266   8.822 129.204  0.00  0.00    -0.000 C 
ATOM     10  C   LIG A   1     -11.105   8.633 128.255  0.00  0.00    +0.008 C 
ENDROOT
TORSDOF 0
ENDMDL
MODEL 3
REMARK VINA RESULT:      -5.5      0.809      2.219
REMARK  Name = NuBBE_1915
REMARK  3 active torsions:
REMARK  status: ('A' for Active; 'I' for Inactive)
REMARK    1  A    between atoms: C_1  and  C_2
REMARK    2  A    between atoms: C_3  and  C_4
REMARK    3  A    between atoms: C_3  and  C_5
REMARK                            x       y       z     vdW  Elec       q    Type
REMARK                         _______ _______ _______ _____ _____    ______ ____
ROOT
ATOM      1  C   LIG A   1     -10.997   5.855 129.684  0.00  0.00    +0.012 C 
ATOM      2  C   LIG A   1     -11.852   6.974 129.212  0.00  0.00    -0.021 C 
ATOM      3  C   LIG A   1     -11.386   7.948 128.129  0.00  0.00    -0.026 C 
ATOM      4  C   LIG A   1     -11.117   7.269 126.781  0.00  0.00    +0.012 C 
ATOM      5  C   LIG A   1     -10.138   8.740 128.539  0.00  0.00    +0.012 C 
ATOM      6  C   LIG A   1     -12.717   8.815 128.149  0.00  0.00    -0.004 C 
ATOM      7  C   LIG A   1     -13.840   7.733 127.984  0.00  0.00    +0.008 C 
ATOM      8  C   LIG A   1     -13.346   6.841 129.102  0.00  0.00    -0.000 C 
ATOM      9  C   LIG A   1     -12.757   7.723 130.149  0.00  0.00    -0.000 C 
ATOM     10  C   LIG A   1     -12.905   9.148 129.668  0.00  0.00    +0.008 C 
ENDROOT
TORSDOF 0
ENDMDL
MODEL 4
REMARK VINA RESULT:      -5.5      1.118      2.581
REMARK  Name = NuBBE_1915
REMARK  3 active torsions:
REMARK  status: ('A' for Active; 'I' for Inactive)
REMARK    1  A    between atoms: C_1  and  C_2
REMARK    2  A    between atoms: C_3  and  C_4
REMARK    3  A    between atoms: C_3  and  C_5
REMARK                            x       y       z     vdW  Elec       q    Type
REMARK                         _______ _______ _______ _____ _____    ______ ____
ROOT
ATOM      1  C   LIG A   1      -9.803   7.535 129.777  0.00  0.00    +0.012 C 
ATOM      2  C   LIG A   1     -11.152   7.616 129.159  0.00  0.00    -0.021 C 
ATOM      3  C   LIG A   1     -12.364   6.910 129.766  0.00  0.00    -0.026 C 
ATOM      4  C   LIG A   1     -12.716   7.412 131.171  0.00  0.00    +0.012 C 
ATOM      5  C   LIG A   1     -12.201   5.386 129.814  0.00  0.00    +0.012 C 
ATOM      6  C   LIG A   1     -13.377   7.400 128.645  0.00  0.00    -0.004 C 
ATOM      7  C   LIG A   1     -13.142   8.950 128.616  0.00  0.00    +0.008 C 
ATOM      8  C   LIG A   1     -11.638   8.864 128.476  0.00  0.00    -0.000 C 
ATOM      9  C   LIG A   1     -11.333   7.649 127.668  0.00  0.00    -0.000 C 
ATOM     10  C   LIG A   1     -12.654   7.007 127.312  0.00  0.00    +0.008 C 
ENDROOT
TORSDOF 0
ENDMDL
MODEL 5
REMARK VINA RESULT:      -5.3      0.985      3.104
REMARK  Name = NuBBE_1915
REMARK  3 active torsions:
REMARK  status: ('A' for Active; 'I' for Inactive)
REMARK    1  A    between atoms: C_1  and  C_2
REMARK    2  A    between atoms: C_3  and  C_4
REMARK    3  A    between atoms: C_3  and  C_5
REMARK                            x       y       z     vdW  Elec       q    Type
REMARK                         _______ _______ _______ _____ _____    ______ ____
ROOT
ATOM      1  C   LIG A   1     -12.413   6.836 130.866  0.00  0.00    +0.012 C 
ATOM      2  C   LIG A   1     -11.790   7.325 129.609  0.00  0.00    -0.021 C 
ATOM      3  C   LIG A   1     -12.568   8.159 128.591  0.00  0.00    -0.026 C 
ATOM      4  C   LIG A   1     -13.053   9.501 129.154  0.00  0.00    +0.012 C 
ATOM      5  C   LIG A   1     -13.769   7.410 128.002  0.00  0.00    +0.012 C 
ATOM      6  C   LIG A   1     -11.353   8.299 127.578  0.00  0.00    -0.004 C 
ATOM      7  C   LIG A   1     -10.193   8.821 128.494  0.00  0.00    +0.008 C 
ATOM      8  C   LIG A   1     -10.349   7.749 129.550  0.00  0.00    -0.000 C 
ATOM      9  C   LIG A   1     -10.781   6.502 128.858  0.00  0.00    -0.000 C 
ATOM     10  C   LIG A   1     -10.878   6.819 127.384  0.00  0.00    +0.008 C 
ENDROOT
TORSDOF 0
ENDMDL
MODEL 6
REMARK VINA RESULT:      -5.1     11.012     12.329
REMARK  Name = NuBBE_1915
REMARK  3 active torsions:
REMARK  status: ('A' for Active; 'I' for Inactive)
REMARK    1  A    between atoms: C_1  and  C_2
REMARK    2  A    between atoms: C_3  and  C_4
REMARK    3  A    between atoms: C_3  and  C_5
REMARK                            x       y       z     vdW  Elec       q    Type
REMARK                         _______ _______ _______ _____ _____    ______ ____
ROOT
ATOM      1  C   LIG A   1      -8.951  -1.647 122.818  0.00  0.00    +0.012 C 
ATOM      2  C   LIG A   1      -7.682  -1.865 123.560  0.00  0.00    -0.021 C 
ATOM      3  C   LIG A   1      -7.627  -2.691 124.845  0.00  0.00    -0.026 C 
ATOM      4  C   LIG A   1      -8.037  -4.155 124.641  0.00  0.00    +0.012 C 
ATOM      5  C   LIG A   1      -8.477  -2.094 125.972  0.00  0.00    +0.012 C 
ATOM      6  C   LIG A   1      -6.065  -2.495 125.061  0.00  0.00    -0.004 C 
ATOM      7  C   LIG A   1      -5.465  -2.918 123.675  0.00  0.00    +0.008 C 
ATOM      8  C   LIG A   1      -6.366  -2.025 122.850  0.00  0.00    -0.000 C 
ATOM      9  C   LIG A   1      -6.630  -0.796 123.651  0.00  0.00    -0.000 C 
ATOM     10  C   LIG A   1      -5.881  -0.943 124.956  0.00  0.00    +0.008 C 
ENDROOT
TORSDOF 0
ENDMDL
MODEL 7
REMARK VINA RESULT:      -5.0     10.124     11.894
REMARK  Name = NuBBE_1915
REMARK  3 active torsions:
REMARK  status: ('A' for Active; 'I' for Inactive)
REMARK    1  A    between atoms: C_1  and  C_2
REMARK    2  A    between atoms: C_3  and  C_4
REMARK    3  A    between atoms: C_3  and  C_5
REMARK                            x       y       z     vdW  Elec       q    Type
REMARK                         _______ _______ _______ _____ _____    ______ ____
ROOT
ATOM      1  C   LIG A   1      -9.056  -3.493 126.818  0.00  0.00    +0.012 C 
ATOM      2  C   LIG A   1      -8.540  -2.978 125.524  0.00  0.00    -0.021 C 
ATOM      3  C   LIG A   1      -8.047  -1.540 125.362  0.00  0.00    -0.026 C 
ATOM      4  C   LIG A   1      -6.839  -1.212 126.248  0.00  0.00    +0.012 C 
ATOM      5  C   LIG A   1      -9.146  -0.503 125.625  0.00  0.00    +0.012 C 
ATOM      6  C   LIG A   1      -7.683  -1.697 123.824  0.00  0.00    -0.004 C 
ATOM      7  C   LIG A   1      -6.781  -2.980 123.808  0.00  0.00    +0.008 C 
ATOM      8  C   LIG A   1      -7.750  -3.846 124.583  0.00  0.00    -0.000 C 
ATOM      9  C   LIG A   1      -9.128  -3.416 124.211  0.00  0.00    -0.000 C 
ATOM     10  C   LIG A   1      -8.991  -2.296 123.206  0.00  0.00    +0.008 C 
ENDROOT
TORSDOF 0
ENDMDL
MODEL 8
REMARK VINA RESULT:      -5.0     10.163     11.891
REMARK  Name = NuBBE_1915
REMARK  3 active torsions:
REMARK  status: ('A' for Active; 'I' for Inactive)
REMARK    1  A    between atoms: C_1  and  C_2
REMARK    2  A    between atoms: C_3  and  C_4
REMARK    3  A    between atoms: C_3  and  C_5
REMARK                            x       y       z     vdW  Elec       q    Type
REMARK                         _______ _______ _______ _____ _____    ______ ____
ROOT
ATOM      1  C   LIG A   1      -5.962  -1.138 125.116  0.00  0.00    +0.012 C 
ATOM      2  C   LIG A   1      -7.137  -1.993 124.805  0.00  0.00    -0.021 C 
ATOM      3  C   LIG A   1      -8.414  -1.949 125.645  0.00  0.00    -0.026 C 
ATOM      4  C   LIG A   1      -9.104  -0.580 125.626  0.00  0.00    +0.012 C 
ATOM      5  C   LIG A   1      -8.181  -2.363 127.103  0.00  0.00    +0.012 C 
ATOM      6  C   LIG A   1      -9.172  -3.053 124.790  0.00  0.00    -0.004 C 
ATOM      7  C   LIG A   1      -9.023  -2.521 123.323  0.00  0.00    +0.008 C 
ATOM      8  C   LIG A   1      -7.525  -2.326 123.391  0.00  0.00    -0.000 C 
ATOM      9  C   LIG A   1      -6.977  -3.391 124.278  0.00  0.00    -0.000 C 
ATOM     10  C   LIG A   1      -8.144  -4.234 124.738  0.00  0.00    +0.008 C 
ENDROOT
TORSDOF 0
ENDMDL
MODEL 9
REMARK VINA RESULT:      -4.9     10.582     12.244
REMARK  Name = NuBBE_1915
REMARK  3 active torsions:
REMARK  status: ('A' for Active; 'I' for Inactive)
REMARK    1  A    between atoms: C_1  and  C_2
REMARK    2  A    between atoms: C_3  and  C_4
REMARK    3  A    between atoms: C_3  and  C_5
REMARK                            x       y       z     vdW  Elec       q    Type
REMARK                         _______ _______ _______ _____ _____    ______ ____
ROOT
ATOM      1  C   LIG A   1      -8.315  -3.795 124.351  0.00  0.00    +0.012 C 
ATOM      2  C   LIG A   1      -7.335  -2.766 124.787  0.00  0.00    -0.021 C 
ATOM      3  C   LIG A   1      -6.044  -2.498 124.013  0.00  0.00    -0.026 C 
ATOM      4  C   LIG A   1      -6.289  -2.003 122.582  0.00  0.00    +0.012 C 
ATOM      5  C   LIG A   1      -5.119  -3.720 123.960  0.00  0.00    +0.012 C 
ATOM      6  C   LIG A   1      -5.533  -1.362 124.998  0.00  0.00    -0.004 C 
ATOM      7  C   LIG A   1      -6.765  -0.396 125.086  0.00  0.00    +0.008 C 
ATOM      8  C   LIG A   1      -7.771  -1.475 125.421  0.00  0.00    -0.000 C 
ATOM      9  C   LIG A   1      -7.067  -2.501 126.242  0.00  0.00    -0.000 C 
ATOM     10  C   LIG A   1      -5.638  -2.037 126.408  0.00  0.00    +0.008 C 
ENDROOT
TORSDOF 0
ENDMDL
