MODEL 1
REMARK VINA RESULT:      -8.2      0.000      0.000
REMARK  Name = NuBBE_1771
REMARK  3 active torsions:
REMARK  status: ('A' for Active; 'I' for Inactive)
REMARK    1  A    between atoms: C_11  and  O_12
REMARK    2  A    between atoms: C_13  and  O_16
REMARK    3  A    between atoms: C_22  and  O_24
REMARK                            x       y       z     vdW  Elec       q    Type
REMARK                         _______ _______ _______ _____ _____    ______ ____
ROOT
ATOM      1  O   LIG A   1     -13.113   7.490 131.687  0.00  0.00    -0.289 OA
ATOM      2  C   LIG A   1     -12.166   6.934 131.136  0.00  0.00    +0.199 C 
ATOM      3  C   LIG A   1     -11.270   5.947 131.837  0.00  0.00    +0.234 C 
ATOM      4  C   LIG A   1     -10.863   4.880 130.822  0.00  0.00    +0.240 C 
ATOM      5  C   LIG A   1      -9.914   3.911 131.502  0.00  0.00    +0.005 A 
ATOM      6  C   LIG A   1      -9.162   4.334 132.627  0.00  0.00    +0.030 A 
ATOM      7  C   LIG A   1      -9.324   5.741 133.158  0.00  0.00    +0.200 C 
ATOM      8  O   LIG A   1     -10.113   6.611 132.343  0.00  0.00    -0.360 OA
ATOM      9  C   LIG A   1      -8.335   3.400 133.261  0.00  0.00    +0.164 A 
ATOM     10  C   LIG A   1      -8.255   2.088 132.789  0.00  0.00    +0.159 A 
ATOM     11  C   LIG A   1      -8.976   1.677 131.680  0.00  0.00    +0.049 A 
ATOM     12  C   LIG A   1      -9.801   2.590 131.029  0.00  0.00    +0.011 A 
ATOM     13  O   LIG A   1     -10.182   5.434 129.683  0.00  0.00    -0.480 OA
ATOM     14  C   LIG A   1     -10.856   6.469 129.089  0.00  0.00    +0.136 A 
ATOM     15  C   LIG A   1     -11.845   7.221 129.726  0.00  0.00    +0.062 A 
ATOM     16  C   LIG A   1     -12.507   8.254 129.051  0.00  0.00    +0.019 A 
ATOM     17  C   LIG A   1     -12.162   8.551 127.733  0.00  0.00    +0.046 A 
ATOM     18  C   LIG A   1     -11.156   7.815 127.111  0.00  0.00    +0.120 A 
ATOM     19  C   LIG A   1     -10.500   6.783 127.778  0.00  0.00    +0.091 A 
ENDROOT
BRANCH   9  20
ATOM     20  O   LIG A   1      -7.579   3.675 134.372  0.00  0.00    -0.503 OA
ATOM     21  H   LIG A   1      -7.096   4.507 134.252  0.00  0.00    +0.292 HD
ENDBRANCH   9  20
BRANCH  10  22
ATOM     22  O   LIG A   1      -7.458   1.182 133.432  0.00  0.00    -0.503 OA
ATOM     23  H   LIG A   1      -8.024   0.821 134.143  0.00  0.00    +0.292 HD
ENDBRANCH  10  22
BRANCH  18  24
ATOM     24  O   LIG A   1     -10.783   8.081 125.826  0.00  0.00    -0.507 OA
ATOM     25  H   LIG A   1      -9.943   8.569 125.835  0.00  0.00    +0.292 HD
ENDBRANCH  18  24
TORSDOF 3
ENDMDL
MODEL 2
REMARK VINA RESULT:      -8.1      1.559      6.891
REMARK  Name = NuBBE_1771
REMARK  3 active torsions:
REMARK  status: ('A' for Active; 'I' for Inactive)
REMARK    1  A    between atoms: C_11  and  O_12
REMARK    2  A    between atoms: C_13  and  O_16
REMARK    3  A    between atoms: C_22  and  O_24
REMARK                            x       y       z     vdW  Elec       q    Type
REMARK                         _______ _______ _______ _____ _____    ______ ____
ROOT
ATOM      1  O   LIG A   1      -9.752   2.590 130.898  0.00  0.00    -0.289 OA
ATOM      2  C   LIG A   1      -9.728   3.759 131.277  0.00  0.00    +0.199 C 
ATOM      3  C   LIG A   1     -10.358   4.887 130.502  0.00  0.00    +0.234 C 
ATOM      4  C   LIG A   1     -10.922   5.889 131.509  0.00  0.00    +0.240 C 
ATOM      5  C   LIG A   1     -11.509   7.058 130.740  0.00  0.00    +0.005 A 
ATOM      6  C   LIG A   1     -11.041   7.348 129.435  0.00  0.00    +0.030 A 
ATOM      7  C   LIG A   1      -9.976   6.480 128.803  0.00  0.00    +0.200 C 
ATOM      8  O   LIG A   1      -9.381   5.517 129.675  0.00  0.00    -0.360 OA
ATOM      9  C   LIG A   1     -11.640   8.402 128.735  0.00  0.00    +0.164 A 
ATOM     10  C   LIG A   1     -12.668   9.146 129.318  0.00  0.00    +0.159 A 
ATOM     11  C   LIG A   1     -13.116   8.875 130.600  0.00  0.00    +0.049 A 
ATOM     12  C   LIG A   1     -12.530   7.835 131.318  0.00  0.00    +0.011 A 
ATOM     13  O   LIG A   1      -9.914   6.407 132.394  0.00  0.00    -0.480 OA
ATOM     14  C   LIG A   1      -9.168   5.435 133.008  0.00  0.00    +0.136 A 
ATOM     15  C   LIG A   1      -9.055   4.126 132.535  0.00  0.00    +0.062 A 
ATOM     16  C   LIG A   1      -8.290   3.178 133.225  0.00  0.00    +0.019 A 
ATOM     17  C   LIG A   1      -7.615   3.547 134.389  0.00  0.00    +0.046 A 
ATOM     18  C   LIG A   1      -7.711   4.861 134.842  0.00  0.00    +0.120 A 
ATOM     19  C   LIG A   1      -8.476   5.806 134.160  0.00  0.00    +0.091 A 
ENDROOT
BRANCH   9  20
ATOM     20  O   LIG A   1     -11.299   8.766 127.457  0.00  0.00    -0.503 OA
ATOM     21  H   LIG A   1     -11.927   8.391 126.821  0.00  0.00    +0.292 HD
ENDBRANCH   9  20
BRANCH  10  22
ATOM     22  O   LIG A   1     -13.258  10.160 128.614  0.00  0.00    -0.503 OA
ATOM     23  H   LIG A   1     -13.253  10.920 129.230  0.00  0.00    +0.292 HD
ENDBRANCH  10  22
BRANCH  18  24
ATOM     24  O   LIG A   1      -7.059   5.264 135.970  0.00  0.00    -0.507 OA
ATOM     25  H   LIG A   1      -6.358   5.891 135.724  0.00  0.00    +0.292 HD
ENDBRANCH  18  24
TORSDOF 3
ENDMDL
MODEL 3
REMARK VINA RESULT:      -7.9      7.995     11.326
REMARK  Name = NuBBE_1771
REMARK  3 active torsions:
REMARK  status: ('A' for Active; 'I' for Inactive)
REMARK    1  A    between atoms: C_11  and  O_12
REMARK    2  A    between atoms: C_13  and  O_16
REMARK    3  A    between atoms: C_22  and  O_24
REMARK                            x       y       z     vdW  Elec       q    Type
REMARK                         _______ _______ _______ _____ _____    ______ ____
ROOT
ATOM      1  O   LIG A   1      -9.771   2.333 125.161  0.00  0.00    -0.289 OA
ATOM      2  C   LIG A   1      -8.906   1.988 124.360  0.00  0.00    +0.199 C 
ATOM      3  C   LIG A   1      -8.518   2.816 123.162  0.00  0.00    +0.234 C 
ATOM      4  C   LIG A   1      -7.016   2.642 122.938  0.00  0.00    +0.240 C 
ATOM      5  C   LIG A   1      -6.624   3.427 121.700  0.00  0.00    +0.005 A 
ATOM      6  C   LIG A   1      -7.597   3.710 120.709  0.00  0.00    +0.030 A 
ATOM      7  C   LIG A   1      -9.025   3.249 120.898  0.00  0.00    +0.200 C 
ATOM      8  O   LIG A   1      -9.241   2.380 122.012  0.00  0.00    -0.360 OA
ATOM      9  C   LIG A   1      -7.214   4.479 119.604  0.00  0.00    +0.164 A 
ATOM     10  C   LIG A   1      -5.903   4.948 119.488  0.00  0.00    +0.159 A 
ATOM     11  C   LIG A   1      -4.947   4.659 120.447  0.00  0.00    +0.049 A 
ATOM     12  C   LIG A   1      -5.304   3.890 121.552  0.00  0.00    +0.011 A 
ATOM     13  O   LIG A   1      -6.647   1.269 122.723  0.00  0.00    -0.480 OA
ATOM     14  C   LIG A   1      -7.120   0.415 123.685  0.00  0.00    +0.136 A 
ATOM     15  C   LIG A   1      -8.193   0.710 124.528  0.00  0.00    +0.062 A 
ATOM     16  C   LIG A   1      -8.610  -0.204 125.503  0.00  0.00    +0.019 A 
ATOM     17  C   LIG A   1      -7.961  -1.433 125.623  0.00  0.00    +0.046 A 
ATOM     18  C   LIG A   1      -6.908  -1.733 124.761  0.00  0.00    +0.120 A 
ATOM     19  C   LIG A   1      -6.487  -0.823 123.794  0.00  0.00    +0.091 A 
ENDROOT
BRANCH   9  20
ATOM     20  O   LIG A   1      -8.064   4.845 118.592  0.00  0.00    -0.503 OA
ATOM     21  H   LIG A   1      -7.975   4.237 117.842  0.00  0.00    +0.292 HD
ENDBRANCH   9  20
BRANCH  10  22
ATOM     22  O   LIG A   1      -5.549   5.716 118.413  0.00  0.00    -0.503 OA
ATOM     23  H   LIG A   1      -5.677   5.129 117.641  0.00  0.00    +0.292 HD
ENDBRANCH  10  22
BRANCH  18  24
ATOM     24  O   LIG A   1      -6.255  -2.927 124.840  0.00  0.00    -0.507 OA
ATOM     25  H   LIG A   1      -5.411  -2.796 125.304  0.00  0.00    +0.292 HD
ENDBRANCH  18  24
TORSDOF 3
ENDMDL
MODEL 4
REMARK VINA RESULT:      -7.4      2.519      3.324
REMARK  Name = NuBBE_1771
REMARK  3 active torsions:
REMARK  status: ('A' for Active; 'I' for Inactive)
REMARK    1  A    between atoms: C_11  and  O_12
REMARK    2  A    between atoms: C_13  and  O_16
REMARK    3  A    between atoms: C_22  and  O_24
REMARK                            x       y       z     vdW  Elec       q    Type
REMARK                         _______ _______ _______ _____ _____    ______ ____
ROOT
ATOM      1  O   LIG A   1     -11.536   3.735 130.152  0.00  0.00    -0.289 OA
ATOM      2  C   LIG A   1     -10.945   4.795 130.344  0.00  0.00    +0.199 C 
ATOM      3  C   LIG A   1      -9.672   4.893 131.144  0.00  0.00    +0.234 C 
ATOM      4  C   LIG A   1      -8.800   5.975 130.507  0.00  0.00    +0.240 C 
ATOM      5  C   LIG A   1      -7.539   6.122 131.339  0.00  0.00    +0.005 A 
ATOM      6  C   LIG A   1      -7.548   5.742 132.704  0.00  0.00    +0.030 A 
ATOM      7  C   LIG A   1      -8.804   5.171 133.322  0.00  0.00    +0.200 C 
ATOM      8  O   LIG A   1      -9.970   5.235 132.497  0.00  0.00    -0.360 OA
ATOM      9  C   LIG A   1      -6.354   5.843 133.428  0.00  0.00    +0.164 A 
ATOM     10  C   LIG A   1      -5.190   6.312 132.813  0.00  0.00    +0.159 A 
ATOM     11  C   LIG A   1      -5.184   6.699 131.484  0.00  0.00    +0.049 A 
ATOM     12  C   LIG A   1      -6.362   6.613 130.746  0.00  0.00    +0.011 A 
ATOM     13  O   LIG A   1      -9.452   7.256 130.469  0.00  0.00    -0.480 OA
ATOM     14  C   LIG A   1     -10.704   7.219 129.912  0.00  0.00    +0.136 A 
ATOM     15  C   LIG A   1     -11.472   6.058 129.797  0.00  0.00    +0.062 A 
ATOM     16  C   LIG A   1     -12.737   6.091 129.199  0.00  0.00    +0.019 A 
ATOM     17  C   LIG A   1     -13.249   7.301 128.729  0.00  0.00    +0.046 A 
ATOM     18  C   LIG A   1     -12.490   8.461 128.869  0.00  0.00    +0.120 A 
ATOM     19  C   LIG A   1     -11.227   8.430 129.460  0.00  0.00    +0.091 A 
ENDROOT
BRANCH   9  20
ATOM     20  O   LIG A   1      -6.223   5.483 134.745  0.00  0.00    -0.503 OA
ATOM     21  H   LIG A   1      -6.913   4.847 134.990  0.00  0.00    +0.292 HD
ENDBRANCH   9  20
BRANCH  10  22
ATOM     22  O   LIG A   1      -4.027   6.386 133.529  0.00  0.00    -0.503 OA
ATOM     23  H   LIG A   1      -3.763   5.453 133.661  0.00  0.00    +0.292 HD
ENDBRANCH  10  22
BRANCH  18  24
ATOM     24  O   LIG A   1     -12.958   9.664 128.431  0.00  0.00    -0.507 OA
ATOM     25  H   LIG A   1     -13.927   9.673 128.506  0.00  0.00    +0.292 HD
ENDBRANCH  18  24
TORSDOF 3
ENDMDL
MODEL 5
REMARK VINA RESULT:      -7.1      2.100      6.333
REMARK  Name = NuBBE_1771
REMARK  3 active torsions:
REMARK  status: ('A' for Active; 'I' for Inactive)
REMARK    1  A    between atoms: C_11  and  O_12
REMARK    2  A    between atoms: C_13  and  O_16
REMARK    3  A    between atoms: C_22  and  O_24
REMARK                            x       y       z     vdW  Elec       q    Type
REMARK                         _______ _______ _______ _____ _____    ______ ____
ROOT
ATOM      1  O   LIG A   1      -7.071   4.864 132.550  0.00  0.00    -0.289 OA
ATOM      2  C   LIG A   1      -7.875   4.735 131.629  0.00  0.00    +0.199 C 
ATOM      3  C   LIG A   1      -8.929   5.764 131.308  0.00  0.00    +0.234 C 
ATOM      4  C   LIG A   1      -9.110   5.791 129.791  0.00  0.00    +0.240 C 
ATOM      5  C   LIG A   1     -10.210   6.783 129.460  0.00  0.00    +0.005 A 
ATOM      6  C   LIG A   1     -11.192   7.096 130.432  0.00  0.00    +0.030 A 
ATOM      7  C   LIG A   1     -11.130   6.458 131.802  0.00  0.00    +0.200 C 
ATOM      8  O   LIG A   1     -10.158   5.420 131.945  0.00  0.00    -0.360 OA
ATOM      9  C   LIG A   1     -12.162   8.053 130.110  0.00  0.00    +0.164 A 
ATOM     10  C   LIG A   1     -12.156   8.675 128.860  0.00  0.00    +0.159 A 
ATOM     11  C   LIG A   1     -11.206   8.359 127.903  0.00  0.00    +0.049 A 
ATOM     12  C   LIG A   1     -10.235   7.405 128.198  0.00  0.00    +0.011 A 
ATOM     13  O   LIG A   1      -9.499   4.512 129.260  0.00  0.00    -0.480 OA
ATOM     14  C   LIG A   1      -8.686   3.481 129.656  0.00  0.00    +0.136 A 
ATOM     15  C   LIG A   1      -7.856   3.532 130.779  0.00  0.00    +0.062 A 
ATOM     16  C   LIG A   1      -7.037   2.448 131.114  0.00  0.00    +0.019 A 
ATOM     17  C   LIG A   1      -7.061   1.294 130.331  0.00  0.00    +0.046 A 
ATOM     18  C   LIG A   1      -7.911   1.239 129.228  0.00  0.00    +0.120 A 
ATOM     19  C   LIG A   1      -8.723   2.319 128.888  0.00  0.00    +0.091 A 
ENDROOT
BRANCH   9  20
ATOM     20  O   LIG A   1     -13.148   8.463 130.970  0.00  0.00    -0.503 OA
ATOM     21  H   LIG A   1     -12.763   8.745 131.814  0.00  0.00    +0.292 HD
ENDBRANCH   9  20
BRANCH  10  22
ATOM     22  O   LIG A   1     -13.097   9.623 128.568  0.00  0.00    -0.503 OA
ATOM     23  H   LIG A   1     -12.648  10.474 128.743  0.00  0.00    +0.292 HD
ENDBRANCH  10  22
BRANCH  18  24
ATOM     24  O   LIG A   1      -7.971   0.125 128.443  0.00  0.00    -0.507 OA
ATOM     25  H   LIG A   1      -7.368  -0.547 128.800  0.00  0.00    +0.292 HD
ENDBRANCH  18  24
TORSDOF 3
ENDMDL
MODEL 6
REMARK VINA RESULT:      -7.0      4.361      6.600
REMARK  Name = NuBBE_1771
REMARK  3 active torsions:
REMARK  status: ('A' for Active; 'I' for Inactive)
REMARK    1  A    between atoms: C_11  and  O_12
REMARK    2  A    between atoms: C_13  and  O_16
REMARK    3  A    between atoms: C_22  and  O_24
REMARK                            x       y       z     vdW  Elec       q    Type
REMARK                         _______ _______ _______ _____ _____    ______ ____
ROOT
ATOM      1  O   LIG A   1      -4.981   6.012 133.981  0.00  0.00    -0.289 OA
ATOM      2  C   LIG A   1      -5.338   6.028 132.806  0.00  0.00    +0.199 C 
ATOM      3  C   LIG A   1      -6.771   5.848 132.379  0.00  0.00    +0.234 C 
ATOM      4  C   LIG A   1      -7.010   6.731 131.154  0.00  0.00    +0.240 C 
ATOM      5  C   LIG A   1      -8.435   6.515 130.681  0.00  0.00    +0.005 A 
ATOM      6  C   LIG A   1      -9.105   5.305 130.991  0.00  0.00    +0.030 A 
ATOM      7  C   LIG A   1      -8.405   4.243 131.809  0.00  0.00    +0.200 C 
ATOM      8  O   LIG A   1      -7.018   4.481 132.055  0.00  0.00    -0.360 OA
ATOM      9  C   LIG A   1     -10.436   5.160 130.583  0.00  0.00    +0.164 A 
ATOM     10  C   LIG A   1     -11.078   6.186 129.885  0.00  0.00    +0.159 A 
ATOM     11  C   LIG A   1     -10.421   7.362 129.567  0.00  0.00    +0.049 A 
ATOM     12  C   LIG A   1      -9.094   7.526 129.957  0.00  0.00    +0.011 A 
ATOM     13  O   LIG A   1      -6.131   6.407 130.063  0.00  0.00    -0.480 OA
ATOM     14  C   LIG A   1      -4.806   6.373 130.414  0.00  0.00    +0.136 A 
ATOM     15  C   LIG A   1      -4.353   6.217 131.726  0.00  0.00    +0.062 A 
ATOM     16  C   LIG A   1      -2.983   6.209 132.014  0.00  0.00    +0.019 A 
ATOM     17  C   LIG A   1      -2.057   6.339 130.979  0.00  0.00    +0.046 A 
ATOM     18  C   LIG A   1      -2.515   6.468 129.670  0.00  0.00    +0.120 A 
ATOM     19  C   LIG A   1      -3.878   6.481 129.380  0.00  0.00    +0.091 A 
ENDROOT
BRANCH   9  20
ATOM     20  O   LIG A   1     -11.201   4.052 130.843  0.00  0.00    -0.503 OA
ATOM     21  H   LIG A   1     -11.547   4.088 131.748  0.00  0.00    +0.292 HD
ENDBRANCH   9  20
BRANCH  10  22
ATOM     22  O   LIG A   1     -12.385   6.038 129.511  0.00  0.00    -0.503 OA
ATOM     23  H   LIG A   1     -12.437   5.125 129.163  0.00  0.00    +0.292 HD
ENDBRANCH  10  22
BRANCH  18  24
ATOM     24  O   LIG A   1      -1.642   6.588 128.629  0.00  0.00    -0.507 OA
ATOM     25  H   LIG A   1      -2.143   6.741 127.811  0.00  0.00    +0.292 HD
ENDBRANCH  18  24
TORSDOF 3
ENDMDL
MODEL 7
REMARK VINA RESULT:      -7.0      8.830      9.676
REMARK  Name = NuBBE_1771
REMARK  3 active torsions:
REMARK  status: ('A' for Active; 'I' for Inactive)
REMARK    1  A    between atoms: C_11  and  O_12
REMARK    2  A    between atoms: C_13  and  O_16
REMARK    3  A    between atoms: C_22  and  O_24
REMARK                            x       y       z     vdW  Elec       q    Type
REMARK                         _______ _______ _______ _____ _____    ______ ____
ROOT
ATOM      1  O   LIG A   1      -5.299  -0.073 125.744  0.00  0.00    -0.289 OA
ATOM      2  C   LIG A   1      -5.949  -0.980 126.258  0.00  0.00    +0.199 C 
ATOM      3  C   LIG A   1      -5.662  -1.518 127.635  0.00  0.00    +0.234 C 
ATOM      4  C   LIG A   1      -6.997  -1.894 128.278  0.00  0.00    +0.240 C 
ATOM      5  C   LIG A   1      -6.716  -2.491 129.645  0.00  0.00    +0.005 A 
ATOM      6  C   LIG A   1      -5.456  -3.084 129.910  0.00  0.00    +0.030 A 
ATOM      7  C   LIG A   1      -4.389  -3.101 128.838  0.00  0.00    +0.200 C 
ATOM      8  O   LIG A   1      -4.818  -2.665 127.546  0.00  0.00    -0.360 OA
ATOM      9  C   LIG A   1      -5.213  -3.579 131.196  0.00  0.00    +0.164 A 
ATOM     10  C   LIG A   1      -6.194  -3.490 132.186  0.00  0.00    +0.159 A 
ATOM     11  C   LIG A   1      -7.432  -2.926 131.926  0.00  0.00    +0.049 A 
ATOM     12  C   LIG A   1      -7.698  -2.433 130.651  0.00  0.00    +0.011 A 
ATOM     13  O   LIG A   1      -7.721  -2.873 127.513  0.00  0.00    -0.480 OA
ATOM     14  C   LIG A   1      -7.870  -2.538 126.192  0.00  0.00    +0.136 A 
ATOM     15  C   LIG A   1      -7.063  -1.611 125.528  0.00  0.00    +0.062 A 
ATOM     16  C   LIG A   1      -7.285  -1.303 124.181  0.00  0.00    +0.019 A 
ATOM     17  C   LIG A   1      -8.311  -1.942 123.485  0.00  0.00    +0.046 A 
ATOM     18  C   LIG A   1      -9.096  -2.885 124.145  0.00  0.00    +0.120 A 
ATOM     19  C   LIG A   1      -8.881  -3.190 125.488  0.00  0.00    +0.091 A 
ENDROOT
BRANCH   9  20
ATOM     20  O   LIG A   1      -4.029  -4.150 131.587  0.00  0.00    -0.503 OA
ATOM     21  H   LIG A   1      -3.424  -4.220 130.832  0.00  0.00    +0.292 HD
ENDBRANCH   9  20
BRANCH  10  22
ATOM     22  O   LIG A   1      -5.934  -3.960 133.445  0.00  0.00    -0.503 OA
ATOM     23  H   LIG A   1      -6.608  -3.530 134.009  0.00  0.00    +0.292 HD
ENDBRANCH  10  22
BRANCH  18  24
ATOM     24  O   LIG A   1     -10.103  -3.538 123.497  0.00  0.00    -0.507 OA
ATOM     25  H   LIG A   1     -10.947  -3.107 123.708  0.00  0.00    +0.292 HD
ENDBRANCH  18  24
TORSDOF 3
ENDMDL
MODEL 8
REMARK VINA RESULT:      -7.0      7.248      9.709
REMARK  Name = NuBBE_1771
REMARK  3 active torsions:
REMARK  status: ('A' for Active; 'I' for Inactive)
REMARK    1  A    between atoms: C_11  and  O_12
REMARK    2  A    between atoms: C_13  and  O_16
REMARK    3  A    between atoms: C_22  and  O_24
REMARK                            x       y       z     vdW  Elec       q    Type
REMARK                         _______ _______ _______ _____ _____    ______ ____
ROOT
ATOM      1  O   LIG A   1      -9.805  -0.671 125.498  0.00  0.00    -0.289 OA
ATOM      2  C   LIG A   1      -8.616  -0.389 125.372  0.00  0.00    +0.199 C 
ATOM      3  C   LIG A   1      -8.075   1.002 125.576  0.00  0.00    +0.234 C 
ATOM      4  C   LIG A   1      -6.685   0.877 126.200  0.00  0.00    +0.240 C 
ATOM      5  C   LIG A   1      -6.106   2.271 126.357  0.00  0.00    +0.005 A 
ATOM      6  C   LIG A   1      -6.565   3.322 125.525  0.00  0.00    +0.030 A 
ATOM      7  C   LIG A   1      -7.644   3.058 124.499  0.00  0.00    +0.200 C 
ATOM      8  O   LIG A   1      -7.993   1.683 124.325  0.00  0.00    -0.360 OA
ATOM      9  C   LIG A   1      -6.047   4.606 125.731  0.00  0.00    +0.164 A 
ATOM     10  C   LIG A   1      -5.098   4.835 126.731  0.00  0.00    +0.159 A 
ATOM     11  C   LIG A   1      -4.636   3.806 127.535  0.00  0.00    +0.049 A 
ATOM     12  C   LIG A   1      -5.134   2.519 127.343  0.00  0.00    +0.011 A 
ATOM     13  O   LIG A   1      -5.780   0.116 125.381  0.00  0.00    -0.480 OA
ATOM     14  C   LIG A   1      -6.277  -1.104 124.999  0.00  0.00    +0.136 A 
ATOM     15  C   LIG A   1      -7.636  -1.423 124.995  0.00  0.00    +0.062 A 
ATOM     16  C   LIG A   1      -8.071  -2.697 124.610  0.00  0.00    +0.019 A 
ATOM     17  C   LIG A   1      -7.140  -3.654 124.206  0.00  0.00    +0.046 A 
ATOM     18  C   LIG A   1      -5.788  -3.321 124.187  0.00  0.00    +0.120 A 
ATOM     19  C   LIG A   1      -5.351  -2.055 124.576  0.00  0.00    +0.091 A 
ENDROOT
BRANCH   9  20
ATOM     20  O   LIG A   1      -6.427   5.711 125.013  0.00  0.00    -0.503 OA
ATOM     21  H   LIG A   1      -6.460   6.490 125.589  0.00  0.00    +0.292 HD
ENDBRANCH   9  20
BRANCH  10  22
ATOM     22  O   LIG A   1      -4.617   6.098 126.934  0.00  0.00    -0.503 OA
ATOM     23  H   LIG A   1      -5.088   6.414 127.731  0.00  0.00    +0.292 HD
ENDBRANCH  10  22
BRANCH  18  24
ATOM     24  O   LIG A   1      -4.847  -4.225 123.791  0.00  0.00    -0.507 OA
ATOM     25  H   LIG A   1      -4.539  -3.991 122.899  0.00  0.00    +0.292 HD
ENDBRANCH  18  24
TORSDOF 3
ENDMDL
MODEL 9
REMARK VINA RESULT:      -6.7      8.686     10.948
REMARK  Name = NuBBE_1771
REMARK  3 active torsions:
REMARK  status: ('A' for Active; 'I' for Inactive)
REMARK    1  A    between atoms: C_11  and  O_12
REMARK    2  A    between atoms: C_13  and  O_16
REMARK    3  A    between atoms: C_22  and  O_24
REMARK                            x       y       z     vdW  Elec       q    Type
REMARK                         _______ _______ _______ _____ _____    ______ ____
ROOT
ATOM      1  O   LIG A   1      -3.483  -3.661 130.984  0.00  0.00    -0.289 OA
ATOM      2  C   LIG A   1      -4.658  -3.307 130.932  0.00  0.00    +0.199 C 
ATOM      3  C   LIG A   1      -5.367  -2.995 129.640  0.00  0.00    +0.234 C 
ATOM      4  C   LIG A   1      -6.819  -3.450 129.780  0.00  0.00    +0.240 C 
ATOM      5  C   LIG A   1      -7.558  -3.090 128.504  0.00  0.00    +0.005 A 
ATOM      6  C   LIG A   1      -7.080  -2.033 127.689  0.00  0.00    +0.030 A 
ATOM      7  C   LIG A   1      -5.826  -1.284 128.080  0.00  0.00    +0.200 C 
ATOM      8  O   LIG A   1      -5.313  -1.594 129.377  0.00  0.00    -0.360 OA
ATOM      9  C   LIG A   1      -7.756  -1.761 126.494  0.00  0.00    +0.164 A 
ATOM     10  C   LIG A   1      -8.874  -2.514 126.124  0.00  0.00    +0.159 A 
ATOM     11  C   LIG A   1      -9.351  -3.535 126.927  0.00  0.00    +0.049 A 
ATOM     12  C   LIG A   1      -8.699  -3.820 128.125  0.00  0.00    +0.011 A 
ATOM     13  O   LIG A   1      -7.494  -2.806 130.875  0.00  0.00    -0.480 OA
ATOM     14  C   LIG A   1      -6.818  -2.890 132.064  0.00  0.00    +0.136 A 
ATOM     15  C   LIG A   1      -5.451  -3.154 132.165  0.00  0.00    +0.062 A 
ATOM     16  C   LIG A   1      -4.829  -3.244 133.416  0.00  0.00    +0.019 A 
ATOM     17  C   LIG A   1      -5.577  -3.049 134.577  0.00  0.00    +0.046 A 
ATOM     18  C   LIG A   1      -6.935  -2.760 134.469  0.00  0.00    +0.120 A 
ATOM     19  C   LIG A   1      -7.559  -2.675 133.225  0.00  0.00    +0.091 A 
ENDROOT
BRANCH   9  20
ATOM     20  O   LIG A   1      -7.380  -0.786 125.605  0.00  0.00    -0.503 OA
ATOM     21  H   LIG A   1      -6.413  -0.722 125.566  0.00  0.00    +0.292 HD
ENDBRANCH   9  20
BRANCH  10  22
ATOM     22  O   LIG A   1      -9.511  -2.249 124.943  0.00  0.00    -0.503 OA
ATOM     23  H   LIG A   1      -8.869  -1.714 124.435  0.00  0.00    +0.292 HD
ENDBRANCH  10  22
BRANCH  18  24
ATOM     24  O   LIG A   1      -7.699  -2.553 135.580  0.00  0.00    -0.507 OA
ATOM     25  H   LIG A   1      -7.345  -3.086 136.311  0.00  0.00    +0.292 HD
ENDBRANCH  18  24
TORSDOF 3
ENDMDL
