MODEL 1
REMARK VINA RESULT:      -8.1      0.000      0.000
REMARK  Name = NuBBE_585
REMARK  6 active torsions:
REMARK  status: ('A' for Active; 'I' for Inactive)
REMARK    1  A    between atoms: O_1  and  C_2
REMARK    2  A    between atoms: C_5  and  C_7
REMARK    3  A    between atoms: C_7  and  C_8
REMARK    4  A    between atoms: C_17  and  C_22
REMARK    5  A    between atoms: C_19  and  O_21
REMARK    6  A    between atoms: C_23  and  C_24
REMARK                            x       y       z     vdW  Elec       q    Type
REMARK                         _______ _______ _______ _____ _____    ______ ____
ROOT
ATOM      1  C   LIG A   1      -8.226   1.985 126.694  0.00  0.00    +0.148 C 
ATOM      2  C   LIG A   1      -6.799   1.498 126.910  0.00  0.00    +0.065 C 
ATOM      3  C   LIG A   1      -6.230   0.805 125.670  0.00  0.00    +0.125 C 
ATOM      4  O   LIG A   1      -6.390   1.633 124.518  0.00  0.00    -0.366 OA
ATOM      5  C   LIG A   1      -7.728   2.071 124.234  0.00  0.00    +0.172 C 
ATOM      6  C   LIG A   1      -8.324   2.846 125.429  0.00  0.00    +0.175 C 
ENDROOT
BRANCH   1   7
ATOM      7  O   LIG A   1      -8.630   2.752 127.830  0.00  0.00    -0.389 OA
ATOM      8  H   LIG A   1      -7.824   2.849 128.381  0.00  0.00    +0.210 HD
ENDBRANCH   1   7
BRANCH   6   9
ATOM      9  O   LIG A   1      -7.628   4.082 125.690  0.00  0.00    -0.386 OA
ATOM     10  H   LIG A   1      -8.221   4.808 125.411  0.00  0.00    +0.210 HD
ENDBRANCH   6   9
BRANCH   5  11
ATOM     11  C   LIG A   1      -7.704   2.899 122.968  0.00  0.00    +0.007 C 
ATOM     12  C   LIG A   1      -6.591   3.226 122.288  0.00  0.00    +0.006 C 
BRANCH  12  13
ATOM     13  C   LIG A   1      -6.531   3.958 121.013  0.00  0.00    -0.025 A 
ATOM     14  C   LIG A   1      -5.359   4.665 120.704  0.00  0.00    +0.008 A 
ATOM     15  C   LIG A   1      -5.239   5.359 119.497  0.00  0.00    +0.001 A 
ATOM     16  C   LIG A   1      -6.287   5.349 118.582  0.00  0.00    +0.000 A 
ATOM     17  C   LIG A   1      -7.444   4.627 118.859  0.00  0.00    +0.001 A 
ATOM     18  C   LIG A   1      -7.562   3.928 120.065  0.00  0.00    +0.008 A 
ENDBRANCH  12  13
ENDBRANCH   5  11
BRANCH   3  19
ATOM     19  C   LIG A   1      -6.758  -0.627 125.460  0.00  0.00    +0.076 C 
BRANCH  19  20
ATOM     20  C   LIG A   1      -6.560  -1.206 124.040  0.00  0.00    +0.183 C 
ATOM     21  O   LIG A   1      -7.872  -1.357 123.427  0.00  0.00    -0.458 OA
ATOM     22  C   LIG A   1      -8.629  -2.465 123.626  0.00  0.00    +0.332 C 
ATOM     23  C   LIG A   1      -7.942  -3.643 124.194  0.00  0.00    +0.087 C 
ATOM     24  C   LIG A   1      -6.610  -3.688 124.311  0.00  0.00    -0.016 C 
ATOM     25  C   LIG A   1      -5.768  -2.512 123.938  0.00  0.00    +0.072 C 
ATOM     26  O   LIG A   1      -9.810  -2.522 123.328  0.00  0.00    -0.246 OA
ENDBRANCH  19  20
ENDBRANCH   3  19
TORSDOF 6
ENDMDL
MODEL 2
REMARK VINA RESULT:      -7.8      8.960     10.851
REMARK  Name = NuBBE_585
REMARK  6 active torsions:
REMARK  status: ('A' for Active; 'I' for Inactive)
REMARK    1  A    between atoms: O_1  and  C_2
REMARK    2  A    between atoms: C_5  and  C_7
REMARK    3  A    between atoms: C_7  and  C_8
REMARK    4  A    between atoms: C_17  and  C_22
REMARK    5  A    between atoms: C_19  and  O_21
REMARK    6  A    between atoms: C_23  and  C_24
REMARK                            x       y       z     vdW  Elec       q    Type
REMARK                         _______ _______ _______ _____ _____    ______ ____
ROOT
ATOM      1  C   LIG A   1      -9.429   5.241 132.688  0.00  0.00    +0.148 C 
ATOM      2  C   LIG A   1      -9.969   4.771 131.342  0.00  0.00    +0.065 C 
ATOM      3  C   LIG A   1      -9.532   5.682 130.193  0.00  0.00    +0.125 C 
ATOM      4  O   LIG A   1      -8.117   5.868 130.215  0.00  0.00    -0.366 OA
ATOM      5  C   LIG A   1      -7.562   6.368 131.442  0.00  0.00    +0.172 C 
ATOM      6  C   LIG A   1      -7.910   5.441 132.627  0.00  0.00    +0.175 C 
ENDROOT
BRANCH   1   7
ATOM      7  O   LIG A   1      -9.746   4.264 133.680  0.00  0.00    -0.389 OA
ATOM      8  H   LIG A   1      -9.062   3.566 133.591  0.00  0.00    +0.210 HD
ENDBRANCH   1   7
BRANCH   6   9
ATOM      9  O   LIG A   1      -7.305   4.137 132.507  0.00  0.00    -0.386 OA
ATOM     10  H   LIG A   1      -6.970   3.896 133.393  0.00  0.00    +0.210 HD
ENDBRANCH   6   9
BRANCH   5  11
ATOM     11  C   LIG A   1      -6.069   6.533 131.262  0.00  0.00    +0.007 C 
ATOM     12  C   LIG A   1      -5.183   6.634 132.270  0.00  0.00    +0.006 C 
BRANCH  12  13
ATOM     13  C   LIG A   1      -3.720   6.713 132.140  0.00  0.00    -0.025 A 
ATOM     14  C   LIG A   1      -2.971   7.103 133.260  0.00  0.00    +0.008 A 
ATOM     15  C   LIG A   1      -1.577   7.175 133.200  0.00  0.00    +0.001 A 
ATOM     16  C   LIG A   1      -0.914   6.850 132.020  0.00  0.00    +0.000 A 
ATOM     17  C   LIG A   1      -1.640   6.431 130.909  0.00  0.00    +0.001 A 
ATOM     18  C   LIG A   1      -3.035   6.355 130.971  0.00  0.00    +0.008 A 
ENDBRANCH  12  13
ENDBRANCH   5  11
BRANCH   3  19
ATOM     19  C   LIG A   1     -10.312   7.007 130.119  0.00  0.00    +0.076 C 
BRANCH  19  20
ATOM     20  C   LIG A   1     -11.852   6.871 130.089  0.00  0.00    +0.183 C 
ATOM     21  O   LIG A   1     -12.233   6.324 128.794  0.00  0.00    -0.458 OA
ATOM     22  C   LIG A   1     -12.418   7.120 127.711  0.00  0.00    +0.332 C 
ATOM     23  C   LIG A   1     -12.559   8.567 127.969  0.00  0.00    +0.087 C 
ATOM     24  C   LIG A   1     -12.706   9.047 129.209  0.00  0.00    -0.016 C 
ATOM     25  C   LIG A   1     -12.657   8.137 130.392  0.00  0.00    +0.072 C 
ATOM     26  O   LIG A   1     -12.502   6.683 126.575  0.00  0.00    -0.246 OA
ENDBRANCH  19  20
ENDBRANCH   3  19
TORSDOF 6
ENDMDL
MODEL 3
REMARK VINA RESULT:      -7.7      3.016      5.032
REMARK  Name = NuBBE_585
REMARK  6 active torsions:
REMARK  status: ('A' for Active; 'I' for Inactive)
REMARK    1  A    between atoms: O_1  and  C_2
REMARK    2  A    between atoms: C_5  and  C_7
REMARK    3  A    between atoms: C_7  and  C_8
REMARK    4  A    between atoms: C_17  and  C_22
REMARK    5  A    between atoms: C_19  and  O_21
REMARK    6  A    between atoms: C_23  and  C_24
REMARK                            x       y       z     vdW  Elec       q    Type
REMARK                         _______ _______ _______ _____ _____    ______ ____
ROOT
ATOM      1  C   LIG A   1      -8.364   2.660 122.364  0.00  0.00    +0.148 C 
ATOM      2  C   LIG A   1      -9.512   1.983 123.104  0.00  0.00    +0.065 C 
ATOM      3  C   LIG A   1      -9.021   0.897 124.064  0.00  0.00    +0.125 C 
ATOM      4  O   LIG A   1      -8.004   1.413 124.923  0.00  0.00    -0.366 OA
ATOM      5  C   LIG A   1      -6.869   2.008 124.274  0.00  0.00    +0.172 C 
ATOM      6  C   LIG A   1      -7.302   3.166 123.348  0.00  0.00    +0.175 C 
ENDROOT
BRANCH   1   7
ATOM      7  O   LIG A   1      -8.883   3.757 121.611  0.00  0.00    -0.389 OA
ATOM      8  H   LIG A   1      -9.671   3.405 121.143  0.00  0.00    +0.210 HD
ENDBRANCH   1   7
BRANCH   6   9
ATOM      9  O   LIG A   1      -7.876   4.272 124.075  0.00  0.00    -0.386 OA
ATOM     10  H   LIG A   1      -8.641   3.920 124.572  0.00  0.00    +0.210 HD
ENDBRANCH   6   9
BRANCH   5  11
ATOM     11  C   LIG A   1      -5.891   2.460 125.336  0.00  0.00    +0.007 C 
ATOM     12  C   LIG A   1      -5.078   3.526 125.225  0.00  0.00    +0.006 C 
BRANCH  12  13
ATOM     13  C   LIG A   1      -4.173   4.045 126.263  0.00  0.00    -0.025 A 
ATOM     14  C   LIG A   1      -4.551   5.203 126.957  0.00  0.00    +0.008 A 
ATOM     15  C   LIG A   1      -3.741   5.728 127.968  0.00  0.00    +0.001 A 
ATOM     16  C   LIG A   1      -2.547   5.096 128.301  0.00  0.00    +0.000 A 
ATOM     17  C   LIG A   1      -2.173   3.928 127.643  0.00  0.00    +0.001 A 
ATOM     18  C   LIG A   1      -2.987   3.400 126.635  0.00  0.00    +0.008 A 
ENDBRANCH  12  13
ENDBRANCH   5  11
BRANCH   3  19
ATOM     19  C   LIG A   1      -8.611  -0.412 123.365  0.00  0.00    +0.076 C 
BRANCH  19  20
ATOM     20  C   LIG A   1      -9.384  -1.675 123.813  0.00  0.00    +0.183 C 
ATOM     21  O   LIG A   1      -9.457  -1.668 125.267  0.00  0.00    -0.458 OA
ATOM     22  C   LIG A   1      -8.458  -2.173 126.033  0.00  0.00    +0.332 C 
ATOM     23  C   LIG A   1      -7.468  -3.030 125.350  0.00  0.00    +0.087 C 
ATOM     24  C   LIG A   1      -7.657  -3.457 124.096  0.00  0.00    -0.016 C 
ATOM     25  C   LIG A   1      -8.849  -3.018 123.310  0.00  0.00    +0.072 C 
ATOM     26  O   LIG A   1      -8.378  -1.972 127.233  0.00  0.00    -0.246 OA
ENDBRANCH  19  20
ENDBRANCH   3  19
TORSDOF 6
ENDMDL
MODEL 4
REMARK VINA RESULT:      -7.7      3.571      5.891
REMARK  Name = NuBBE_585
REMARK  6 active torsions:
REMARK  status: ('A' for Active; 'I' for Inactive)
REMARK    1  A    between atoms: O_1  and  C_2
REMARK    2  A    between atoms: C_5  and  C_7
REMARK    3  A    between atoms: C_7  and  C_8
REMARK    4  A    between atoms: C_17  and  C_22
REMARK    5  A    between atoms: C_19  and  O_21
REMARK    6  A    between atoms: C_23  and  C_24
REMARK                            x       y       z     vdW  Elec       q    Type
REMARK                         _______ _______ _______ _____ _____    ______ ____
ROOT
ATOM      1  C   LIG A   1      -6.200   3.371 123.012  0.00  0.00    +0.148 C 
ATOM      2  C   LIG A   1      -7.533   2.737 123.391  0.00  0.00    +0.065 C 
ATOM      3  C   LIG A   1      -7.427   1.879 124.653  0.00  0.00    +0.125 C 
ATOM      4  O   LIG A   1      -6.817   2.619 125.711  0.00  0.00    -0.366 OA
ATOM      5  C   LIG A   1      -5.529   3.187 125.424  0.00  0.00    +0.172 C 
ATOM      6  C   LIG A   1      -5.596   4.127 124.201  0.00  0.00    +0.175 C 
ENDROOT
BRANCH   1   7
ATOM      7  O   LIG A   1      -6.410   4.274 121.924  0.00  0.00    -0.389 OA
ATOM      8  H   LIG A   1      -7.257   3.997 121.513  0.00  0.00    +0.210 HD
ENDBRANCH   1   7
BRANCH   6   9
ATOM      9  O   LIG A   1      -6.416   5.289 124.439  0.00  0.00    -0.386 OA
ATOM     10  H   LIG A   1      -6.979   5.087 125.212  0.00  0.00    +0.210 HD
ENDBRANCH   6   9
BRANCH   5  11
ATOM     11  C   LIG A   1      -5.030   3.896 126.664  0.00  0.00    +0.007 C 
ATOM     12  C   LIG A   1      -3.775   3.814 127.141  0.00  0.00    +0.006 C 
BRANCH  12  13
ATOM     13  C   LIG A   1      -3.229   4.549 128.293  0.00  0.00    -0.025 A 
ATOM     14  C   LIG A   1      -2.595   5.778 128.059  0.00  0.00    +0.008 A 
ATOM     15  C   LIG A   1      -2.078   6.529 129.118  0.00  0.00    +0.001 A 
ATOM     16  C   LIG A   1      -2.195   6.063 130.424  0.00  0.00    +0.000 A 
ATOM     17  C   LIG A   1      -2.849   4.860 130.675  0.00  0.00    +0.001 A 
ATOM     18  C   LIG A   1      -3.371   4.111 129.616  0.00  0.00    +0.008 A 
ENDBRANCH  12  13
ENDBRANCH   5  11
BRANCH   3  19
ATOM     19  C   LIG A   1      -6.766   0.507 124.419  0.00  0.00    +0.076 C 
BRANCH  19  20
ATOM     20  C   LIG A   1      -7.445  -0.383 123.352  0.00  0.00    +0.183 C 
ATOM     21  O   LIG A   1      -8.680  -0.906 123.918  0.00  0.00    -0.458 OA
ATOM     22  C   LIG A   1      -8.696  -2.033 124.673  0.00  0.00    +0.332 C 
ATOM     23  C   LIG A   1      -7.494  -2.889 124.613  0.00  0.00    +0.087 C 
ATOM     24  C   LIG A   1      -6.529  -2.679 123.709  0.00  0.00    -0.016 C 
ATOM     25  C   LIG A   1      -6.598  -1.519 122.771  0.00  0.00    +0.072 C 
ATOM     26  O   LIG A   1      -9.656  -2.363 125.349  0.00  0.00    -0.246 OA
ENDBRANCH  19  20
ENDBRANCH   3  19
TORSDOF 6
ENDMDL
MODEL 5
REMARK VINA RESULT:      -7.6      2.617      6.527
REMARK  Name = NuBBE_585
REMARK  6 active torsions:
REMARK  status: ('A' for Active; 'I' for Inactive)
REMARK    1  A    between atoms: O_1  and  C_2
REMARK    2  A    between atoms: C_5  and  C_7
REMARK    3  A    between atoms: C_7  and  C_8
REMARK    4  A    between atoms: C_17  and  C_22
REMARK    5  A    between atoms: C_19  and  O_21
REMARK    6  A    between atoms: C_23  and  C_24
REMARK                            x       y       z     vdW  Elec       q    Type
REMARK                         _______ _______ _______ _____ _____    ______ ____
ROOT
ATOM      1  C   LIG A   1      -7.416   2.821 123.653  0.00  0.00    +0.148 C 
ATOM      2  C   LIG A   1      -8.251   1.600 123.286  0.00  0.00    +0.065 C 
ATOM      3  C   LIG A   1      -8.119   0.477 124.317  0.00  0.00    +0.125 C 
ATOM      4  O   LIG A   1      -8.370   0.976 125.631  0.00  0.00    -0.366 OA
ATOM      5  C   LIG A   1      -7.566   2.090 126.050  0.00  0.00    +0.172 C 
ATOM      6  C   LIG A   1      -7.722   3.283 125.082  0.00  0.00    +0.175 C 
ENDROOT
BRANCH   1   7
ATOM      7  O   LIG A   1      -7.709   3.875 122.733  0.00  0.00    -0.389 OA
ATOM      8  H   LIG A   1      -8.444   4.381 123.140  0.00  0.00    +0.210 HD
ENDBRANCH   1   7
BRANCH   6   9
ATOM      9  O   LIG A   1      -9.057   3.828 125.086  0.00  0.00    -0.386 OA
ATOM     10  H   LIG A   1      -9.502   3.487 125.886  0.00  0.00    +0.210 HD
ENDBRANCH   6   9
BRANCH   5  11
ATOM     11  C   LIG A   1      -7.946   2.450 127.470  0.00  0.00    +0.007 C 
ATOM     12  C   LIG A   1      -8.568   1.624 128.329  0.00  0.00    +0.006 C 
BRANCH  12  13
ATOM     13  C   LIG A   1      -8.882   1.906 129.739  0.00  0.00    -0.025 A 
ATOM     14  C   LIG A   1      -8.551   0.942 130.701  0.00  0.00    +0.008 A 
ATOM     15  C   LIG A   1      -8.805   1.166 132.057  0.00  0.00    +0.001 A 
ATOM     16  C   LIG A   1      -9.387   2.362 132.467  0.00  0.00    +0.000 A 
ATOM     17  C   LIG A   1      -9.693   3.342 131.527  0.00  0.00    +0.001 A 
ATOM     18  C   LIG A   1      -9.434   3.119 130.171  0.00  0.00    +0.008 A 
ENDBRANCH  12  13
ENDBRANCH   5  11
BRANCH   3  19
ATOM     19  C   LIG A   1      -6.800  -0.311 124.214  0.00  0.00    +0.076 C 
BRANCH  19  20
ATOM     20  C   LIG A   1      -6.737  -1.353 123.074  0.00  0.00    +0.183 C 
ATOM     21  O   LIG A   1      -8.087  -1.847 122.837  0.00  0.00    -0.458 OA
ATOM     22  C   LIG A   1      -8.609  -2.869 123.560  0.00  0.00    +0.332 C 
ATOM     23  C   LIG A   1      -7.656  -3.680 124.344  0.00  0.00    +0.087 C 
ATOM     24  C   LIG A   1      -6.333  -3.551 124.191  0.00  0.00    -0.016 C 
ATOM     25  C   LIG A   1      -5.767  -2.522 123.268  0.00  0.00    +0.072 C 
ATOM     26  O   LIG A   1      -9.796  -3.146 123.552  0.00  0.00    -0.246 OA
ENDBRANCH  19  20
ENDBRANCH   3  19
TORSDOF 6
ENDMDL
MODEL 6
REMARK VINA RESULT:      -7.5      3.605      7.467
REMARK  Name = NuBBE_585
REMARK  6 active torsions:
REMARK  status: ('A' for Active; 'I' for Inactive)
REMARK    1  A    between atoms: O_1  and  C_2
REMARK    2  A    between atoms: C_5  and  C_7
REMARK    3  A    between atoms: C_7  and  C_8
REMARK    4  A    between atoms: C_17  and  C_22
REMARK    5  A    between atoms: C_19  and  O_21
REMARK    6  A    between atoms: C_23  and  C_24
REMARK                            x       y       z     vdW  Elec       q    Type
REMARK                         _______ _______ _______ _____ _____    ______ ____
ROOT
ATOM      1  C   LIG A   1      -7.502   4.782 125.750  0.00  0.00    +0.148 C 
ATOM      2  C   LIG A   1      -6.275   5.240 124.971  0.00  0.00    +0.065 C 
ATOM      3  C   LIG A   1      -5.168   4.183 124.960  0.00  0.00    +0.125 C 
ATOM      4  O   LIG A   1      -5.687   2.923 124.533  0.00  0.00    -0.366 OA
ATOM      5  C   LIG A   1      -6.809   2.416 125.274  0.00  0.00    +0.172 C 
ATOM      6  C   LIG A   1      -7.986   3.415 125.253  0.00  0.00    +0.175 C 
ENDROOT
BRANCH   1   7
ATOM      7  O   LIG A   1      -8.541   5.749 125.586  0.00  0.00    -0.389 OA
ATOM      8  H   LIG A   1      -9.372   5.233 125.518  0.00  0.00    +0.210 HD
ENDBRANCH   1   7
BRANCH   6   9
ATOM      9  O   LIG A   1      -8.530   3.602 123.931  0.00  0.00    -0.386 OA
ATOM     10  H   LIG A   1      -8.279   2.816 123.406  0.00  0.00    +0.210 HD
ENDBRANCH   6   9
BRANCH   5  11
ATOM     11  C   LIG A   1      -7.191   1.068 124.705  0.00  0.00    +0.007 C 
ATOM     12  C   LIG A   1      -8.043   0.204 125.287  0.00  0.00    +0.006 C 
BRANCH  12  13
ATOM     13  C   LIG A   1      -8.502  -1.077 124.729  0.00  0.00    -0.025 A 
ATOM     14  C   LIG A   1      -9.018  -2.040 125.609  0.00  0.00    +0.008 A 
ATOM     15  C   LIG A   1      -9.490  -3.266 125.132  0.00  0.00    +0.001 A 
ATOM     16  C   LIG A   1      -9.458  -3.541 123.768  0.00  0.00    +0.000 A 
ATOM     17  C   LIG A   1      -8.978  -2.583 122.879  0.00  0.00    +0.001 A 
ATOM     18  C   LIG A   1      -8.511  -1.354 123.356  0.00  0.00    +0.008 A 
ENDBRANCH  12  13
ENDBRANCH   5  11
BRANCH   3  19
ATOM     19  C   LIG A   1      -4.380   4.094 126.280  0.00  0.00    +0.076 C 
BRANCH  19  20
ATOM     20  C   LIG A   1      -4.904   4.988 127.428  0.00  0.00    +0.183 C 
ATOM     21  O   LIG A   1      -4.089   6.194 127.469  0.00  0.00    -0.458 OA
ATOM     22  C   LIG A   1      -2.917   6.239 128.151  0.00  0.00    +0.332 C 
ATOM     23  C   LIG A   1      -2.672   5.152 129.119  0.00  0.00    +0.087 C 
ATOM     24  C   LIG A   1      -3.634   4.287 129.461  0.00  0.00    -0.016 C 
ATOM     25  C   LIG A   1      -4.979   4.345 128.815  0.00  0.00    +0.072 C 
ATOM     26  O   LIG A   1      -2.106   7.140 128.013  0.00  0.00    -0.246 OA
ENDBRANCH  19  20
ENDBRANCH   3  19
TORSDOF 6
ENDMDL
MODEL 7
REMARK VINA RESULT:      -7.5      8.881     10.109
REMARK  Name = NuBBE_585
REMARK  6 active torsions:
REMARK  status: ('A' for Active; 'I' for Inactive)
REMARK    1  A    between atoms: O_1  and  C_2
REMARK    2  A    between atoms: C_5  and  C_7
REMARK    3  A    between atoms: C_7  and  C_8
REMARK    4  A    between atoms: C_17  and  C_22
REMARK    5  A    between atoms: C_19  and  O_21
REMARK    6  A    between atoms: C_23  and  C_24
REMARK                            x       y       z     vdW  Elec       q    Type
REMARK                         _______ _______ _______ _____ _____    ______ ____
ROOT
ATOM      1  C   LIG A   1      -7.803   3.838 132.754  0.00  0.00    +0.148 C 
ATOM      2  C   LIG A   1      -7.063   5.024 133.359  0.00  0.00    +0.065 C 
ATOM      3  C   LIG A   1      -6.938   6.191 132.378  0.00  0.00    +0.125 C 
ATOM      4  O   LIG A   1      -8.215   6.524 131.832  0.00  0.00    -0.366 OA
ATOM      5  C   LIG A   1      -8.929   5.453 131.195  0.00  0.00    +0.172 C 
ATOM      6  C   LIG A   1      -9.151   4.276 132.169  0.00  0.00    +0.175 C 
ENDROOT
BRANCH   1   7
ATOM      7  O   LIG A   1      -8.015   2.857 133.771  0.00  0.00    -0.389 OA
ATOM      8  H   LIG A   1      -8.690   3.242 134.370  0.00  0.00    +0.210 HD
ENDBRANCH   1   7
BRANCH   6   9
ATOM      9  O   LIG A   1     -10.011   4.625 133.273  0.00  0.00    -0.386 OA
ATOM     10  H   LIG A   1      -9.804   5.549 133.514  0.00  0.00    +0.210 HD
ENDBRANCH   6   9
BRANCH   5  11
ATOM     11  C   LIG A   1     -10.230   6.000 130.651  0.00  0.00    +0.007 C 
ATOM     12  C   LIG A   1     -10.325   6.957 129.710  0.00  0.00    +0.006 C 
BRANCH  12  13
ATOM     13  C   LIG A   1     -11.566   7.458 129.098  0.00  0.00    -0.025 A 
ATOM     14  C   LIG A   1     -11.921   8.798 129.311  0.00  0.00    +0.008 A 
ATOM     15  C   LIG A   1     -13.077   9.332 128.736  0.00  0.00    +0.001 A 
ATOM     16  C   LIG A   1     -13.887   8.535 127.934  0.00  0.00    +0.000 A 
ATOM     17  C   LIG A   1     -13.532   7.212 127.686  0.00  0.00    +0.001 A 
ATOM     18  C   LIG A   1     -12.373   6.679 128.259  0.00  0.00    +0.008 A 
ENDBRANCH  12  13
ENDBRANCH   5  11
BRANCH   3  19
ATOM     19  C   LIG A   1      -5.858   5.983 131.299  0.00  0.00    +0.076 C 
BRANCH  19  20
ATOM     20  C   LIG A   1      -4.950   7.205 131.025  0.00  0.00    +0.183 C 
ATOM     21  O   LIG A   1      -4.837   7.369 129.582  0.00  0.00    -0.458 OA
ATOM     22  C   LIG A   1      -3.913   6.690 128.858  0.00  0.00    +0.332 C 
ATOM     23  C   LIG A   1      -2.816   6.053 129.614  0.00  0.00    +0.087 C 
ATOM     24  C   LIG A   1      -2.623   6.304 130.914  0.00  0.00    -0.016 C 
ATOM     25  C   LIG A   1      -3.562   7.184 131.671  0.00  0.00    +0.072 C 
ATOM     26  O   LIG A   1      -3.945   6.623 127.641  0.00  0.00    -0.246 OA
ENDBRANCH  19  20
ENDBRANCH   3  19
TORSDOF 6
ENDMDL
MODEL 8
REMARK VINA RESULT:      -7.4      3.381      8.107
REMARK  Name = NuBBE_585
REMARK  6 active torsions:
REMARK  status: ('A' for Active; 'I' for Inactive)
REMARK    1  A    between atoms: O_1  and  C_2
REMARK    2  A    between atoms: C_5  and  C_7
REMARK    3  A    between atoms: C_7  and  C_8
REMARK    4  A    between atoms: C_17  and  C_22
REMARK    5  A    between atoms: C_19  and  O_21
REMARK    6  A    between atoms: C_23  and  C_24
REMARK                            x       y       z     vdW  Elec       q    Type
REMARK                         _______ _______ _______ _____ _____    ______ ____
ROOT
ATOM      1  C   LIG A   1      -7.764   3.543 123.788  0.00  0.00    +0.148 C 
ATOM      2  C   LIG A   1      -6.246   3.419 123.733  0.00  0.00    +0.065 C 
ATOM      3  C   LIG A   1      -5.645   3.056 125.092  0.00  0.00    +0.125 C 
ATOM      4  O   LIG A   1      -6.299   1.909 125.636  0.00  0.00    -0.366 OA
ATOM      5  C   LIG A   1      -7.727   1.997 125.767  0.00  0.00    +0.172 C 
ATOM      6  C   LIG A   1      -8.393   2.288 124.404  0.00  0.00    +0.175 C 
ENDROOT
BRANCH   1   7
ATOM      7  O   LIG A   1      -8.260   3.729 122.461  0.00  0.00    -0.389 OA
ATOM      8  H   LIG A   1      -8.341   4.700 122.344  0.00  0.00    +0.210 HD
ENDBRANCH   1   7
BRANCH   6   9
ATOM      9  O   LIG A   1      -8.220   1.209 123.462  0.00  0.00    -0.386 OA
ATOM     10  H   LIG A   1      -7.470   0.670 123.781  0.00  0.00    +0.210 HD
ENDBRANCH   6   9
BRANCH   5  11
ATOM     11  C   LIG A   1      -8.233   0.715 126.389  0.00  0.00    +0.007 C 
ATOM     12  C   LIG A   1      -7.472  -0.364 126.646  0.00  0.00    +0.006 C 
BRANCH  12  13
ATOM     13  C   LIG A   1      -7.906  -1.597 127.323  0.00  0.00    -0.025 A 
ATOM     14  C   LIG A   1      -7.668  -1.720 128.699  0.00  0.00    +0.008 A 
ATOM     15  C   LIG A   1      -8.078  -2.859 129.398  0.00  0.00    +0.001 A 
ATOM     16  C   LIG A   1      -8.738  -3.885 128.729  0.00  0.00    +0.000 A 
ATOM     17  C   LIG A   1      -9.010  -3.764 127.369  0.00  0.00    +0.001 A 
ATOM     18  C   LIG A   1      -8.603  -2.622 126.671  0.00  0.00    +0.008 A 
ENDBRANCH  12  13
ENDBRANCH   5  11
BRANCH   3  19
ATOM     19  C   LIG A   1      -5.579   4.236 126.079  0.00  0.00    +0.076 C 
BRANCH  19  20
ATOM     20  C   LIG A   1      -5.108   3.882 127.508  0.00  0.00    +0.183 C 
ATOM     21  O   LIG A   1      -5.111   5.102 128.302  0.00  0.00    -0.458 OA
ATOM     22  C   LIG A   1      -4.053   5.951 128.309  0.00  0.00    +0.332 C 
ATOM     23  C   LIG A   1      -2.782   5.429 127.768  0.00  0.00    +0.087 C 
ATOM     24  C   LIG A   1      -2.623   4.132 127.480  0.00  0.00    -0.016 C 
ATOM     25  C   LIG A   1      -3.756   3.171 127.626  0.00  0.00    +0.072 C 
ATOM     26  O   LIG A   1      -4.113   7.080 128.766  0.00  0.00    -0.246 OA
ENDBRANCH  19  20
ENDBRANCH   3  19
TORSDOF 6
ENDMDL
MODEL 9
REMARK VINA RESULT:      -7.4      3.048      6.908
REMARK  Name = NuBBE_585
REMARK  6 active torsions:
REMARK  status: ('A' for Active; 'I' for Inactive)
REMARK    1  A    between atoms: O_1  and  C_2
REMARK    2  A    between atoms: C_5  and  C_7
REMARK    3  A    between atoms: C_7  and  C_8
REMARK    4  A    between atoms: C_17  and  C_22
REMARK    5  A    between atoms: C_19  and  O_21
REMARK    6  A    between atoms: C_23  and  C_24
REMARK                            x       y       z     vdW  Elec       q    Type
REMARK                         _______ _______ _______ _____ _____    ______ ____
ROOT
ATOM      1  C   LIG A   1      -8.206   2.742 123.889  0.00  0.00    +0.148 C 
ATOM      2  C   LIG A   1      -9.501   1.945 123.793  0.00  0.00    +0.065 C 
ATOM      3  C   LIG A   1      -9.593   0.858 124.866  0.00  0.00    +0.125 C 
ATOM      4  O   LIG A   1      -9.348   1.411 126.159  0.00  0.00    -0.366 OA
ATOM      5  C   LIG A   1      -8.110   2.122 126.321  0.00  0.00    +0.172 C 
ATOM      6  C   LIG A   1      -8.000   3.283 125.309  0.00  0.00    +0.175 C 
ENDROOT
BRANCH   1   7
ATOM      7  O   LIG A   1      -8.262   3.829 122.963  0.00  0.00    -0.389 OA
ATOM      8  H   LIG A   1      -9.187   4.153 122.996  0.00  0.00    +0.210 HD
ENDBRANCH   1   7
BRANCH   6   9
ATOM      9  O   LIG A   1      -8.992   4.307 125.531  0.00  0.00    -0.386 OA
ATOM     10  H   LIG A   1      -8.718   5.087 125.008  0.00  0.00    +0.210 HD
ENDBRANCH   6   9
BRANCH   5  11
ATOM     11  C   LIG A   1      -8.013   2.599 127.753  0.00  0.00    +0.007 C 
ATOM     12  C   LIG A   1      -8.662   2.042 128.791  0.00  0.00    +0.006 C 
BRANCH  12  13
ATOM     13  C   LIG A   1      -8.532   2.423 130.207  0.00  0.00    -0.025 A 
ATOM     14  C   LIG A   1      -9.464   1.913 131.122  0.00  0.00    +0.008 A 
ATOM     15  C   LIG A   1      -9.375   2.224 132.482  0.00  0.00    +0.001 A 
ATOM     16  C   LIG A   1      -8.348   3.042 132.943  0.00  0.00    +0.000 A 
ATOM     17  C   LIG A   1      -7.397   3.530 132.052  0.00  0.00    +0.001 A 
ATOM     18  C   LIG A   1      -7.483   3.215 130.692  0.00  0.00    +0.008 A 
ENDBRANCH  12  13
ENDBRANCH   5  11
BRANCH   3  19
ATOM     19  C   LIG A   1      -8.730  -0.383 124.570  0.00  0.00    +0.076 C 
BRANCH  19  20
ATOM     20  C   LIG A   1      -8.619  -1.406 125.724  0.00  0.00    +0.183 C 
ATOM     21  O   LIG A   1      -7.210  -1.726 125.910  0.00  0.00    -0.458 OA
ATOM     22  C   LIG A   1      -6.596  -2.689 125.178  0.00  0.00    +0.332 C 
ATOM     23  C   LIG A   1      -7.472  -3.624 124.444  0.00  0.00    +0.087 C 
ATOM     24  C   LIG A   1      -8.794  -3.655 124.652  0.00  0.00    -0.016 C 
ATOM     25  C   LIG A   1      -9.445  -2.687 125.584  0.00  0.00    +0.072 C 
ATOM     26  O   LIG A   1      -5.384  -2.818 125.140  0.00  0.00    -0.246 OA
ENDBRANCH  19  20
ENDBRANCH   3  19
TORSDOF 6
ENDMDL
