MODEL 1
REMARK VINA RESULT:      -8.6      0.000      0.000
REMARK  Name = NuBBE_2033
REMARK  5 active torsions:
REMARK  status: ('A' for Active; 'I' for Inactive)
REMARK    1  A    between atoms: O_1  and  C_2
REMARK    2  A    between atoms: C_3  and  C_11
REMARK    3  A    between atoms: C_18  and  C_23
REMARK    4  A    between atoms: C_19  and  O_22
REMARK    5  A    between atoms: C_20  and  C_21
REMARK                            x       y       z     vdW  Elec       q    Type
REMARK                         _______ _______ _______ _____ _____    ______ ____
ROOT
ATOM      1  C   LIG A   1      -8.124   2.104 123.012  0.00  0.00    +0.207 C 
ATOM      2  O   LIG A   1      -7.362   0.885 123.084  0.00  0.00    -0.483 OA
ATOM      3  C   LIG A   1      -7.833  -0.081 123.934  0.00  0.00    +0.131 A 
ATOM      4  C   LIG A   1      -8.785   0.188 124.923  0.00  0.00    -0.005 A 
ATOM      5  C   LIG A   1      -9.349   1.567 125.100  0.00  0.00    +0.043 C 
ATOM      6  C   LIG A   1      -8.472   2.604 124.415  0.00  0.00    +0.054 C 
ATOM      7  C   LIG A   1      -9.239  -0.854 125.743  0.00  0.00    +0.014 A 
ATOM      8  C   LIG A   1      -8.739  -2.156 125.605  0.00  0.00    -0.008 A 
ATOM      9  C   LIG A   1      -7.764  -2.397 124.626  0.00  0.00    +0.126 A 
ATOM     10  C   LIG A   1      -7.285  -1.368 123.798  0.00  0.00    +0.033 A 
ATOM     11  C   LIG A   1      -6.255  -1.656 122.737  0.00  0.00    +0.051 C 
ATOM     12  C   LIG A   1      -9.262  -3.238 126.507  0.00  0.00    +0.048 C 
ENDROOT
BRANCH   1  14
ATOM     13  C   LIG A   1      -6.078   3.564 122.598  0.00  0.00    +0.127 A 
ATOM     14  C   LIG A   1      -7.321   3.057 122.136  0.00  0.00    +0.038 A 
ATOM     15  C   LIG A   1      -7.745   3.436 120.848  0.00  0.00    +0.060 A 
ATOM     16  C   LIG A   1      -6.933   4.265 120.098  0.00  0.00    +0.167 A 
ATOM     17  C   LIG A   1      -5.727   4.724 120.565  0.00  0.00    +0.170 A 
ATOM     18  C   LIG A   1      -5.267   4.388 121.816  0.00  0.00    +0.095 A 
ATOM     19  O   LIG A   1      -5.090   5.522 119.668  0.00  0.00    -0.453 OA
ATOM     20  C   LIG A   1      -6.043   5.524 118.585  0.00  0.00    +0.466 C 
ATOM     21  O   LIG A   1      -7.209   4.715 118.844  0.00  0.00    -0.453 OA
BRANCH  13  22
ATOM     22  O   LIG A   1      -5.613   3.282 123.855  0.00  0.00    -0.506 OA
ATOM     23  H   LIG A   1      -4.644   3.416 123.845  0.00  0.00    +0.292 HD
ENDBRANCH  13  22
ENDBRANCH   1  14
BRANCH   9  24
ATOM     24  O   LIG A   1      -7.241  -3.649 124.435  0.00  0.00    -0.506 OA
ATOM     25  H   LIG A   1      -6.978  -3.759 123.510  0.00  0.00    +0.292 HD
ENDBRANCH   9  24
TORSDOF 3
ENDMDL
MODEL 2
REMARK VINA RESULT:      -8.2      9.591     10.471
REMARK  Name = NuBBE_2033
REMARK  5 active torsions:
REMARK  status: ('A' for Active; 'I' for Inactive)
REMARK    1  A    between atoms: O_1  and  C_2
REMARK    2  A    between atoms: C_3  and  C_11
REMARK    3  A    between atoms: C_18  and  C_23
REMARK    4  A    between atoms: C_19  and  O_22
REMARK    5  A    between atoms: C_20  and  C_21
REMARK                            x       y       z     vdW  Elec       q    Type
REMARK                         _______ _______ _______ _____ _____    ______ ____
ROOT
ATOM      1  C   LIG A   1      -8.354   6.296 131.838  0.00  0.00    +0.207 C 
ATOM      2  O   LIG A   1      -8.452   4.874 132.040  0.00  0.00    -0.483 OA
ATOM      3  C   LIG A   1      -7.353   4.255 132.575  0.00  0.00    +0.131 A 
ATOM      4  C   LIG A   1      -6.095   4.866 132.619  0.00  0.00    -0.005 A 
ATOM      5  C   LIG A   1      -5.887   6.251 132.081  0.00  0.00    +0.043 C 
ATOM      6  C   LIG A   1      -7.030   6.652 131.161  0.00  0.00    +0.054 C 
ATOM      7  C   LIG A   1      -5.018   4.183 133.201  0.00  0.00    +0.014 A 
ATOM      8  C   LIG A   1      -5.175   2.890 133.720  0.00  0.00    -0.008 A 
ATOM      9  C   LIG A   1      -6.438   2.286 133.638  0.00  0.00    +0.126 A 
ATOM     10  C   LIG A   1      -7.531   2.945 133.051  0.00  0.00    +0.033 A 
ATOM     11  C   LIG A   1      -8.884   2.285 132.997  0.00  0.00    +0.051 C 
ATOM     12  C   LIG A   1      -3.990   2.203 134.337  0.00  0.00    +0.048 C 
ENDROOT
BRANCH   1  14
ATOM     13  C   LIG A   1     -10.893   6.392 131.648  0.00  0.00    +0.127 A 
ATOM     14  C   LIG A   1      -9.622   6.709 131.101  0.00  0.00    +0.038 A 
ATOM     15  C   LIG A   1      -9.590   7.441 129.898  0.00  0.00    +0.060 A 
ATOM     16  C   LIG A   1     -10.786   7.820 129.320  0.00  0.00    +0.167 A 
ATOM     17  C   LIG A   1     -12.000   7.514 129.882  0.00  0.00    +0.170 A 
ATOM     18  C   LIG A   1     -12.088   6.800 131.054  0.00  0.00    +0.095 A 
ATOM     19  O   LIG A   1     -13.046   7.983 129.152  0.00  0.00    -0.453 OA
ATOM     20  C   LIG A   1     -12.350   8.610 128.055  0.00  0.00    +0.466 C 
ATOM     21  O   LIG A   1     -10.914   8.524 128.162  0.00  0.00    -0.453 OA
BRANCH  13  22
ATOM     22  O   LIG A   1     -11.015   5.645 132.790  0.00  0.00    -0.506 OA
ATOM     23  H   LIG A   1     -10.595   4.779 132.619  0.00  0.00    +0.292 HD
ENDBRANCH  13  22
ENDBRANCH   1  14
BRANCH   9  24
ATOM     24  O   LIG A   1      -6.658   1.028 134.134  0.00  0.00    -0.506 OA
ATOM     25  H   LIG A   1      -7.201   1.078 134.934  0.00  0.00    +0.292 HD
ENDBRANCH   9  24
TORSDOF 3
ENDMDL
MODEL 3
REMARK VINA RESULT:      -7.9      5.278      9.031
REMARK  Name = NuBBE_2033
REMARK  5 active torsions:
REMARK  status: ('A' for Active; 'I' for Inactive)
REMARK    1  A    between atoms: O_1  and  C_2
REMARK    2  A    between atoms: C_3  and  C_11
REMARK    3  A    between atoms: C_18  and  C_23
REMARK    4  A    between atoms: C_19  and  O_22
REMARK    5  A    between atoms: C_20  and  C_21
REMARK                            x       y       z     vdW  Elec       q    Type
REMARK                         _______ _______ _______ _____ _____    ______ ____
ROOT
ATOM      1  C   LIG A   1      -6.850  -2.427 128.842  0.00  0.00    +0.207 C 
ATOM      2  O   LIG A   1      -6.278  -2.341 127.524  0.00  0.00    -0.483 OA
ATOM      3  C   LIG A   1      -7.126  -2.572 126.472  0.00  0.00    +0.131 A 
ATOM      4  C   LIG A   1      -8.376  -3.178 126.635  0.00  0.00    -0.005 A 
ATOM      5  C   LIG A   1      -8.858  -3.607 127.990  0.00  0.00    +0.043 C 
ATOM      6  C   LIG A   1      -7.702  -3.690 128.976  0.00  0.00    +0.054 C 
ATOM      7  C   LIG A   1      -9.202  -3.363 125.518  0.00  0.00    +0.014 A 
ATOM      8  C   LIG A   1      -8.789  -2.970 124.237  0.00  0.00    -0.008 A 
ATOM      9  C   LIG A   1      -7.520  -2.391 124.094  0.00  0.00    +0.126 A 
ATOM     10  C   LIG A   1      -6.669  -2.204 125.195  0.00  0.00    +0.033 A 
ATOM     11  C   LIG A   1      -5.320  -1.557 125.020  0.00  0.00    +0.051 C 
ATOM     12  C   LIG A   1      -9.714  -3.188 123.074  0.00  0.00    +0.048 C 
ENDROOT
BRANCH   1  14
ATOM     13  C   LIG A   1      -4.751  -1.236 129.659  0.00  0.00    +0.127 A 
ATOM     14  C   LIG A   1      -5.690  -2.290 129.819  0.00  0.00    +0.038 A 
ATOM     15  C   LIG A   1      -5.524  -3.153 130.919  0.00  0.00    +0.060 A 
ATOM     16  C   LIG A   1      -4.473  -2.928 131.788  0.00  0.00    +0.167 A 
ATOM     17  C   LIG A   1      -3.593  -1.890 131.616  0.00  0.00    +0.170 A 
ATOM     18  C   LIG A   1      -3.707  -1.019 130.559  0.00  0.00    +0.095 A 
ATOM     19  O   LIG A   1      -2.638  -1.850 132.584  0.00  0.00    -0.453 OA
ATOM     20  C   LIG A   1      -3.011  -2.995 133.378  0.00  0.00    +0.466 C 
ATOM     21  O   LIG A   1      -4.185  -3.676 132.887  0.00  0.00    -0.453 OA
BRANCH  13  22
ATOM     22  O   LIG A   1      -4.813  -0.379 128.592  0.00  0.00    -0.506 OA
ATOM     23  H   LIG A   1      -4.470   0.487 128.893  0.00  0.00    +0.292 HD
ENDBRANCH  13  22
ENDBRANCH   1  14
BRANCH   9  24
ATOM     24  O   LIG A   1      -7.060  -1.979 122.870  0.00  0.00    -0.506 OA
ATOM     25  H   LIG A   1      -6.263  -1.440 122.981  0.00  0.00    +0.292 HD
ENDBRANCH   9  24
TORSDOF 3
ENDMDL
MODEL 4
REMARK VINA RESULT:      -7.9      1.569      2.213
REMARK  Name = NuBBE_2033
REMARK  5 active torsions:
REMARK  status: ('A' for Active; 'I' for Inactive)
REMARK    1  A    between atoms: O_1  and  C_2
REMARK    2  A    between atoms: C_3  and  C_11
REMARK    3  A    between atoms: C_18  and  C_23
REMARK    4  A    between atoms: C_19  and  O_22
REMARK    5  A    between atoms: C_20  and  C_21
REMARK                            x       y       z     vdW  Elec       q    Type
REMARK                         _______ _______ _______ _____ _____    ______ ____
ROOT
ATOM      1  C   LIG A   1      -7.508   1.998 124.204  0.00  0.00    +0.207 C 
ATOM      2  O   LIG A   1      -7.831   0.634 123.875  0.00  0.00    -0.483 OA
ATOM      3  C   LIG A   1      -7.907  -0.246 124.923  0.00  0.00    +0.131 A 
ATOM      4  C   LIG A   1      -7.387   0.047 126.189  0.00  0.00    -0.005 A 
ATOM      5  C   LIG A   1      -6.716   1.359 126.465  0.00  0.00    +0.043 C 
ATOM      6  C   LIG A   1      -6.323   2.052 125.169  0.00  0.00    +0.054 C 
ATOM      7  C   LIG A   1      -7.521  -0.892 127.221  0.00  0.00    +0.014 A 
ATOM      8  C   LIG A   1      -8.146  -2.127 127.002  0.00  0.00    -0.008 A 
ATOM      9  C   LIG A   1      -8.633  -2.411 125.718  0.00  0.00    +0.126 A 
ATOM     10  C   LIG A   1      -8.504  -1.492 124.664  0.00  0.00    +0.033 A 
ATOM     11  C   LIG A   1      -9.057  -1.808 123.299  0.00  0.00    +0.051 C 
ATOM     12  C   LIG A   1      -8.266  -3.097 128.144  0.00  0.00    +0.048 C 
ENDROOT
BRANCH   1  14
ATOM     13  C   LIG A   1      -8.428   2.838 121.982  0.00  0.00    +0.127 A 
ATOM     14  C   LIG A   1      -7.332   2.725 122.878  0.00  0.00    +0.038 A 
ATOM     15  C   LIG A   1      -6.118   3.337 122.509  0.00  0.00    +0.060 A 
ATOM     16  C   LIG A   1      -6.056   4.021 121.310  0.00  0.00    +0.167 A 
ATOM     17  C   LIG A   1      -7.139   4.128 120.473  0.00  0.00    +0.170 A 
ATOM     18  C   LIG A   1      -8.346   3.549 120.783  0.00  0.00    +0.095 A 
ATOM     19  O   LIG A   1      -6.861   4.843 119.351  0.00  0.00    -0.453 OA
ATOM     20  C   LIG A   1      -5.472   5.163 119.571  0.00  0.00    +0.466 C 
ATOM     21  O   LIG A   1      -4.958   4.657 120.821  0.00  0.00    -0.453 OA
BRANCH  13  22
ATOM     22  O   LIG A   1      -9.630   2.236 122.242  0.00  0.00    -0.506 OA
ATOM     23  H   LIG A   1     -10.242   2.479 121.519  0.00  0.00    +0.292 HD
ENDBRANCH  13  22
ENDBRANCH   1  14
BRANCH   9  24
ATOM     24  O   LIG A   1      -9.261  -3.597 125.441  0.00  0.00    -0.506 OA
ATOM     25  H   LIG A   1      -8.617  -4.320 125.443  0.00  0.00    +0.292 HD
ENDBRANCH   9  24
TORSDOF 3
ENDMDL
MODEL 5
REMARK VINA RESULT:      -7.7      4.116      5.536
REMARK  Name = NuBBE_2033
REMARK  5 active torsions:
REMARK  status: ('A' for Active; 'I' for Inactive)
REMARK    1  A    between atoms: O_1  and  C_2
REMARK    2  A    between atoms: C_3  and  C_11
REMARK    3  A    between atoms: C_18  and  C_23
REMARK    4  A    between atoms: C_19  and  O_22
REMARK    5  A    between atoms: C_20  and  C_21
REMARK                            x       y       z     vdW  Elec       q    Type
REMARK                         _______ _______ _______ _____ _____    ______ ____
ROOT
ATOM      1  C   LIG A   1      -5.244   3.069 125.233  0.00  0.00    +0.207 C 
ATOM      2  O   LIG A   1      -5.480   1.771 125.809  0.00  0.00    -0.483 OA
ATOM      3  C   LIG A   1      -6.328   0.942 125.122  0.00  0.00    +0.131 A 
ATOM      4  C   LIG A   1      -7.181   1.408 124.115  0.00  0.00    -0.005 A 
ATOM      5  C   LIG A   1      -7.205   2.858 123.731  0.00  0.00    +0.043 C 
ATOM      6  C   LIG A   1      -6.563   3.717 124.810  0.00  0.00    +0.054 C 
ATOM      7  C   LIG A   1      -8.006   0.501 123.438  0.00  0.00    +0.014 A 
ATOM      8  C   LIG A   1      -8.008  -0.862 123.766  0.00  0.00    -0.008 A 
ATOM      9  C   LIG A   1      -7.166  -1.302 124.797  0.00  0.00    +0.126 A 
ATOM     10  C   LIG A   1      -6.336  -0.412 125.498  0.00  0.00    +0.033 A 
ATOM     11  C   LIG A   1      -5.422  -0.911 126.586  0.00  0.00    +0.051 C 
ATOM     12  C   LIG A   1      -8.910  -1.794 123.006  0.00  0.00    +0.048 C 
ENDROOT
BRANCH   1  14
ATOM     13  C   LIG A   1      -3.168   3.310 126.691  0.00  0.00    +0.127 A 
ATOM     14  C   LIG A   1      -4.409   3.839 126.248  0.00  0.00    +0.038 A 
ATOM     15  C   LIG A   1      -4.801   5.096 126.749  0.00  0.00    +0.060 A 
ATOM     16  C   LIG A   1      -3.962   5.752 127.629  0.00  0.00    +0.167 A 
ATOM     17  C   LIG A   1      -2.759   5.222 128.024  0.00  0.00    +0.170 A 
ATOM     18  C   LIG A   1      -2.329   3.999 127.568  0.00  0.00    +0.095 A 
ATOM     19  O   LIG A   1      -2.093   6.031 128.890  0.00  0.00    -0.453 OA
ATOM     20  C   LIG A   1      -3.023   7.127 129.006  0.00  0.00    +0.466 C 
ATOM     21  O   LIG A   1      -4.206   6.964 128.196  0.00  0.00    -0.453 OA
BRANCH  13  22
ATOM     22  O   LIG A   1      -2.732   2.075 126.288  0.00  0.00    -0.506 OA
ATOM     23  H   LIG A   1      -1.976   2.215 125.684  0.00  0.00    +0.292 HD
ENDBRANCH  13  22
ENDBRANCH   1  14
BRANCH   9  24
ATOM     24  O   LIG A   1      -7.115  -2.622 125.160  0.00  0.00    -0.506 OA
ATOM     25  H   LIG A   1      -7.068  -3.181 124.370  0.00  0.00    +0.292 HD
ENDBRANCH   9  24
TORSDOF 3
ENDMDL
MODEL 6
REMARK VINA RESULT:      -7.6      8.019      9.552
REMARK  Name = NuBBE_2033
REMARK  5 active torsions:
REMARK  status: ('A' for Active; 'I' for Inactive)
REMARK    1  A    between atoms: O_1  and  C_2
REMARK    2  A    between atoms: C_3  and  C_11
REMARK    3  A    between atoms: C_18  and  C_23
REMARK    4  A    between atoms: C_19  and  O_22
REMARK    5  A    between atoms: C_20  and  C_21
REMARK                            x       y       z     vdW  Elec       q    Type
REMARK                         _______ _______ _______ _____ _____    ______ ____
ROOT
ATOM      1  C   LIG A   1      -9.784   5.132 131.876  0.00  0.00    +0.207 C 
ATOM      2  O   LIG A   1      -9.052   4.061 131.254  0.00  0.00    -0.483 OA
ATOM      3  C   LIG A   1      -8.263   3.300 132.077  0.00  0.00    +0.131 A 
ATOM      4  C   LIG A   1      -7.908   3.712 133.367  0.00  0.00    -0.005 A 
ATOM      5  C   LIG A   1      -8.385   5.022 133.920  0.00  0.00    +0.043 C 
ATOM      6  C   LIG A   1      -8.874   5.936 132.807  0.00  0.00    +0.054 C 
ATOM      7  C   LIG A   1      -7.116   2.873 134.163  0.00  0.00    +0.014 A 
ATOM      8  C   LIG A   1      -6.655   1.639 133.682  0.00  0.00    -0.008 A 
ATOM      9  C   LIG A   1      -7.000   1.261 132.376  0.00  0.00    +0.126 A 
ATOM     10  C   LIG A   1      -7.784   2.087 131.555  0.00  0.00    +0.033 A 
ATOM     11  C   LIG A   1      -8.162   1.648 130.164  0.00  0.00    +0.051 C 
ATOM     12  C   LIG A   1      -5.812   0.777 134.578  0.00  0.00    +0.048 C 
ENDROOT
BRANCH   1  14
ATOM     13  C   LIG A   1     -11.708   6.525 130.955  0.00  0.00    +0.127 A 
ATOM     14  C   LIG A   1     -10.446   5.908 130.745  0.00  0.00    +0.038 A 
ATOM     15  C   LIG A   1      -9.834   6.079 129.488  0.00  0.00    +0.060 A 
ATOM     16  C   LIG A   1     -10.480   6.840 128.533  0.00  0.00    +0.167 A 
ATOM     17  C   LIG A   1     -11.692   7.439 128.772  0.00  0.00    +0.170 A 
ATOM     18  C   LIG A   1     -12.334   7.303 129.980  0.00  0.00    +0.095 A 
ATOM     19  O   LIG A   1     -12.147   8.140 127.700  0.00  0.00    -0.453 OA
ATOM     20  C   LIG A   1     -11.086   7.903 126.751  0.00  0.00    +0.466 C 
ATOM     21  O   LIG A   1     -10.016   7.090 127.278  0.00  0.00    -0.453 OA
BRANCH  13  22
ATOM     22  O   LIG A   1     -12.393   6.373 132.131  0.00  0.00    -0.506 OA
ATOM     23  H   LIG A   1     -11.881   5.753 132.689  0.00  0.00    +0.292 HD
ENDBRANCH  13  22
ENDBRANCH   1  14
BRANCH   9  24
ATOM     24  O   LIG A   1      -6.588   0.064 131.851  0.00  0.00    -0.506 OA
ATOM     25  H   LIG A   1      -6.210  -0.490 132.549  0.00  0.00    +0.292 HD
ENDBRANCH   9  24
TORSDOF 3
ENDMDL
MODEL 7
REMARK VINA RESULT:      -7.6     10.012     11.372
REMARK  Name = NuBBE_2033
REMARK  5 active torsions:
REMARK  status: ('A' for Active; 'I' for Inactive)
REMARK    1  A    between atoms: O_1  and  C_2
REMARK    2  A    between atoms: C_3  and  C_11
REMARK    3  A    between atoms: C_18  and  C_23
REMARK    4  A    between atoms: C_19  and  O_22
REMARK    5  A    between atoms: C_20  and  C_21
REMARK                            x       y       z     vdW  Elec       q    Type
REMARK                         _______ _______ _______ _____ _____    ______ ____
ROOT
ATOM      1  C   LIG A   1      -7.963   5.922 132.058  0.00  0.00    +0.207 C 
ATOM      2  O   LIG A   1      -6.862   6.687 131.533  0.00  0.00    -0.483 OA
ATOM      3  C   LIG A   1      -5.645   6.500 132.135  0.00  0.00    +0.131 A 
ATOM      4  C   LIG A   1      -5.512   5.878 133.382  0.00  0.00    -0.005 A 
ATOM      5  C   LIG A   1      -6.712   5.374 134.128  0.00  0.00    +0.043 C 
ATOM      6  C   LIG A   1      -7.990   5.997 133.585  0.00  0.00    +0.054 C 
ATOM      7  C   LIG A   1      -4.234   5.699 133.929  0.00  0.00    +0.014 A 
ATOM      8  C   LIG A   1      -3.089   6.152 133.259  0.00  0.00    -0.008 A 
ATOM      9  C   LIG A   1      -3.249   6.799 132.024  0.00  0.00    +0.126 A 
ATOM     10  C   LIG A   1      -4.519   6.999 131.459  0.00  0.00    +0.033 A 
ATOM     11  C   LIG A   1      -4.664   7.674 130.120  0.00  0.00    +0.051 C 
ATOM     12  C   LIG A   1      -1.742   5.933 133.888  0.00  0.00    +0.048 C 
ENDROOT
BRANCH   1  14
ATOM     13  C   LIG A   1     -10.495   6.107 131.850  0.00  0.00    +0.127 A 
ATOM     14  C   LIG A   1      -9.209   6.419 131.336  0.00  0.00    +0.038 A 
ATOM     15  C   LIG A   1      -9.141   7.223 130.182  0.00  0.00    +0.060 A 
ATOM     16  C   LIG A   1     -10.319   7.674 129.617  0.00  0.00    +0.167 A 
ATOM     17  C   LIG A   1     -11.548   7.370 130.148  0.00  0.00    +0.170 A 
ATOM     18  C   LIG A   1     -11.671   6.588 131.271  0.00  0.00    +0.095 A 
ATOM     19  O   LIG A   1     -12.571   7.915 129.438  0.00  0.00    -0.453 OA
ATOM     20  C   LIG A   1     -11.845   8.588 128.390  0.00  0.00    +0.466 C 
ATOM     21  O   LIG A   1     -10.413   8.452 128.505  0.00  0.00    -0.453 OA
BRANCH  13  22
ATOM     22  O   LIG A   1     -10.652   5.295 132.942  0.00  0.00    -0.506 OA
ATOM     23  H   LIG A   1     -11.010   4.442 132.624  0.00  0.00    +0.292 HD
ENDBRANCH  13  22
ENDBRANCH   1  14
BRANCH   9  24
ATOM     24  O   LIG A   1      -2.169   7.257 131.317  0.00  0.00    -0.506 OA
ATOM     25  H   LIG A   1      -1.413   7.380 131.910  0.00  0.00    +0.292 HD
ENDBRANCH   9  24
TORSDOF 3
ENDMDL
MODEL 8
REMARK VINA RESULT:      -7.6      6.609      8.321
REMARK  Name = NuBBE_2033
REMARK  5 active torsions:
REMARK  status: ('A' for Active; 'I' for Inactive)
REMARK    1  A    between atoms: O_1  and  C_2
REMARK    2  A    between atoms: C_3  and  C_11
REMARK    3  A    between atoms: C_18  and  C_23
REMARK    4  A    between atoms: C_19  and  O_22
REMARK    5  A    between atoms: C_20  and  C_21
REMARK                            x       y       z     vdW  Elec       q    Type
REMARK                         _______ _______ _______ _____ _____    ______ ____
ROOT
ATOM      1  C   LIG A   1     -10.354   3.852 130.567  0.00  0.00    +0.207 C 
ATOM      2  O   LIG A   1      -9.468   3.280 129.587  0.00  0.00    -0.483 OA
ATOM      3  C   LIG A   1      -8.925   2.059 129.891  0.00  0.00    +0.131 A 
ATOM      4  C   LIG A   1      -8.940   1.533 131.187  0.00  0.00    -0.005 A 
ATOM      5  C   LIG A   1      -9.564   2.289 132.322  0.00  0.00    +0.043 C 
ATOM      6  C   LIG A   1      -9.741   3.757 131.965  0.00  0.00    +0.054 C 
ATOM      7  C   LIG A   1      -8.387   0.267 131.422  0.00  0.00    +0.014 A 
ATOM      8  C   LIG A   1      -7.799  -0.472 130.385  0.00  0.00    -0.008 A 
ATOM      9  C   LIG A   1      -7.770   0.088 129.099  0.00  0.00    +0.126 A 
ATOM     10  C   LIG A   1      -8.309   1.358 128.840  0.00  0.00    +0.033 A 
ATOM     11  C   LIG A   1      -8.288   1.929 127.446  0.00  0.00    +0.051 C 
ATOM     12  C   LIG A   1      -7.224  -1.826 130.690  0.00  0.00    +0.048 C 
ENDROOT
BRANCH   1  14
ATOM     13  C   LIG A   1      -9.645   6.151 129.729  0.00  0.00    +0.127 A 
ATOM     14  C   LIG A   1     -10.690   5.252 130.072  0.00  0.00    +0.038 A 
ATOM     15  C   LIG A   1     -12.016   5.692 129.898  0.00  0.00    +0.060 A 
ATOM     16  C   LIG A   1     -12.235   6.961 129.396  0.00  0.00    +0.167 A 
ATOM     17  C   LIG A   1     -11.203   7.800 129.056  0.00  0.00    +0.170 A 
ATOM     18  C   LIG A   1      -9.890   7.422 129.208  0.00  0.00    +0.095 A 
ATOM     19  O   LIG A   1     -11.640   8.997 128.582  0.00  0.00    -0.453 OA
ATOM     20  C   LIG A   1     -13.068   8.820 128.675  0.00  0.00    +0.466 C 
ATOM     21  O   LIG A   1     -13.454   7.523 129.177  0.00  0.00    -0.453 OA
BRANCH  13  22
ATOM     22  O   LIG A   1      -8.328   5.820 129.909  0.00  0.00    -0.506 OA
ATOM     23  H   LIG A   1      -7.871   5.964 129.057  0.00  0.00    +0.292 HD
ENDBRANCH  13  22
ENDBRANCH   1  14
BRANCH   9  24
ATOM     24  O   LIG A   1      -7.218  -0.586 128.042  0.00  0.00    -0.506 OA
ATOM     25  H   LIG A   1      -7.186  -0.011 127.264  0.00  0.00    +0.292 HD
ENDBRANCH   9  24
TORSDOF 3
ENDMDL
MODEL 9
REMARK VINA RESULT:      -7.4      8.072      9.651
REMARK  Name = NuBBE_2033
REMARK  5 active torsions:
REMARK  status: ('A' for Active; 'I' for Inactive)
REMARK    1  A    between atoms: O_1  and  C_2
REMARK    2  A    between atoms: C_3  and  C_11
REMARK    3  A    between atoms: C_18  and  C_23
REMARK    4  A    between atoms: C_19  and  O_22
REMARK    5  A    between atoms: C_20  and  C_21
REMARK                            x       y       z     vdW  Elec       q    Type
REMARK                         _______ _______ _______ _____ _____    ______ ____
ROOT
ATOM      1  C   LIG A   1      -9.807   5.153 131.888  0.00  0.00    +0.207 C 
ATOM      2  O   LIG A   1      -8.882   4.338 131.144  0.00  0.00    -0.483 OA
ATOM      3  C   LIG A   1      -8.126   3.454 131.869  0.00  0.00    +0.131 A 
ATOM      4  C   LIG A   1      -7.993   3.544 133.259  0.00  0.00    -0.005 A 
ATOM      5  C   LIG A   1      -8.684   4.625 134.035  0.00  0.00    +0.043 C 
ATOM      6  C   LIG A   1      -9.124   5.756 133.117  0.00  0.00    +0.054 C 
ATOM      7  C   LIG A   1      -7.222   2.591 133.939  0.00  0.00    +0.014 A 
ATOM      8  C   LIG A   1      -6.564   1.563 133.249  0.00  0.00    -0.008 A 
ATOM      9  C   LIG A   1      -6.689   1.509 131.853  0.00  0.00    +0.126 A 
ATOM     10  C   LIG A   1      -7.448   2.457 131.147  0.00  0.00    +0.033 A 
ATOM     11  C   LIG A   1      -7.587   2.365 129.650  0.00  0.00    +0.051 C 
ATOM     12  C   LIG A   1      -5.753   0.565 134.027  0.00  0.00    +0.048 C 
ENDROOT
BRANCH   1  14
ATOM     13  C   LIG A   1      -9.546   7.035 130.190  0.00  0.00    +0.127 A 
ATOM     14  C   LIG A   1     -10.399   6.141 130.892  0.00  0.00    +0.038 A 
ATOM     15  C   LIG A   1     -11.776   6.185 130.601  0.00  0.00    +0.060 A 
ATOM     16  C   LIG A   1     -12.225   7.079 129.647  0.00  0.00    +0.167 A 
ATOM     17  C   LIG A   1     -11.373   7.917 128.972  0.00  0.00    +0.170 A 
ATOM     18  C   LIG A   1     -10.021   7.917 129.219  0.00  0.00    +0.095 A 
ATOM     19  O   LIG A   1     -12.022   8.710 128.079  0.00  0.00    -0.453 OA
ATOM     20  C   LIG A   1     -13.385   8.284 128.279  0.00  0.00    +0.466 C 
ATOM     21  O   LIG A   1     -13.520   7.237 129.263  0.00  0.00    -0.453 OA
BRANCH  13  22
ATOM     22  O   LIG A   1      -8.201   7.089 130.445  0.00  0.00    -0.506 OA
ATOM     23  H   LIG A   1      -7.741   6.720 129.665  0.00  0.00    +0.292 HD
ENDBRANCH  13  22
ENDBRANCH   1  14
BRANCH   9  24
ATOM     24  O   LIG A   1      -6.079   0.525 131.122  0.00  0.00    -0.506 OA
ATOM     25  H   LIG A   1      -5.310   0.887 130.657  0.00  0.00    +0.292 HD
ENDBRANCH   9  24
TORSDOF 3
ENDMDL
