MODEL 1
REMARK VINA RESULT:      -7.9      0.000      0.000
REMARK  Name = NuBBE_981
REMARK  19 active torsions:
REMARK  status: ('A' for Active; 'I' for Inactive)
REMARK    1  A    between atoms: C_2  and  C_30
REMARK    2  A    between atoms: N_3  and  C_4
REMARK    3  A    between atoms: C_4  and  C_5
REMARK    4  A    between atoms: C_5  and  C_6
REMARK    5  A    between atoms: C_9  and  O_10
REMARK    6  A    between atoms: O_10  and  C_11
REMARK    7  A    between atoms: C_11  and  C_12
REMARK    8  A    between atoms: C_13  and  C_14
REMARK    9  A    between atoms: C_13  and  C_15
REMARK   10  A    between atoms: C_15  and  O_16
REMARK   11  A    between atoms: C_15  and  C_17
REMARK   12  A    between atoms: C_17  and  C_18
REMARK   13  A    between atoms: C_18  and  O_19
REMARK   14  A    between atoms: C_18  and  C_23
REMARK   15  A    between atoms: O_19  and  C_20
REMARK   16  A    between atoms: C_20  and  C_21
REMARK   17  A    between atoms: C_23  and  C_24
REMARK   18  A    between atoms: C_23  and  C_25
REMARK   19  A    between atoms: C_23  and  O_26
REMARK                            x       y       z     vdW  Elec       q    Type
REMARK                         _______ _______ _______ _____ _____    ______ ____
ROOT
ATOM      1  O   LIG A   1      -7.626  -0.820 131.334  0.00  0.00    -0.488 OA
ENDROOT
BRANCH   1   5
ATOM      2  C   LIG A   1      -8.795   2.789 133.145  0.00  0.00    -0.046 A 
ATOM      3  C   LIG A   1      -9.696   2.018 132.397  0.00  0.00    +0.007 A 
ATOM      4  C   LIG A   1      -9.317   0.768 131.876  0.00  0.00    +0.046 A 
ATOM      5  C   LIG A   1      -8.004   0.315 132.026  0.00  0.00    +0.121 A 
ATOM      6  C   LIG A   1      -7.148   1.023 132.872  0.00  0.00    +0.046 A 
ATOM      7  C   LIG A   1      -7.544   2.239 133.438  0.00  0.00    +0.007 A 
BRANCH   2   8
ATOM      8  C   LIG A   1      -9.170   4.169 133.644  0.00  0.00    +0.054 C 
BRANCH   8   9
ATOM      9  C   LIG A   1      -8.402   5.314 132.965  0.00  0.00    +0.109 C 
BRANCH   9  12
ATOM     10  O   LIG A   1      -9.397   4.896 130.350  0.00  0.00    -0.270 OA
ATOM     11  C   LIG A   1      -9.711   5.940 130.947  0.00  0.00    +0.244 C 
ATOM     12  N   LIG A   1      -9.271   6.225 132.237  0.00  0.00    -0.311 N 
ATOM     13  H   LIG A   1      -9.410   7.140 132.622  0.00  0.00    +0.149 HD
BRANCH  11  14
ATOM     14  C   LIG A   1     -10.579   6.941 130.260  0.00  0.00    +0.037 A 
ATOM     15  C   LIG A   1     -10.152   7.658 129.114  0.00  0.00    +0.013 A 
ATOM     16  C   LIG A   1     -11.020   8.551 128.479  0.00  0.00    +0.001 A 
ATOM     17  C   LIG A   1     -12.296   8.781 128.985  0.00  0.00    +0.000 A 
ATOM     18  C   LIG A   1     -12.714   8.112 130.137  0.00  0.00    +0.001 A 
ATOM     19  C   LIG A   1     -11.866   7.197 130.758  0.00  0.00    +0.013 A 
ENDBRANCH  11  14
ENDBRANCH   9  12
ENDBRANCH   8   9
ENDBRANCH   2   8
ENDBRANCH   1   5
BRANCH   1  20
ATOM     20  C   LIG A   1      -6.750  -0.532 130.222  0.00  0.00    +0.257 C 
BRANCH  20  21
ATOM     21  C   LIG A   1      -7.514  -0.448 128.921  0.00  0.00    +0.015 C 
ATOM     22  C   LIG A   1      -7.862   0.662 128.226  0.00  0.00    -0.045 C 
ATOM     23  C   LIG A   1      -7.659   2.076 128.721  0.00  0.00    +0.041 C 
BRANCH  22  24
ATOM     24  C   LIG A   1      -8.641   0.565 126.922  0.00  0.00    +0.144 C 
BRANCH  24  25
ATOM     25  O   LIG A   1      -8.872   1.928 126.577  0.00  0.00    -0.387 OA
ATOM     26  H   LIG A   1      -9.652   1.933 125.994  0.00  0.00    +0.210 HD
ENDBRANCH  24  25
BRANCH  24  27
ATOM     27  C   LIG A   1      -7.950  -0.185 125.746  0.00  0.00    +0.083 C 
BRANCH  27  28
ATOM     28  C   LIG A   1      -8.945  -0.705 124.655  0.00  0.00    +0.210 C 
BRANCH  28  29
ATOM     29  C   LIG A   1      -8.939  -2.267 124.459  0.00  0.00    +0.097 C 
ATOM     30  C   LIG A   1      -7.634  -2.769 123.799  0.00  0.00    +0.045 C 
ATOM     31  C   LIG A   1      -9.159  -3.062 125.751  0.00  0.00    +0.045 C 
BRANCH  29  32
ATOM     32  O   LIG A   1     -10.032  -2.627 123.594  0.00  0.00    -0.386 OA
ATOM     33  H   LIG A   1      -9.719  -2.597 122.673  0.00  0.00    +0.210 HD
ENDBRANCH  29  32
ENDBRANCH  28  29
BRANCH  28  34
ATOM     34  O   LIG A   1      -8.637  -0.042 123.405  0.00  0.00    -0.459 OA
BRANCH  34  35
ATOM     35  C   LIG A   1      -9.649   0.674 122.856  0.00  0.00    +0.304 C 
ATOM     36  C   LIG A   1      -9.273   2.138 122.784  0.00  0.00    +0.136 C 
ATOM     37  O   LIG A   1     -10.778   0.249 122.582  0.00  0.00    -0.251 OA
ENDBRANCH  34  35
ENDBRANCH  28  34
ENDBRANCH  27  28
ENDBRANCH  24  27
ENDBRANCH  22  24
ENDBRANCH  20  21
ENDBRANCH   1  20
TORSDOF 15
ENDMDL
MODEL 2
REMARK VINA RESULT:      -7.8      1.662      2.693
REMARK  Name = NuBBE_981
REMARK  19 active torsions:
REMARK  status: ('A' for Active; 'I' for Inactive)
REMARK    1  A    between atoms: C_2  and  C_30
REMARK    2  A    between atoms: N_3  and  C_4
REMARK    3  A    between atoms: C_4  and  C_5
REMARK    4  A    between atoms: C_5  and  C_6
REMARK    5  A    between atoms: C_9  and  O_10
REMARK    6  A    between atoms: O_10  and  C_11
REMARK    7  A    between atoms: C_11  and  C_12
REMARK    8  A    between atoms: C_13  and  C_14
REMARK    9  A    between atoms: C_13  and  C_15
REMARK   10  A    between atoms: C_15  and  O_16
REMARK   11  A    between atoms: C_15  and  C_17
REMARK   12  A    between atoms: C_17  and  C_18
REMARK   13  A    between atoms: C_18  and  O_19
REMARK   14  A    between atoms: C_18  and  C_23
REMARK   15  A    between atoms: O_19  and  C_20
REMARK   16  A    between atoms: C_20  and  C_21
REMARK   17  A    between atoms: C_23  and  C_24
REMARK   18  A    between atoms: C_23  and  C_25
REMARK   19  A    between atoms: C_23  and  O_26
REMARK                            x       y       z     vdW  Elec       q    Type
REMARK                         _______ _______ _______ _____ _____    ______ ____
ROOT
ATOM      1  O   LIG A   1      -8.547  -0.431 130.868  0.00  0.00    -0.488 OA
ENDROOT
BRANCH   1   5
ATOM      2  C   LIG A   1      -8.537   2.899 133.434  0.00  0.00    -0.046 A 
ATOM      3  C   LIG A   1      -9.688   2.521 132.728  0.00  0.00    +0.007 A 
ATOM      4  C   LIG A   1      -9.703   1.351 131.947  0.00  0.00    +0.046 A 
ATOM      5  C   LIG A   1      -8.539   0.593 131.796  0.00  0.00    +0.121 A 
ATOM      6  C   LIG A   1      -7.435   0.902 132.593  0.00  0.00    +0.046 A 
ATOM      7  C   LIG A   1      -7.439   2.034 133.414  0.00  0.00    +0.007 A 
BRANCH   2   8
ATOM      8  C   LIG A   1      -8.487   4.196 134.214  0.00  0.00    +0.054 C 
BRANCH   8   9
ATOM      9  C   LIG A   1      -8.082   5.420 133.377  0.00  0.00    +0.109 C 
BRANCH   9  12
ATOM     10  O   LIG A   1      -8.344   5.828 130.589  0.00  0.00    -0.270 OA
ATOM     11  C   LIG A   1      -9.256   6.219 131.337  0.00  0.00    +0.244 C 
ATOM     12  N   LIG A   1      -9.213   6.056 132.720  0.00  0.00    -0.311 N 
ATOM     13  H   LIG A   1      -9.883   6.523 133.300  0.00  0.00    +0.149 HD
BRANCH  11  14
ATOM     14  C   LIG A   1     -10.441   6.907 130.745  0.00  0.00    +0.037 A 
ATOM     15  C   LIG A   1     -10.360   7.675 129.557  0.00  0.00    +0.013 A 
ATOM     16  C   LIG A   1     -11.508   8.260 129.017  0.00  0.00    +0.001 A 
ATOM     17  C   LIG A   1     -12.737   8.134 129.658  0.00  0.00    +0.000 A 
ATOM     18  C   LIG A   1     -12.824   7.414 130.851  0.00  0.00    +0.001 A 
ATOM     19  C   LIG A   1     -11.689   6.801 131.380  0.00  0.00    +0.013 A 
ENDBRANCH  11  14
ENDBRANCH   9  12
ENDBRANCH   8   9
ENDBRANCH   2   8
ENDBRANCH   1   5
BRANCH   1  20
ATOM     20  C   LIG A   1      -7.232  -0.977 130.624  0.00  0.00    +0.257 C 
BRANCH  20  21
ATOM     21  C   LIG A   1      -7.037  -1.325 129.167  0.00  0.00    +0.015 C 
ATOM     22  C   LIG A   1      -7.542  -2.380 128.484  0.00  0.00    -0.045 C 
ATOM     23  C   LIG A   1      -8.311  -3.517 129.119  0.00  0.00    +0.041 C 
BRANCH  22  24
ATOM     24  C   LIG A   1      -7.240  -2.583 127.006  0.00  0.00    +0.144 C 
BRANCH  24  25
ATOM     25  O   LIG A   1      -8.257  -3.489 126.586  0.00  0.00    -0.387 OA
ATOM     26  H   LIG A   1      -8.826  -2.993 125.971  0.00  0.00    +0.210 HD
ENDBRANCH  24  25
BRANCH  24  27
ATOM     27  C   LIG A   1      -7.240  -1.311 126.109  0.00  0.00    +0.083 C 
BRANCH  27  28
ATOM     28  C   LIG A   1      -7.391  -1.614 124.581  0.00  0.00    +0.210 C 
BRANCH  28  29
ATOM     29  C   LIG A   1      -8.875  -1.595 124.056  0.00  0.00    +0.097 C 
ATOM     30  C   LIG A   1      -9.117  -0.470 123.025  0.00  0.00    +0.045 C 
ATOM     31  C   LIG A   1      -9.338  -2.919 123.439  0.00  0.00    +0.045 C 
BRANCH  29  32
ATOM     32  O   LIG A   1      -9.755  -1.361 125.172  0.00  0.00    -0.386 OA
ATOM     33  H   LIG A   1     -10.673  -1.461 124.865  0.00  0.00    +0.210 HD
ENDBRANCH  29  32
ENDBRANCH  28  29
BRANCH  28  34
ATOM     34  O   LIG A   1      -6.781  -2.898 124.309  0.00  0.00    -0.459 OA
BRANCH  34  35
ATOM     35  C   LIG A   1      -5.814  -2.899 123.359  0.00  0.00    +0.304 C 
ATOM     36  C   LIG A   1      -4.650  -3.760 123.798  0.00  0.00    +0.136 C 
ATOM     37  O   LIG A   1      -5.791  -2.195 122.341  0.00  0.00    -0.251 OA
ENDBRANCH  34  35
ENDBRANCH  28  34
ENDBRANCH  27  28
ENDBRANCH  24  27
ENDBRANCH  22  24
ENDBRANCH  20  21
ENDBRANCH   1  20
TORSDOF 15
ENDMDL
MODEL 3
REMARK VINA RESULT:      -7.8      1.236      2.509
REMARK  Name = NuBBE_981
REMARK  19 active torsions:
REMARK  status: ('A' for Active; 'I' for Inactive)
REMARK    1  A    between atoms: C_2  and  C_30
REMARK    2  A    between atoms: N_3  and  C_4
REMARK    3  A    between atoms: C_4  and  C_5
REMARK    4  A    between atoms: C_5  and  C_6
REMARK    5  A    between atoms: C_9  and  O_10
REMARK    6  A    between atoms: O_10  and  C_11
REMARK    7  A    between atoms: C_11  and  C_12
REMARK    8  A    between atoms: C_13  and  C_14
REMARK    9  A    between atoms: C_13  and  C_15
REMARK   10  A    between atoms: C_15  and  O_16
REMARK   11  A    between atoms: C_15  and  C_17
REMARK   12  A    between atoms: C_17  and  C_18
REMARK   13  A    between atoms: C_18  and  O_19
REMARK   14  A    between atoms: C_18  and  C_23
REMARK   15  A    between atoms: O_19  and  C_20
REMARK   16  A    between atoms: C_20  and  C_21
REMARK   17  A    between atoms: C_23  and  C_24
REMARK   18  A    between atoms: C_23  and  C_25
REMARK   19  A    between atoms: C_23  and  O_26
REMARK                            x       y       z     vdW  Elec       q    Type
REMARK                         _______ _______ _______ _____ _____    ______ ____
ROOT
ATOM      1  O   LIG A   1      -8.338  -0.929 131.264  0.00  0.00    -0.488 OA
ENDROOT
BRANCH   1   5
ATOM      2  C   LIG A   1      -8.474   2.727 133.336  0.00  0.00    -0.046 A 
ATOM      3  C   LIG A   1      -7.294   1.973 133.255  0.00  0.00    +0.007 A 
ATOM      4  C   LIG A   1      -7.239   0.800 132.480  0.00  0.00    +0.046 A 
ATOM      5  C   LIG A   1      -8.390   0.323 131.847  0.00  0.00    +0.121 A 
ATOM      6  C   LIG A   1      -9.525   1.136 131.829  0.00  0.00    +0.046 A 
ATOM      7  C   LIG A   1      -9.562   2.332 132.552  0.00  0.00    +0.007 A 
BRANCH   2   8
ATOM      8  C   LIG A   1      -8.564   3.947 134.228  0.00  0.00    +0.054 C 
BRANCH   8   9
ATOM      9  C   LIG A   1      -8.104   5.252 133.559  0.00  0.00    +0.109 C 
BRANCH   9  12
ATOM     10  O   LIG A   1      -8.666   5.250 130.786  0.00  0.00    -0.270 OA
ATOM     11  C   LIG A   1      -9.392   5.918 131.541  0.00  0.00    +0.244 C 
ATOM     12  N   LIG A   1      -9.192   5.973 132.918  0.00  0.00    -0.311 N 
ATOM     13  H   LIG A   1      -9.693   6.643 133.470  0.00  0.00    +0.149 HD
BRANCH  11  14
ATOM     14  C   LIG A   1     -10.517   6.710 130.959  0.00  0.00    +0.037 A 
ATOM     15  C   LIG A   1     -10.367   7.501 129.793  0.00  0.00    +0.013 A 
ATOM     16  C   LIG A   1     -11.462   8.186 129.261  0.00  0.00    +0.001 A 
ATOM     17  C   LIG A   1     -12.703   8.138 129.891  0.00  0.00    +0.000 A 
ATOM     18  C   LIG A   1     -12.855   7.397 131.063  0.00  0.00    +0.001 A 
ATOM     19  C   LIG A   1     -11.774   6.685 131.583  0.00  0.00    +0.013 A 
ENDBRANCH  11  14
ENDBRANCH   9  12
ENDBRANCH   8   9
ENDBRANCH   2   8
ENDBRANCH   1   5
BRANCH   1  20
ATOM     20  C   LIG A   1      -7.145  -1.132 130.477  0.00  0.00    +0.257 C 
BRANCH  20  21
ATOM     21  C   LIG A   1      -7.477  -1.436 129.035  0.00  0.00    +0.015 C 
ATOM     22  C   LIG A   1      -7.741  -0.561 128.035  0.00  0.00    -0.045 C 
ATOM     23  C   LIG A   1      -7.892   0.931 128.227  0.00  0.00    +0.041 C 
BRANCH  22  24
ATOM     24  C   LIG A   1      -8.061  -1.043 126.627  0.00  0.00    +0.144 C 
BRANCH  24  25
ATOM     25  O   LIG A   1      -8.352  -2.426 126.814  0.00  0.00    -0.387 OA
ATOM     26  H   LIG A   1      -9.313  -2.522 126.683  0.00  0.00    +0.210 HD
ENDBRANCH  24  25
BRANCH  24  27
ATOM     27  C   LIG A   1      -9.237  -0.334 125.893  0.00  0.00    +0.083 C 
BRANCH  27  28
ATOM     28  C   LIG A   1      -8.889   0.123 124.437  0.00  0.00    +0.210 C 
BRANCH  28  29
ATOM     29  C   LIG A   1      -9.293   1.609 124.106  0.00  0.00    +0.097 C 
ATOM     30  C   LIG A   1      -8.478   2.633 124.927  0.00  0.00    +0.045 C 
ATOM     31  C   LIG A   1      -9.170   1.976 122.624  0.00  0.00    +0.045 C 
BRANCH  29  32
ATOM     32  O   LIG A   1     -10.683   1.792 124.434  0.00  0.00    -0.386 OA
ATOM     33  H   LIG A   1     -10.741   2.350 125.230  0.00  0.00    +0.210 HD
ENDBRANCH  29  32
ENDBRANCH  28  29
BRANCH  28  34
ATOM     34  O   LIG A   1      -9.528  -0.787 123.510  0.00  0.00    -0.459 OA
BRANCH  34  35
ATOM     35  C   LIG A   1      -8.743  -1.783 123.031  0.00  0.00    +0.304 C 
ATOM     36  C   LIG A   1      -9.338  -3.130 123.377  0.00  0.00    +0.136 C 
ATOM     37  O   LIG A   1      -7.626  -1.647 122.515  0.00  0.00    -0.251 OA
ENDBRANCH  34  35
ENDBRANCH  28  34
ENDBRANCH  27  28
ENDBRANCH  24  27
ENDBRANCH  22  24
ENDBRANCH  20  21
ENDBRANCH   1  20
TORSDOF 15
ENDMDL
MODEL 4
REMARK VINA RESULT:      -7.6      1.337      1.801
REMARK  Name = NuBBE_981
REMARK  19 active torsions:
REMARK  status: ('A' for Active; 'I' for Inactive)
REMARK    1  A    between atoms: C_2  and  C_30
REMARK    2  A    between atoms: N_3  and  C_4
REMARK    3  A    between atoms: C_4  and  C_5
REMARK    4  A    between atoms: C_5  and  C_6
REMARK    5  A    between atoms: C_9  and  O_10
REMARK    6  A    between atoms: O_10  and  C_11
REMARK    7  A    between atoms: C_11  and  C_12
REMARK    8  A    between atoms: C_13  and  C_14
REMARK    9  A    between atoms: C_13  and  C_15
REMARK   10  A    between atoms: C_15  and  O_16
REMARK   11  A    between atoms: C_15  and  C_17
REMARK   12  A    between atoms: C_17  and  C_18
REMARK   13  A    between atoms: C_18  and  O_19
REMARK   14  A    between atoms: C_18  and  C_23
REMARK   15  A    between atoms: O_19  and  C_20
REMARK   16  A    between atoms: C_20  and  C_21
REMARK   17  A    between atoms: C_23  and  C_24
REMARK   18  A    between atoms: C_23  and  C_25
REMARK   19  A    between atoms: C_23  and  O_26
REMARK                            x       y       z     vdW  Elec       q    Type
REMARK                         _______ _______ _______ _____ _____    ______ ____
ROOT
ATOM      1  O   LIG A   1      -7.578  -1.032 131.676  0.00  0.00    -0.488 OA
ENDROOT
BRANCH   1   5
ATOM      2  C   LIG A   1      -8.880   2.691 133.131  0.00  0.00    -0.046 A 
ATOM      3  C   LIG A   1      -7.561   2.252 133.314  0.00  0.00    +0.007 A 
ATOM      4  C   LIG A   1      -7.115   1.048 132.741  0.00  0.00    +0.046 A 
ATOM      5  C   LIG A   1      -8.009   0.227 132.050  0.00  0.00    +0.121 A 
ATOM      6  C   LIG A   1      -9.283   0.721 131.765  0.00  0.00    +0.046 A 
ATOM      7  C   LIG A   1      -9.710   1.946 132.287  0.00  0.00    +0.007 A 
BRANCH   2   8
ATOM      8  C   LIG A   1      -9.390   3.946 133.807  0.00  0.00    +0.054 C 
BRANCH   8   9
ATOM      9  C   LIG A   1      -8.817   5.250 133.229  0.00  0.00    +0.109 C 
BRANCH   9  12
ATOM     10  O   LIG A   1      -8.286   6.232 130.629  0.00  0.00    -0.270 OA
ATOM     11  C   LIG A   1      -9.415   6.412 131.115  0.00  0.00    +0.244 C 
ATOM     12  N   LIG A   1      -9.765   5.959 132.385  0.00  0.00    -0.311 N 
ATOM     13  H   LIG A   1     -10.624   6.260 132.804  0.00  0.00    +0.149 HD
BRANCH  11  14
ATOM     14  C   LIG A   1     -10.440   7.155 130.324  0.00  0.00    +0.037 A 
ATOM     15  C   LIG A   1     -10.116   7.876 129.148  0.00  0.00    +0.013 A 
ATOM     16  C   LIG A   1     -11.120   8.517 128.416  0.00  0.00    +0.001 A 
ATOM     17  C   LIG A   1     -12.442   8.492 128.853  0.00  0.00    +0.000 A 
ATOM     18  C   LIG A   1     -12.768   7.820 130.032  0.00  0.00    +0.001 A 
ATOM     19  C   LIG A   1     -11.778   7.153 130.751  0.00  0.00    +0.013 A 
ENDBRANCH  11  14
ENDBRANCH   9  12
ENDBRANCH   8   9
ENDBRANCH   2   8
ENDBRANCH   1   5
BRANCH   1  20
ATOM     20  C   LIG A   1      -6.313  -1.009 130.981  0.00  0.00    +0.257 C 
BRANCH  20  21
ATOM     21  C   LIG A   1      -6.450  -1.514 129.564  0.00  0.00    +0.015 C 
ATOM     22  C   LIG A   1      -6.885  -0.840 128.473  0.00  0.00    -0.045 C 
ATOM     23  C   LIG A   1      -7.466   0.556 128.510  0.00  0.00    +0.041 C 
BRANCH  22  24
ATOM     24  C   LIG A   1      -6.963  -1.509 127.108  0.00  0.00    +0.144 C 
BRANCH  24  25
ATOM     25  O   LIG A   1      -5.856  -2.407 127.122  0.00  0.00    -0.387 OA
ATOM     26  H   LIG A   1      -6.115  -3.167 126.569  0.00  0.00    +0.210 HD
ENDBRANCH  24  25
BRANCH  24  27
ATOM     27  C   LIG A   1      -8.278  -2.271 126.775  0.00  0.00    +0.083 C 
BRANCH  27  28
ATOM     28  C   LIG A   1      -8.966  -1.798 125.450  0.00  0.00    +0.210 C 
BRANCH  28  29
ATOM     29  C   LIG A   1      -8.746  -2.758 124.222  0.00  0.00    +0.097 C 
ATOM     30  C   LIG A   1      -8.219  -2.006 122.979  0.00  0.00    +0.045 C 
ATOM     31  C   LIG A   1      -7.803  -3.932 124.507  0.00  0.00    +0.045 C 
BRANCH  29  32
ATOM     32  O   LIG A   1     -10.008  -3.353 123.871  0.00  0.00    -0.386 OA
ATOM     33  H   LIG A   1     -10.568  -2.669 123.463  0.00  0.00    +0.210 HD
ENDBRANCH  29  32
ENDBRANCH  28  29
BRANCH  28  34
ATOM     34  O   LIG A   1      -8.485  -0.468 125.138  0.00  0.00    -0.459 OA
BRANCH  34  35
ATOM     35  C   LIG A   1      -9.400   0.527 125.250  0.00  0.00    +0.304 C 
ATOM     36  C   LIG A   1      -8.715   1.875 125.191  0.00  0.00    +0.136 C 
ATOM     37  O   LIG A   1     -10.602   0.387 125.510  0.00  0.00    -0.251 OA
ENDBRANCH  34  35
ENDBRANCH  28  34
ENDBRANCH  27  28
ENDBRANCH  24  27
ENDBRANCH  22  24
ENDBRANCH  20  21
ENDBRANCH   1  20
TORSDOF 15
ENDMDL
MODEL 5
REMARK VINA RESULT:      -7.6      3.254      8.756
REMARK  Name = NuBBE_981
REMARK  19 active torsions:
REMARK  status: ('A' for Active; 'I' for Inactive)
REMARK    1  A    between atoms: C_2  and  C_30
REMARK    2  A    between atoms: N_3  and  C_4
REMARK    3  A    between atoms: C_4  and  C_5
REMARK    4  A    between atoms: C_5  and  C_6
REMARK    5  A    between atoms: C_9  and  O_10
REMARK    6  A    between atoms: O_10  and  C_11
REMARK    7  A    between atoms: C_11  and  C_12
REMARK    8  A    between atoms: C_13  and  C_14
REMARK    9  A    between atoms: C_13  and  C_15
REMARK   10  A    between atoms: C_15  and  O_16
REMARK   11  A    between atoms: C_15  and  C_17
REMARK   12  A    between atoms: C_17  and  C_18
REMARK   13  A    between atoms: C_18  and  O_19
REMARK   14  A    between atoms: C_18  and  C_23
REMARK   15  A    between atoms: O_19  and  C_20
REMARK   16  A    between atoms: C_20  and  C_21
REMARK   17  A    between atoms: C_23  and  C_24
REMARK   18  A    between atoms: C_23  and  C_25
REMARK   19  A    between atoms: C_23  and  O_26
REMARK                            x       y       z     vdW  Elec       q    Type
REMARK                         _______ _______ _______ _____ _____    ______ ____
ROOT
ATOM      1  O   LIG A   1      -8.493   3.769 134.404  0.00  0.00    -0.488 OA
ENDROOT
BRANCH   1   5
ATOM      2  C   LIG A   1      -7.130   1.091 131.463  0.00  0.00    -0.046 A 
ATOM      3  C   LIG A   1      -8.498   1.296 131.691  0.00  0.00    +0.007 A 
ATOM      4  C   LIG A   1      -8.940   2.264 132.612  0.00  0.00    +0.046 A 
ATOM      5  C   LIG A   1      -8.014   2.977 133.378  0.00  0.00    +0.121 A 
ATOM      6  C   LIG A   1      -6.659   2.860 133.063  0.00  0.00    +0.046 A 
ATOM      7  C   LIG A   1      -6.222   1.939 132.106  0.00  0.00    +0.007 A 
BRANCH   2   8
ATOM      8  C   LIG A   1      -6.645   0.001 130.532  0.00  0.00    +0.054 C 
BRANCH   8   9
ATOM      9  C   LIG A   1      -7.572  -1.223 130.459  0.00  0.00    +0.109 C 
BRANCH   9  12
ATOM     10  O   LIG A   1      -6.062  -2.831 128.687  0.00  0.00    -0.270 OA
ATOM     11  C   LIG A   1      -7.143  -2.362 128.292  0.00  0.00    +0.244 C 
ATOM     12  N   LIG A   1      -7.952  -1.565 129.097  0.00  0.00    -0.311 N 
ATOM     13  H   LIG A   1      -8.730  -1.076 128.696  0.00  0.00    +0.149 HD
BRANCH  11  14
ATOM     14  C   LIG A   1      -7.594  -2.643 126.897  0.00  0.00    +0.037 A 
ATOM     15  C   LIG A   1      -8.936  -2.970 126.583  0.00  0.00    +0.013 A 
ATOM     16  C   LIG A   1      -9.318  -3.179 125.255  0.00  0.00    +0.001 A 
ATOM     17  C   LIG A   1      -8.381  -3.111 124.228  0.00  0.00    +0.000 A 
ATOM     18  C   LIG A   1      -7.047  -2.831 124.528  0.00  0.00    +0.001 A 
ATOM     19  C   LIG A   1      -6.663  -2.591 125.846  0.00  0.00    +0.013 A 
ENDBRANCH  11  14
ENDBRANCH   9  12
ENDBRANCH   8   9
ENDBRANCH   2   8
ENDBRANCH   1   5
BRANCH   1  20
ATOM     20  C   LIG A   1      -8.124   5.158 134.258  0.00  0.00    +0.257 C 
BRANCH  20  21
ATOM     21  C   LIG A   1      -8.727   5.765 133.013  0.00  0.00    +0.015 C 
ATOM     22  C   LIG A   1      -8.085   6.262 131.929  0.00  0.00    -0.045 C 
ATOM     23  C   LIG A   1      -6.585   6.428 131.830  0.00  0.00    +0.041 C 
BRANCH  22  24
ATOM     24  C   LIG A   1      -8.855   6.844 130.752  0.00  0.00    +0.144 C 
BRANCH  24  25
ATOM     25  O   LIG A   1      -8.315   6.147 129.632  0.00  0.00    -0.387 OA
ATOM     26  H   LIG A   1      -7.382   5.967 129.847  0.00  0.00    +0.210 HD
ENDBRANCH  24  25
BRANCH  24  27
ATOM     27  C   LIG A   1     -10.404   6.701 130.788  0.00  0.00    +0.083 C 
BRANCH  27  28
ATOM     28  C   LIG A   1     -11.131   7.384 129.581  0.00  0.00    +0.210 C 
BRANCH  28  29
ATOM     29  C   LIG A   1     -12.586   7.892 129.899  0.00  0.00    +0.097 C 
ATOM     30  C   LIG A   1     -12.940   7.752 131.397  0.00  0.00    +0.045 C 
ATOM     31  C   LIG A   1     -12.848   9.343 129.480  0.00  0.00    +0.045 C 
BRANCH  29  32
ATOM     32  O   LIG A   1     -13.525   7.099 129.151  0.00  0.00    -0.386 OA
ATOM     33  H   LIG A   1     -13.769   6.324 129.687  0.00  0.00    +0.210 HD
ENDBRANCH  29  32
ENDBRANCH  28  29
BRANCH  28  34
ATOM     34  O   LIG A   1     -11.159   6.447 128.477  0.00  0.00    -0.459 OA
BRANCH  34  35
ATOM     35  C   LIG A   1     -10.425   6.797 127.392  0.00  0.00    +0.304 C 
ATOM     36  C   LIG A   1     -11.092   7.941 126.658  0.00  0.00    +0.136 C 
ATOM     37  O   LIG A   1      -9.435   6.197 126.956  0.00  0.00    -0.251 OA
ENDBRANCH  34  35
ENDBRANCH  28  34
ENDBRANCH  27  28
ENDBRANCH  24  27
ENDBRANCH  22  24
ENDBRANCH  20  21
ENDBRANCH   1  20
TORSDOF 15
ENDMDL
MODEL 6
REMARK VINA RESULT:      -7.6      2.988      3.850
REMARK  Name = NuBBE_981
REMARK  19 active torsions:
REMARK  status: ('A' for Active; 'I' for Inactive)
REMARK    1  A    between atoms: C_2  and  C_30
REMARK    2  A    between atoms: N_3  and  C_4
REMARK    3  A    between atoms: C_4  and  C_5
REMARK    4  A    between atoms: C_5  and  C_6
REMARK    5  A    between atoms: C_9  and  O_10
REMARK    6  A    between atoms: O_10  and  C_11
REMARK    7  A    between atoms: C_11  and  C_12
REMARK    8  A    between atoms: C_13  and  C_14
REMARK    9  A    between atoms: C_13  and  C_15
REMARK   10  A    between atoms: C_15  and  O_16
REMARK   11  A    between atoms: C_15  and  C_17
REMARK   12  A    between atoms: C_17  and  C_18
REMARK   13  A    between atoms: C_18  and  O_19
REMARK   14  A    between atoms: C_18  and  C_23
REMARK   15  A    between atoms: O_19  and  C_20
REMARK   16  A    between atoms: C_20  and  C_21
REMARK   17  A    between atoms: C_23  and  C_24
REMARK   18  A    between atoms: C_23  and  C_25
REMARK   19  A    between atoms: C_23  and  O_26
REMARK                            x       y       z     vdW  Elec       q    Type
REMARK                         _______ _______ _______ _____ _____    ______ ____
ROOT
ATOM      1  O   LIG A   1      -7.136  -0.288 131.454  0.00  0.00    -0.488 OA
ENDROOT
BRANCH   1   5
ATOM      2  C   LIG A   1      -8.755   3.148 133.256  0.00  0.00    -0.046 A 
ATOM      3  C   LIG A   1      -9.542   2.288 132.477  0.00  0.00    +0.007 A 
ATOM      4  C   LIG A   1      -9.010   1.094 131.958  0.00  0.00    +0.046 A 
ATOM      5  C   LIG A   1      -7.659   0.790 132.143  0.00  0.00    +0.121 A 
ATOM      6  C   LIG A   1      -6.912   1.581 133.018  0.00  0.00    +0.046 A 
ATOM      7  C   LIG A   1      -7.458   2.739 133.581  0.00  0.00    +0.007 A 
BRANCH   2   8
ATOM      8  C   LIG A   1      -9.297   4.472 133.753  0.00  0.00    +0.054 C 
BRANCH   8   9
ATOM      9  C   LIG A   1      -8.874   5.683 132.907  0.00  0.00    +0.109 C 
BRANCH   9  12
ATOM     10  O   LIG A   1      -8.440   7.221 130.572  0.00  0.00    -0.270 OA
ATOM     11  C   LIG A   1      -9.599   6.867 130.845  0.00  0.00    +0.244 C 
ATOM     12  N   LIG A   1      -9.904   6.106 131.971  0.00  0.00    -0.311 N 
ATOM     13  H   LIG A   1     -10.860   5.977 132.244  0.00  0.00    +0.149 HD
BRANCH  11  14
ATOM     14  C   LIG A   1     -10.719   7.282 129.949  0.00  0.00    +0.037 A 
ATOM     15  C   LIG A   1     -12.073   6.977 130.234  0.00  0.00    +0.013 A 
ATOM     16  C   LIG A   1     -13.090   7.428 129.388  0.00  0.00    +0.001 A 
ATOM     17  C   LIG A   1     -12.785   8.145 128.234  0.00  0.00    +0.000 A 
ATOM     18  C   LIG A   1     -11.453   8.416 127.919  0.00  0.00    +0.001 A 
ATOM     19  C   LIG A   1     -10.435   7.997 128.774  0.00  0.00    +0.013 A 
ENDBRANCH  11  14
ENDBRANCH   9  12
ENDBRANCH   8   9
ENDBRANCH   2   8
ENDBRANCH   1   5
BRANCH   1  20
ATOM     20  C   LIG A   1      -5.783  -0.062 131.005  0.00  0.00    +0.257 C 
BRANCH  20  21
ATOM     21  C   LIG A   1      -5.741   0.341 129.549  0.00  0.00    +0.015 C 
ATOM     22  C   LIG A   1      -4.979   1.298 128.968  0.00  0.00    -0.045 C 
ATOM     23  C   LIG A   1      -4.099   2.264 129.728  0.00  0.00    +0.041 C 
BRANCH  22  24
ATOM     24  C   LIG A   1      -5.065   1.578 127.474  0.00  0.00    +0.144 C 
BRANCH  24  25
ATOM     25  O   LIG A   1      -4.959   0.281 126.892  0.00  0.00    -0.387 OA
ATOM     26  H   LIG A   1      -4.342  -0.220 127.455  0.00  0.00    +0.210 HD
ENDBRANCH  24  25
BRANCH  24  27
ATOM     27  C   LIG A   1      -6.349   2.298 126.969  0.00  0.00    +0.083 C 
BRANCH  27  28
ATOM     28  C   LIG A   1      -6.548   3.731 127.568  0.00  0.00    +0.210 C 
BRANCH  28  29
ATOM     29  C   LIG A   1      -7.706   3.839 128.628  0.00  0.00    +0.097 C 
ATOM     30  C   LIG A   1      -8.596   2.576 128.653  0.00  0.00    +0.045 C 
ATOM     31  C   LIG A   1      -7.224   4.113 130.057  0.00  0.00    +0.045 C 
BRANCH  29  32
ATOM     32  O   LIG A   1      -8.543   4.958 128.283  0.00  0.00    -0.386 OA
ATOM     33  H   LIG A   1      -7.971   5.705 128.032  0.00  0.00    +0.210 HD
ENDBRANCH  29  32
ENDBRANCH  28  29
BRANCH  28  34
ATOM     34  O   LIG A   1      -6.782   4.653 126.476  0.00  0.00    -0.459 OA
BRANCH  34  35
ATOM     35  C   LIG A   1      -7.477   4.151 125.425  0.00  0.00    +0.304 C 
ATOM     36  C   LIG A   1      -6.566   3.982 124.228  0.00  0.00    +0.136 C 
ATOM     37  O   LIG A   1      -8.702   3.985 125.373  0.00  0.00    -0.251 OA
ENDBRANCH  34  35
ENDBRANCH  28  34
ENDBRANCH  27  28
ENDBRANCH  24  27
ENDBRANCH  22  24
ENDBRANCH  20  21
ENDBRANCH   1  20
TORSDOF 15
ENDMDL
MODEL 7
REMARK VINA RESULT:      -7.5      3.684      4.836
REMARK  Name = NuBBE_981
REMARK  19 active torsions:
REMARK  status: ('A' for Active; 'I' for Inactive)
REMARK    1  A    between atoms: C_2  and  C_30
REMARK    2  A    between atoms: N_3  and  C_4
REMARK    3  A    between atoms: C_4  and  C_5
REMARK    4  A    between atoms: C_5  and  C_6
REMARK    5  A    between atoms: C_9  and  O_10
REMARK    6  A    between atoms: O_10  and  C_11
REMARK    7  A    between atoms: C_11  and  C_12
REMARK    8  A    between atoms: C_13  and  C_14
REMARK    9  A    between atoms: C_13  and  C_15
REMARK   10  A    between atoms: C_15  and  O_16
REMARK   11  A    between atoms: C_15  and  C_17
REMARK   12  A    between atoms: C_17  and  C_18
REMARK   13  A    between atoms: C_18  and  O_19
REMARK   14  A    between atoms: C_18  and  C_23
REMARK   15  A    between atoms: O_19  and  C_20
REMARK   16  A    between atoms: C_20  and  C_21
REMARK   17  A    between atoms: C_23  and  C_24
REMARK   18  A    between atoms: C_23  and  C_25
REMARK   19  A    between atoms: C_23  and  O_26
REMARK                            x       y       z     vdW  Elec       q    Type
REMARK                         _______ _______ _______ _____ _____    ______ ____
ROOT
ATOM      1  O   LIG A   1      -2.294   5.445 129.246  0.00  0.00    -0.488 OA
ENDROOT
BRANCH   1   5
ATOM      2  C   LIG A   1      -5.572   5.880 131.842  0.00  0.00    -0.046 A 
ATOM      3  C   LIG A   1      -4.851   4.680 131.766  0.00  0.00    +0.007 A 
ATOM      4  C   LIG A   1      -3.700   4.579 130.963  0.00  0.00    +0.046 A 
ATOM      5  C   LIG A   1      -3.308   5.654 130.162  0.00  0.00    +0.121 A 
ATOM      6  C   LIG A   1      -3.952   6.881 130.331  0.00  0.00    +0.046 A 
ATOM      7  C   LIG A   1      -5.062   6.998 131.174  0.00  0.00    +0.007 A 
BRANCH   2   8
ATOM      8  C   LIG A   1      -6.854   5.975 132.642  0.00  0.00    +0.054 C 
BRANCH   8   9
ATOM      9  C   LIG A   1      -8.005   5.118 132.091  0.00  0.00    +0.109 C 
BRANCH   9  12
ATOM     10  O   LIG A   1      -8.494   5.935 129.427  0.00  0.00    -0.270 OA
ATOM     11  C   LIG A   1      -9.298   6.273 130.311  0.00  0.00    +0.244 C 
ATOM     12  N   LIG A   1      -9.139   5.912 131.647  0.00  0.00    -0.311 N 
ATOM     13  H   LIG A   1      -9.714   6.334 132.351  0.00  0.00    +0.149 HD
BRANCH  11  14
ATOM     14  C   LIG A   1     -10.477   7.113 129.943  0.00  0.00    +0.037 A 
ATOM     15  C   LIG A   1     -11.654   7.159 130.731  0.00  0.00    +0.013 A 
ATOM     16  C   LIG A   1     -12.711   7.997 130.369  0.00  0.00    +0.001 A 
ATOM     17  C   LIG A   1     -12.643   8.764 129.209  0.00  0.00    +0.000 A 
ATOM     18  C   LIG A   1     -11.507   8.696 128.401  0.00  0.00    +0.001 A 
ATOM     19  C   LIG A   1     -10.435   7.887 128.772  0.00  0.00    +0.013 A 
ENDBRANCH  11  14
ENDBRANCH   9  12
ENDBRANCH   8   9
ENDBRANCH   2   8
ENDBRANCH   1   5
BRANCH   1  20
ATOM     20  C   LIG A   1      -2.658   5.839 127.906  0.00  0.00    +0.257 C 
BRANCH  20  21
ATOM     21  C   LIG A   1      -3.634   4.866 127.287  0.00  0.00    +0.015 C 
ATOM     22  C   LIG A   1      -3.377   3.646 126.758  0.00  0.00    -0.045 C 
ATOM     23  C   LIG A   1      -1.989   3.079 126.560  0.00  0.00    +0.041 C 
BRANCH  22  24
ATOM     24  C   LIG A   1      -4.489   2.790 126.168  0.00  0.00    +0.144 C 
BRANCH  24  25
ATOM     25  O   LIG A   1      -4.218   1.494 126.697  0.00  0.00    -0.387 OA
ATOM     26  H   LIG A   1      -4.011   0.926 125.932  0.00  0.00    +0.210 HD
ENDBRANCH  24  25
BRANCH  24  27
ATOM     27  C   LIG A   1      -5.950   3.217 126.494  0.00  0.00    +0.083 C 
BRANCH  27  28
ATOM     28  C   LIG A   1      -6.913   3.166 125.261  0.00  0.00    +0.210 C 
BRANCH  28  29
ATOM     29  C   LIG A   1      -8.108   2.152 125.409  0.00  0.00    +0.097 C 
ATOM     30  C   LIG A   1      -7.921   0.895 124.530  0.00  0.00    +0.045 C 
ATOM     31  C   LIG A   1      -8.368   1.696 126.849  0.00  0.00    +0.045 C 
BRANCH  29  32
ATOM     32  O   LIG A   1      -9.320   2.804 124.987  0.00  0.00    -0.386 OA
ATOM     33  H   LIG A   1      -9.455   3.593 125.541  0.00  0.00    +0.210 HD
ENDBRANCH  29  32
ENDBRANCH  28  29
BRANCH  28  34
ATOM     34  O   LIG A   1      -6.131   2.849 124.084  0.00  0.00    -0.459 OA
BRANCH  34  35
ATOM     35  C   LIG A   1      -6.062   3.826 123.146  0.00  0.00    +0.304 C 
ATOM     36  C   LIG A   1      -6.687   3.351 121.852  0.00  0.00    +0.136 C 
ATOM     37  O   LIG A   1      -5.456   4.899 123.253  0.00  0.00    -0.251 OA
ENDBRANCH  34  35
ENDBRANCH  28  34
ENDBRANCH  27  28
ENDBRANCH  24  27
ENDBRANCH  22  24
ENDBRANCH  20  21
ENDBRANCH   1  20
TORSDOF 15
ENDMDL
MODEL 8
REMARK VINA RESULT:      -7.5      1.862      2.435
REMARK  Name = NuBBE_981
REMARK  19 active torsions:
REMARK  status: ('A' for Active; 'I' for Inactive)
REMARK    1  A    between atoms: C_2  and  C_30
REMARK    2  A    between atoms: N_3  and  C_4
REMARK    3  A    between atoms: C_4  and  C_5
REMARK    4  A    between atoms: C_5  and  C_6
REMARK    5  A    between atoms: C_9  and  O_10
REMARK    6  A    between atoms: O_10  and  C_11
REMARK    7  A    between atoms: C_11  and  C_12
REMARK    8  A    between atoms: C_13  and  C_14
REMARK    9  A    between atoms: C_13  and  C_15
REMARK   10  A    between atoms: C_15  and  O_16
REMARK   11  A    between atoms: C_15  and  C_17
REMARK   12  A    between atoms: C_17  and  C_18
REMARK   13  A    between atoms: C_18  and  O_19
REMARK   14  A    between atoms: C_18  and  C_23
REMARK   15  A    between atoms: O_19  and  C_20
REMARK   16  A    between atoms: C_20  and  C_21
REMARK   17  A    between atoms: C_23  and  C_24
REMARK   18  A    between atoms: C_23  and  C_25
REMARK   19  A    between atoms: C_23  and  O_26
REMARK                            x       y       z     vdW  Elec       q    Type
REMARK                         _______ _______ _______ _____ _____    ______ ____
ROOT
ATOM      1  O   LIG A   1      -8.773  -0.415 131.949  0.00  0.00    -0.488 OA
ENDROOT
BRANCH   1   5
ATOM      2  C   LIG A   1      -8.523   3.782 131.948  0.00  0.00    -0.046 A 
ATOM      3  C   LIG A   1      -9.750   3.120 131.802  0.00  0.00    +0.007 A 
ATOM      4  C   LIG A   1      -9.831   1.719 131.898  0.00  0.00    +0.046 A 
ATOM      5  C   LIG A   1      -8.670   0.959 132.057  0.00  0.00    +0.121 A 
ATOM      6  C   LIG A   1      -7.471   1.623 132.324  0.00  0.00    +0.046 A 
ATOM      7  C   LIG A   1      -7.400   3.019 132.285  0.00  0.00    +0.007 A 
BRANCH   2   8
ATOM      8  C   LIG A   1      -8.415   5.282 131.769  0.00  0.00    +0.054 C 
BRANCH   8   9
ATOM      9  C   LIG A   1      -9.673   6.058 132.189  0.00  0.00    +0.109 C 
BRANCH   9  12
ATOM     10  O   LIG A   1     -12.439   6.654 132.173  0.00  0.00    -0.270 OA
ATOM     11  C   LIG A   1     -11.781   6.848 131.136  0.00  0.00    +0.244 C 
ATOM     12  N   LIG A   1     -10.415   6.588 131.056  0.00  0.00    -0.311 N 
ATOM     13  H   LIG A   1      -9.955   6.603 130.166  0.00  0.00    +0.149 HD
BRANCH  11  14
ATOM     14  C   LIG A   1     -12.473   7.365 129.919  0.00  0.00    +0.037 A 
ATOM     15  C   LIG A   1     -13.024   6.506 128.935  0.00  0.00    +0.013 A 
ATOM     16  C   LIG A   1     -13.704   7.039 127.836  0.00  0.00    +0.001 A 
ATOM     17  C   LIG A   1     -13.812   8.417 127.670  0.00  0.00    +0.000 A 
ATOM     18  C   LIG A   1     -13.238   9.275 128.609  0.00  0.00    +0.001 A 
ATOM     19  C   LIG A   1     -12.586   8.751 129.724  0.00  0.00    +0.013 A 
ENDBRANCH  11  14
ENDBRANCH   9  12
ENDBRANCH   8   9
ENDBRANCH   2   8
ENDBRANCH   1   5
BRANCH   1  20
ATOM     20  C   LIG A   1      -7.601  -1.021 131.364  0.00  0.00    +0.257 C 
BRANCH  20  21
ATOM     21  C   LIG A   1      -7.652  -0.982 129.854  0.00  0.00    +0.015 C 
ATOM     22  C   LIG A   1      -7.380  -1.982 128.982  0.00  0.00    -0.045 C 
ATOM     23  C   LIG A   1      -6.821  -3.330 129.379  0.00  0.00    +0.041 C 
BRANCH  22  24
ATOM     24  C   LIG A   1      -7.479  -1.768 127.478  0.00  0.00    +0.144 C 
BRANCH  24  25
ATOM     25  O   LIG A   1      -6.280  -2.361 126.984  0.00  0.00    -0.387 OA
ATOM     26  H   LIG A   1      -6.005  -3.015 127.652  0.00  0.00    +0.210 HD
ENDBRANCH  24  25
BRANCH  24  27
ATOM     27  C   LIG A   1      -8.721  -2.375 126.764  0.00  0.00    +0.083 C 
BRANCH  27  28
ATOM     28  C   LIG A   1      -8.945  -1.832 125.313  0.00  0.00    +0.210 C 
BRANCH  28  29
ATOM     29  C   LIG A   1      -8.436  -2.790 124.172  0.00  0.00    +0.097 C 
ATOM     30  C   LIG A   1      -9.574  -3.228 123.224  0.00  0.00    +0.045 C 
ATOM     31  C   LIG A   1      -7.303  -2.205 123.322  0.00  0.00    +0.045 C 
BRANCH  29  32
ATOM     32  O   LIG A   1      -7.890  -3.976 124.778  0.00  0.00    -0.386 OA
ATOM     33  H   LIG A   1      -8.607  -4.626 124.884  0.00  0.00    +0.210 HD
ENDBRANCH  29  32
ENDBRANCH  28  29
BRANCH  28  34
ATOM     34  O   LIG A   1      -8.300  -0.540 125.206  0.00  0.00    -0.459 OA
BRANCH  34  35
ATOM     35  C   LIG A   1      -9.114   0.497 124.886  0.00  0.00    +0.304 C 
ATOM     36  C   LIG A   1      -8.441   1.811 125.216  0.00  0.00    +0.136 C 
ATOM     37  O   LIG A   1     -10.292   0.412 124.516  0.00  0.00    -0.251 OA
ENDBRANCH  34  35
ENDBRANCH  28  34
ENDBRANCH  27  28
ENDBRANCH  24  27
ENDBRANCH  22  24
ENDBRANCH  20  21
ENDBRANCH   1  20
TORSDOF 15
ENDMDL
MODEL 9
REMARK VINA RESULT:      -7.4      3.059      4.342
REMARK  Name = NuBBE_981
REMARK  19 active torsions:
REMARK  status: ('A' for Active; 'I' for Inactive)
REMARK    1  A    between atoms: C_2  and  C_30
REMARK    2  A    between atoms: N_3  and  C_4
REMARK    3  A    between atoms: C_4  and  C_5
REMARK    4  A    between atoms: C_5  and  C_6
REMARK    5  A    between atoms: C_9  and  O_10
REMARK    6  A    between atoms: O_10  and  C_11
REMARK    7  A    between atoms: C_11  and  C_12
REMARK    8  A    between atoms: C_13  and  C_14
REMARK    9  A    between atoms: C_13  and  C_15
REMARK   10  A    between atoms: C_15  and  O_16
REMARK   11  A    between atoms: C_15  and  C_17
REMARK   12  A    between atoms: C_17  and  C_18
REMARK   13  A    between atoms: C_18  and  O_19
REMARK   14  A    between atoms: C_18  and  C_23
REMARK   15  A    between atoms: O_19  and  C_20
REMARK   16  A    between atoms: C_20  and  C_21
REMARK   17  A    between atoms: C_23  and  C_24
REMARK   18  A    between atoms: C_23  and  C_25
REMARK   19  A    between atoms: C_23  and  O_26
REMARK                            x       y       z     vdW  Elec       q    Type
REMARK                         _______ _______ _______ _____ _____    ______ ____
ROOT
ATOM      1  O   LIG A   1      -2.670   3.518 128.081  0.00  0.00    -0.488 OA
ENDROOT
BRANCH   1   5
ATOM      2  C   LIG A   1      -5.100   6.026 130.422  0.00  0.00    -0.046 A 
ATOM      3  C   LIG A   1      -5.084   4.636 130.610  0.00  0.00    +0.007 A 
ATOM      4  C   LIG A   1      -4.197   3.820 129.884  0.00  0.00    +0.046 A 
ATOM      5  C   LIG A   1      -3.377   4.378 128.901  0.00  0.00    +0.121 A 
ATOM      6  C   LIG A   1      -3.306   5.769 128.802  0.00  0.00    +0.046 A 
ATOM      7  C   LIG A   1      -4.147   6.585 129.565  0.00  0.00    +0.007 A 
BRANCH   2   8
ATOM      8  C   LIG A   1      -6.103   6.902 131.142  0.00  0.00    +0.054 C 
BRANCH   8   9
ATOM      9  C   LIG A   1      -7.358   6.157 131.626  0.00  0.00    +0.109 C 
BRANCH   9  12
ATOM     10  O   LIG A   1      -8.647   5.684 129.152  0.00  0.00    -0.270 OA
ATOM     11  C   LIG A   1      -9.157   6.494 129.944  0.00  0.00    +0.244 C 
ATOM     12  N   LIG A   1      -8.593   6.785 131.184  0.00  0.00    -0.311 N 
ATOM     13  H   LIG A   1      -8.940   7.556 131.723  0.00  0.00    +0.149 HD
BRANCH  11  14
ATOM     14  C   LIG A   1     -10.412   7.203 129.556  0.00  0.00    +0.037 A 
ATOM     15  C   LIG A   1     -11.483   7.403 130.463  0.00  0.00    +0.013 A 
ATOM     16  C   LIG A   1     -12.619   8.113 130.065  0.00  0.00    +0.001 A 
ATOM     17  C   LIG A   1     -12.734   8.597 128.764  0.00  0.00    +0.000 A 
ATOM     18  C   LIG A   1     -11.705   8.370 127.849  0.00  0.00    +0.001 A 
ATOM     19  C   LIG A   1     -10.555   7.689 128.247  0.00  0.00    +0.013 A 
ENDBRANCH  11  14
ENDBRANCH   9  12
ENDBRANCH   8   9
ENDBRANCH   2   8
ENDBRANCH   1   5
BRANCH   1  20
ATOM     20  C   LIG A   1      -3.093   3.583 126.702  0.00  0.00    +0.257 C 
BRANCH  20  21
ATOM     21  C   LIG A   1      -4.291   2.699 126.448  0.00  0.00    +0.015 C 
ATOM     22  C   LIG A   1      -5.568   3.072 126.190  0.00  0.00    -0.045 C 
ATOM     23  C   LIG A   1      -6.066   4.498 126.250  0.00  0.00    +0.041 C 
BRANCH  22  24
ATOM     24  C   LIG A   1      -6.662   2.040 125.958  0.00  0.00    +0.144 C 
BRANCH  24  25
ATOM     25  O   LIG A   1      -7.847   2.727 126.349  0.00  0.00    -0.387 OA
ATOM     26  H   LIG A   1      -8.491   2.039 126.598  0.00  0.00    +0.210 HD
ENDBRANCH  24  25
BRANCH  24  27
ATOM     27  C   LIG A   1      -6.807   1.484 124.511  0.00  0.00    +0.083 C 
BRANCH  27  28
ATOM     28  C   LIG A   1      -8.135   0.692 124.267  0.00  0.00    +0.210 C 
BRANCH  28  29
ATOM     29  C   LIG A   1      -9.256   1.513 123.528  0.00  0.00    +0.097 C 
ATOM     30  C   LIG A   1      -8.672   2.635 122.640  0.00  0.00    +0.045 C 
ATOM     31  C   LIG A   1     -10.192   0.659 122.665  0.00  0.00    +0.045 C 
BRANCH  29  32
ATOM     32  O   LIG A   1     -10.101   2.132 124.515  0.00  0.00    -0.386 OA
ATOM     33  H   LIG A   1     -11.005   2.185 124.158  0.00  0.00    +0.210 HD
ENDBRANCH  29  32
ENDBRANCH  28  29
BRANCH  28  34
ATOM     34  O   LIG A   1      -8.623   0.218 125.545  0.00  0.00    -0.459 OA
BRANCH  34  35
ATOM     35  C   LIG A   1      -8.323  -1.071 125.845  0.00  0.00    +0.304 C 
ATOM     36  C   LIG A   1      -8.748  -1.983 124.715  0.00  0.00    +0.136 C 
ATOM     37  O   LIG A   1      -7.901  -1.488 126.931  0.00  0.00    -0.251 OA
ENDBRANCH  34  35
ENDBRANCH  28  34
ENDBRANCH  27  28
ENDBRANCH  24  27
ENDBRANCH  22  24
ENDBRANCH  20  21
ENDBRANCH   1  20
TORSDOF 15
ENDMDL
