MODEL 1
REMARK VINA RESULT:      -5.6      0.000      0.000
REMARK  Name = NuBBE_628
REMARK  9 active torsions:
REMARK  status: ('A' for Active; 'I' for Inactive)
REMARK    1  A    between atoms: C_2  and  O_3
REMARK    2  A    between atoms: C_2  and  C_8
REMARK    3  A    between atoms: O_3  and  C_4
REMARK    4  A    between atoms: C_4  and  C_5
REMARK    5  A    between atoms: C_5  and  C_6
REMARK    6  A    between atoms: C_6  and  C_7
REMARK    7  A    between atoms: C_10  and  O_11
REMARK    8  A    between atoms: C_12  and  O_13
REMARK    9  A    between atoms: C_14  and  O_15
REMARK                            x       y       z     vdW  Elec       q    Type
REMARK                         _______ _______ _______ _____ _____    ______ ____
ROOT
ATOM      1  C   LIG A   1      -9.615   5.744 130.295  0.00  0.00    +0.066 A 
ATOM      2  C   LIG A   1      -9.943   4.375 130.330  0.00  0.00    +0.064 A 
ATOM      3  C   LIG A   1     -10.007   3.721 131.558  0.00  0.00    +0.163 A 
ATOM      4  C   LIG A   1      -9.741   4.412 132.735  0.00  0.00    +0.201 A 
ATOM      5  C   LIG A   1      -9.401   5.757 132.695  0.00  0.00    +0.163 A 
ATOM      6  C   LIG A   1      -9.331   6.432 131.485  0.00  0.00    +0.064 A 
ENDROOT
BRANCH   1   8
ATOM      7  O   LIG A   1      -9.391   5.873 127.920  0.00  0.00    -0.245 OA
ATOM      8  C   LIG A   1      -9.585   6.440 128.979  0.00  0.00    +0.339 C 
BRANCH   8   9
ATOM      9  O   LIG A   1      -9.859   7.758 129.158  0.00  0.00    -0.461 OA
BRANCH   9  10
ATOM     10  C   LIG A   1     -10.855   8.342 128.301  0.00  0.00    +0.232 C 
BRANCH  10  11
ATOM     11  C   LIG A   1     -12.081   8.751 129.118  0.00  0.00    +0.041 C 
BRANCH  11  12
ATOM     12  C   LIG A   1     -12.891   7.546 129.597  0.00  0.00    +0.000 C 
ATOM     13  C   LIG A   1     -12.871   7.406 131.114  0.00  0.00    +0.004 C 
ENDBRANCH  11  12
ENDBRANCH  10  11
ENDBRANCH   9  10
ENDBRANCH   8   9
ENDBRANCH   1   8
BRANCH   3  14
ATOM     14  O   LIG A   1     -10.334   2.397 131.664  0.00  0.00    -0.503 OA
ATOM     15  H   LIG A   1     -11.303   2.311 131.608  0.00  0.00    +0.292 HD
ENDBRANCH   3  14
BRANCH   4  16
ATOM     16  O   LIG A   1      -9.814   3.783 133.947  0.00  0.00    -0.501 OA
ATOM     17  H   LIG A   1     -10.253   4.434 134.533  0.00  0.00    +0.292 HD
ENDBRANCH   4  16
BRANCH   5  18
ATOM     18  O   LIG A   1      -9.138   6.434 133.850  0.00  0.00    -0.503 OA
ATOM     19  H   LIG A   1      -9.974   6.397 134.358  0.00  0.00    +0.292 HD
ENDBRANCH   5  18
TORSDOF 8
ENDMDL
MODEL 2
REMARK VINA RESULT:      -5.6      1.933      3.163
REMARK  Name = NuBBE_628
REMARK  9 active torsions:
REMARK  status: ('A' for Active; 'I' for Inactive)
REMARK    1  A    between atoms: C_2  and  O_3
REMARK    2  A    between atoms: C_2  and  C_8
REMARK    3  A    between atoms: O_3  and  C_4
REMARK    4  A    between atoms: C_4  and  C_5
REMARK    5  A    between atoms: C_5  and  C_6
REMARK    6  A    between atoms: C_6  and  C_7
REMARK    7  A    between atoms: C_10  and  O_11
REMARK    8  A    between atoms: C_12  and  O_13
REMARK    9  A    between atoms: C_14  and  O_15
REMARK                            x       y       z     vdW  Elec       q    Type
REMARK                         _______ _______ _______ _____ _____    ______ ____
ROOT
ATOM      1  C   LIG A   1     -10.435   6.414 131.421  0.00  0.00    +0.066 A 
ATOM      2  C   LIG A   1     -10.219   5.744 132.641  0.00  0.00    +0.064 A 
ATOM      3  C   LIG A   1      -8.919   5.605 133.121  0.00  0.00    +0.163 A 
ATOM      4  C   LIG A   1      -7.846   6.115 132.396  0.00  0.00    +0.201 A 
ATOM      5  C   LIG A   1      -8.062   6.758 131.185  0.00  0.00    +0.163 A 
ATOM      6  C   LIG A   1      -9.347   6.910 130.686  0.00  0.00    +0.064 A 
ENDROOT
BRANCH   1   8
ATOM      7  O   LIG A   1     -12.755   6.937 131.650  0.00  0.00    -0.245 OA
ATOM      8  C   LIG A   1     -11.833   6.587 130.937  0.00  0.00    +0.339 C 
BRANCH   8   9
ATOM      9  O   LIG A   1     -11.882   6.350 129.601  0.00  0.00    -0.461 OA
BRANCH   9  10
ATOM     10  C   LIG A   1     -12.797   7.145 128.828  0.00  0.00    +0.232 C 
BRANCH  10  11
ATOM     11  C   LIG A   1     -12.180   8.509 128.517  0.00  0.00    +0.041 C 
BRANCH  11  12
ATOM     12  C   LIG A   1     -10.859   8.391 127.755  0.00  0.00    +0.000 C 
ATOM     13  C   LIG A   1     -11.016   7.628 126.446  0.00  0.00    +0.004 C 
ENDBRANCH  11  12
ENDBRANCH  10  11
ENDBRANCH   9  10
ENDBRANCH   8   9
ENDBRANCH   1   8
BRANCH   3  14
ATOM     14  O   LIG A   1      -8.640   4.980 134.305  0.00  0.00    -0.503 OA
ATOM     15  H   LIG A   1      -7.787   4.518 134.219  0.00  0.00    +0.292 HD
ENDBRANCH   3  14
BRANCH   4  16
ATOM     16  O   LIG A   1      -6.567   5.995 132.864  0.00  0.00    -0.501 OA
ATOM     17  H   LIG A   1      -6.646   5.403 133.640  0.00  0.00    +0.292 HD
ENDBRANCH   4  16
BRANCH   5  18
ATOM     18  O   LIG A   1      -7.009   7.256 130.475  0.00  0.00    -0.503 OA
ATOM     19  H   LIG A   1      -6.312   6.573 130.550  0.00  0.00    +0.292 HD
ENDBRANCH   5  18
TORSDOF 8
ENDMDL
MODEL 3
REMARK VINA RESULT:      -5.6      1.902      2.731
REMARK  Name = NuBBE_628
REMARK  9 active torsions:
REMARK  status: ('A' for Active; 'I' for Inactive)
REMARK    1  A    between atoms: C_2  and  O_3
REMARK    2  A    between atoms: C_2  and  C_8
REMARK    3  A    between atoms: O_3  and  C_4
REMARK    4  A    between atoms: C_4  and  C_5
REMARK    5  A    between atoms: C_5  and  C_6
REMARK    6  A    between atoms: C_6  and  C_7
REMARK    7  A    between atoms: C_10  and  O_11
REMARK    8  A    between atoms: C_12  and  O_13
REMARK    9  A    between atoms: C_14  and  O_15
REMARK                            x       y       z     vdW  Elec       q    Type
REMARK                         _______ _______ _______ _____ _____    ______ ____
ROOT
ATOM      1  C   LIG A   1     -11.609   6.204 131.144  0.00  0.00    +0.066 A 
ATOM      2  C   LIG A   1     -11.327   5.165 130.237  0.00  0.00    +0.064 A 
ATOM      3  C   LIG A   1     -10.287   4.281 130.515  0.00  0.00    +0.163 A 
ATOM      4  C   LIG A   1      -9.530   4.432 131.672  0.00  0.00    +0.201 A 
ATOM      5  C   LIG A   1      -9.799   5.469 132.555  0.00  0.00    +0.163 A 
ATOM      6  C   LIG A   1     -10.830   6.361 132.301  0.00  0.00    +0.064 A 
ENDROOT
BRANCH   1   8
ATOM      7  O   LIG A   1     -13.120   7.994 131.612  0.00  0.00    -0.245 OA
ATOM      8  C   LIG A   1     -12.747   7.120 130.853  0.00  0.00    +0.339 C 
BRANCH   8   9
ATOM      9  O   LIG A   1     -13.238   6.852 129.615  0.00  0.00    -0.461 OA
BRANCH   9  10
ATOM     10  C   LIG A   1     -13.146   7.900 128.635  0.00  0.00    +0.232 C 
BRANCH  10  11
ATOM     11  C   LIG A   1     -12.693   7.328 127.291  0.00  0.00    +0.041 C 
BRANCH  11  12
ATOM     12  C   LIG A   1     -11.229   7.648 126.986  0.00  0.00    +0.000 C 
ATOM     13  C   LIG A   1     -10.582   8.483 128.084  0.00  0.00    +0.004 C 
ENDBRANCH  11  12
ENDBRANCH  10  11
ENDBRANCH   9  10
ENDBRANCH   8   9
ENDBRANCH   1   8
BRANCH   3  14
ATOM     14  O   LIG A   1      -9.970   3.242 129.685  0.00  0.00    -0.503 OA
ATOM     15  H   LIG A   1     -10.625   3.208 128.965  0.00  0.00    +0.292 HD
ENDBRANCH   3  14
BRANCH   4  16
ATOM     16  O   LIG A   1      -8.514   3.562 131.961  0.00  0.00    -0.501 OA
ATOM     17  H   LIG A   1      -8.888   2.971 132.647  0.00  0.00    +0.292 HD
ENDBRANCH   4  16
BRANCH   5  18
ATOM     18  O   LIG A   1      -9.055   5.616 133.689  0.00  0.00    -0.503 OA
ATOM     19  H   LIG A   1      -9.223   4.803 134.206  0.00  0.00    +0.292 HD
ENDBRANCH   5  18
TORSDOF 8
ENDMDL
MODEL 4
REMARK VINA RESULT:      -5.5      8.315     10.680
REMARK  Name = NuBBE_628
REMARK  9 active torsions:
REMARK  status: ('A' for Active; 'I' for Inactive)
REMARK    1  A    between atoms: C_2  and  O_3
REMARK    2  A    between atoms: C_2  and  C_8
REMARK    3  A    between atoms: O_3  and  C_4
REMARK    4  A    between atoms: C_4  and  C_5
REMARK    5  A    between atoms: C_5  and  C_6
REMARK    6  A    between atoms: C_6  and  C_7
REMARK    7  A    between atoms: C_10  and  O_11
REMARK    8  A    between atoms: C_12  and  O_13
REMARK    9  A    between atoms: C_14  and  O_15
REMARK                            x       y       z     vdW  Elec       q    Type
REMARK                         _______ _______ _______ _____ _____    ______ ____
ROOT
ATOM      1  C   LIG A   1      -8.880  -0.036 123.859  0.00  0.00    +0.066 A 
ATOM      2  C   LIG A   1      -8.852   1.009 122.916  0.00  0.00    +0.064 A 
ATOM      3  C   LIG A   1      -8.862   2.329 123.361  0.00  0.00    +0.163 A 
ATOM      4  C   LIG A   1      -8.910   2.610 124.723  0.00  0.00    +0.201 A 
ATOM      5  C   LIG A   1      -8.956   1.577 125.649  0.00  0.00    +0.163 A 
ATOM      6  C   LIG A   1      -8.946   0.254 125.231  0.00  0.00    +0.064 A 
ENDROOT
BRANCH   1   8
ATOM      7  O   LIG A   1      -9.818  -2.139 123.225  0.00  0.00    -0.245 OA
ATOM      8  C   LIG A   1      -8.832  -1.442 123.372  0.00  0.00    +0.339 C 
BRANCH   8   9
ATOM      9  O   LIG A   1      -7.548  -1.775 123.079  0.00  0.00    -0.461 OA
BRANCH   9  10
ATOM     10  C   LIG A   1      -6.954  -2.832 123.852  0.00  0.00    +0.232 C 
BRANCH  10  11
ATOM     11  C   LIG A   1      -5.511  -2.477 124.212  0.00  0.00    +0.041 C 
BRANCH  11  12
ATOM     12  C   LIG A   1      -4.494  -3.260 123.380  0.00  0.00    +0.000 C 
ATOM     13  C   LIG A   1      -4.542  -4.755 123.670  0.00  0.00    +0.004 C 
ENDBRANCH  11  12
ENDBRANCH  10  11
ENDBRANCH   9  10
ENDBRANCH   8   9
ENDBRANCH   1   8
BRANCH   3  14
ATOM     14  O   LIG A   1      -8.821   3.391 122.499  0.00  0.00    -0.503 OA
ATOM     15  H   LIG A   1      -8.908   4.213 123.014  0.00  0.00    +0.292 HD
ENDBRANCH   3  14
BRANCH   4  16
ATOM     16  O   LIG A   1      -8.907   3.902 125.171  0.00  0.00    -0.501 OA
ATOM     17  H   LIG A   1      -8.700   3.828 126.125  0.00  0.00    +0.292 HD
ENDBRANCH   4  16
BRANCH   5  18
ATOM     18  O   LIG A   1      -9.005   1.853 126.984  0.00  0.00    -0.503 OA
ATOM     19  H   LIG A   1      -9.223   2.806 127.034  0.00  0.00    +0.292 HD
ENDBRANCH   5  18
TORSDOF 8
ENDMDL
MODEL 5
REMARK VINA RESULT:      -5.5      1.885      3.352
REMARK  Name = NuBBE_628
REMARK  9 active torsions:
REMARK  status: ('A' for Active; 'I' for Inactive)
REMARK    1  A    between atoms: C_2  and  O_3
REMARK    2  A    between atoms: C_2  and  C_8
REMARK    3  A    between atoms: O_3  and  C_4
REMARK    4  A    between atoms: C_4  and  C_5
REMARK    5  A    between atoms: C_5  and  C_6
REMARK    6  A    between atoms: C_6  and  C_7
REMARK    7  A    between atoms: C_10  and  O_11
REMARK    8  A    between atoms: C_12  and  O_13
REMARK    9  A    between atoms: C_14  and  O_15
REMARK                            x       y       z     vdW  Elec       q    Type
REMARK                         _______ _______ _______ _____ _____    ______ ____
ROOT
ATOM      1  C   LIG A   1     -11.629   6.085 131.028  0.00  0.00    +0.066 A 
ATOM      2  C   LIG A   1     -10.917   6.445 132.187  0.00  0.00    +0.064 A 
ATOM      3  C   LIG A   1      -9.758   5.747 132.520  0.00  0.00    +0.163 A 
ATOM      4  C   LIG A   1      -9.318   4.698 131.719  0.00  0.00    +0.201 A 
ATOM      5  C   LIG A   1     -10.034   4.334 130.587  0.00  0.00    +0.163 A 
ATOM      6  C   LIG A   1     -11.189   5.014 130.234  0.00  0.00    +0.064 A 
ENDROOT
BRANCH   1   8
ATOM      7  O   LIG A   1     -13.504   7.499 131.464  0.00  0.00    -0.245 OA
ATOM      8  C   LIG A   1     -12.845   6.863 130.664  0.00  0.00    +0.339 C 
BRANCH   8   9
ATOM      9  O   LIG A   1     -13.048   6.785 129.323  0.00  0.00    -0.461 OA
BRANCH   9  10
ATOM     10  C   LIG A   1     -13.152   8.026 128.603  0.00  0.00    +0.232 C 
BRANCH  10  11
ATOM     11  C   LIG A   1     -11.843   8.809 128.708  0.00  0.00    +0.041 C 
BRANCH  11  12
ATOM     12  C   LIG A   1     -10.704   8.147 127.932  0.00  0.00    +0.000 C 
ATOM     13  C   LIG A   1     -11.149   7.666 126.556  0.00  0.00    +0.004 C 
ENDBRANCH  11  12
ENDBRANCH  10  11
ENDBRANCH   9  10
ENDBRANCH   8   9
ENDBRANCH   1   8
BRANCH   3  14
ATOM     14  O   LIG A   1      -9.011   6.055 133.623  0.00  0.00    -0.503 OA
ATOM     15  H   LIG A   1      -8.967   7.024 133.708  0.00  0.00    +0.292 HD
ENDBRANCH   3  14
BRANCH   4  16
ATOM     16  O   LIG A   1      -8.175   4.013 132.029  0.00  0.00    -0.501 OA
ATOM     17  H   LIG A   1      -8.134   3.295 131.365  0.00  0.00    +0.292 HD
ENDBRANCH   4  16
BRANCH   5  18
ATOM     18  O   LIG A   1      -9.602   3.304 129.804  0.00  0.00    -0.503 OA
ATOM     19  H   LIG A   1     -10.407   2.979 129.352  0.00  0.00    +0.292 HD
ENDBRANCH   5  18
TORSDOF 8
ENDMDL
MODEL 6
REMARK VINA RESULT:      -5.5      9.146     11.614
REMARK  Name = NuBBE_628
REMARK  9 active torsions:
REMARK  status: ('A' for Active; 'I' for Inactive)
REMARK    1  A    between atoms: C_2  and  O_3
REMARK    2  A    between atoms: C_2  and  C_8
REMARK    3  A    between atoms: O_3  and  C_4
REMARK    4  A    between atoms: C_4  and  C_5
REMARK    5  A    between atoms: C_5  and  C_6
REMARK    6  A    between atoms: C_6  and  C_7
REMARK    7  A    between atoms: C_10  and  O_11
REMARK    8  A    between atoms: C_12  and  O_13
REMARK    9  A    between atoms: C_14  and  O_15
REMARK                            x       y       z     vdW  Elec       q    Type
REMARK                         _______ _______ _______ _____ _____    ______ ____
ROOT
ATOM      1  C   LIG A   1      -6.161   3.590 122.187  0.00  0.00    +0.066 A 
ATOM      2  C   LIG A   1      -6.970   3.463 121.042  0.00  0.00    +0.064 A 
ATOM      3  C   LIG A   1      -6.687   4.237 119.918  0.00  0.00    +0.163 A 
ATOM      4  C   LIG A   1      -5.621   5.131 119.934  0.00  0.00    +0.201 A 
ATOM      5  C   LIG A   1      -4.837   5.266 121.072  0.00  0.00    +0.163 A 
ATOM      6  C   LIG A   1      -5.098   4.507 122.203  0.00  0.00    +0.064 A 
ENDROOT
BRANCH   1   8
ATOM      7  O   LIG A   1      -6.029   2.955 124.486  0.00  0.00    -0.245 OA
ATOM      8  C   LIG A   1      -6.452   2.731 123.368  0.00  0.00    +0.339 C 
BRANCH   8   9
ATOM      9  O   LIG A   1      -7.288   1.725 123.000  0.00  0.00    -0.461 OA
BRANCH   9  10
ATOM     10  C   LIG A   1      -7.055   0.433 123.589  0.00  0.00    +0.232 C 
BRANCH  10  11
ATOM     11  C   LIG A   1      -8.230  -0.500 123.297  0.00  0.00    +0.041 C 
BRANCH  11  12
ATOM     12  C   LIG A   1      -7.775  -1.873 122.802  0.00  0.00    +0.000 C 
ATOM     13  C   LIG A   1      -6.265  -1.946 122.616  0.00  0.00    +0.004 C 
ENDBRANCH  11  12
ENDBRANCH  10  11
ENDBRANCH   9  10
ENDBRANCH   8   9
ENDBRANCH   1   8
BRANCH   3  14
ATOM     14  O   LIG A   1      -7.422   4.152 118.769  0.00  0.00    -0.503 OA
ATOM     15  H   LIG A   1      -7.748   3.239 118.675  0.00  0.00    +0.292 HD
ENDBRANCH   3  14
BRANCH   4  16
ATOM     16  O   LIG A   1      -5.326   5.886 118.833  0.00  0.00    -0.501 OA
ATOM     17  H   LIG A   1      -5.948   5.568 118.146  0.00  0.00    +0.292 HD
ENDBRANCH   4  16
BRANCH   5  18
ATOM     18  O   LIG A   1      -3.794   6.145 121.087  0.00  0.00    -0.503 OA
ATOM     19  H   LIG A   1      -4.101   6.889 121.644  0.00  0.00    +0.292 HD
ENDBRANCH   5  18
TORSDOF 8
ENDMDL
MODEL 7
REMARK VINA RESULT:      -5.4      2.015      5.225
REMARK  Name = NuBBE_628
REMARK  9 active torsions:
REMARK  status: ('A' for Active; 'I' for Inactive)
REMARK    1  A    between atoms: C_2  and  O_3
REMARK    2  A    between atoms: C_2  and  C_8
REMARK    3  A    between atoms: O_3  and  C_4
REMARK    4  A    between atoms: C_4  and  C_5
REMARK    5  A    between atoms: C_5  and  C_6
REMARK    6  A    between atoms: C_6  and  C_7
REMARK    7  A    between atoms: C_10  and  O_11
REMARK    8  A    between atoms: C_12  and  O_13
REMARK    9  A    between atoms: C_14  and  O_15
REMARK                            x       y       z     vdW  Elec       q    Type
REMARK                         _______ _______ _______ _____ _____    ______ ____
ROOT
ATOM      1  C   LIG A   1      -9.837   6.696 130.985  0.00  0.00    +0.066 A 
ATOM      2  C   LIG A   1     -11.105   6.586 131.587  0.00  0.00    +0.064 A 
ATOM      3  C   LIG A   1     -12.201   7.199 130.984  0.00  0.00    +0.163 A 
ATOM      4  C   LIG A   1     -12.040   7.918 129.804  0.00  0.00    +0.201 A 
ATOM      5  C   LIG A   1     -10.785   8.039 129.223  0.00  0.00    +0.163 A 
ATOM      6  C   LIG A   1      -9.678   7.438 129.804  0.00  0.00    +0.064 A 
ENDROOT
BRANCH   1   8
ATOM      7  O   LIG A   1      -7.801   5.447 130.994  0.00  0.00    -0.245 OA
ATOM      8  C   LIG A   1      -8.680   6.006 131.621  0.00  0.00    +0.339 C 
BRANCH   8   9
ATOM      9  O   LIG A   1      -8.749   6.157 132.969  0.00  0.00    -0.461 OA
BRANCH   9  10
ATOM     10  C   LIG A   1      -8.178   5.111 133.774  0.00  0.00    +0.232 C 
BRANCH  10  11
ATOM     11  C   LIG A   1      -9.175   3.963 133.935  0.00  0.00    +0.041 C 
BRANCH  11  12
ATOM     12  C   LIG A   1      -8.723   2.693 133.214  0.00  0.00    +0.000 C 
ATOM     13  C   LIG A   1      -9.706   2.266 132.131  0.00  0.00    +0.004 C 
ENDBRANCH  11  12
ENDBRANCH  10  11
ENDBRANCH   9  10
ENDBRANCH   8   9
ENDBRANCH   1   8
BRANCH   3  14
ATOM     14  O   LIG A   1     -13.462   7.119 131.507  0.00  0.00    -0.503 OA
ATOM     15  H   LIG A   1     -13.440   7.451 132.423  0.00  0.00    +0.292 HD
ENDBRANCH   3  14
BRANCH   4  16
ATOM     16  O   LIG A   1     -13.112   8.512 129.196  0.00  0.00    -0.501 OA
ATOM     17  H   LIG A   1     -12.745   9.331 128.803  0.00  0.00    +0.292 HD
ENDBRANCH   4  16
BRANCH   5  18
ATOM     18  O   LIG A   1     -10.629   8.746 128.067  0.00  0.00    -0.503 OA
ATOM     19  H   LIG A   1      -9.865   8.329 127.620  0.00  0.00    +0.292 HD
ENDBRANCH   5  18
TORSDOF 8
ENDMDL
MODEL 8
REMARK VINA RESULT:      -5.4      2.036      5.197
REMARK  Name = NuBBE_628
REMARK  9 active torsions:
REMARK  status: ('A' for Active; 'I' for Inactive)
REMARK    1  A    between atoms: C_2  and  O_3
REMARK    2  A    between atoms: C_2  and  C_8
REMARK    3  A    between atoms: O_3  and  C_4
REMARK    4  A    between atoms: C_4  and  C_5
REMARK    5  A    between atoms: C_5  and  C_6
REMARK    6  A    between atoms: C_6  and  C_7
REMARK    7  A    between atoms: C_10  and  O_11
REMARK    8  A    between atoms: C_12  and  O_13
REMARK    9  A    between atoms: C_14  and  O_15
REMARK                            x       y       z     vdW  Elec       q    Type
REMARK                         _______ _______ _______ _____ _____    ______ ____
ROOT
ATOM      1  C   LIG A   1     -10.312   5.985 130.002  0.00  0.00    +0.066 A 
ATOM      2  C   LIG A   1     -10.120   6.942 128.988  0.00  0.00    +0.064 A 
ATOM      3  C   LIG A   1     -11.002   8.015 128.887  0.00  0.00    +0.163 A 
ATOM      4  C   LIG A   1     -12.067   8.133 129.774  0.00  0.00    +0.201 A 
ATOM      5  C   LIG A   1     -12.264   7.177 130.761  0.00  0.00    +0.163 A 
ATOM      6  C   LIG A   1     -11.399   6.100 130.883  0.00  0.00    +0.064 A 
ENDROOT
BRANCH   1   8
ATOM      7  O   LIG A   1      -8.167   5.013 130.401  0.00  0.00    -0.245 OA
ATOM      8  C   LIG A   1      -9.341   4.862 130.122  0.00  0.00    +0.339 C 
BRANCH   8   9
ATOM      9  O   LIG A   1      -9.987   3.683 129.926  0.00  0.00    -0.461 OA
BRANCH   9  10
ATOM     10  C   LIG A   1      -9.363   2.500 130.456  0.00  0.00    +0.232 C 
BRANCH  10  11
ATOM     11  C   LIG A   1      -9.932   2.176 131.838  0.00  0.00    +0.041 C 
BRANCH  11  12
ATOM     12  C   LIG A   1      -8.930   2.449 132.960  0.00  0.00    +0.000 C 
ATOM     13  C   LIG A   1      -9.249   3.733 133.716  0.00  0.00    +0.004 C 
ENDBRANCH  11  12
ENDBRANCH  10  11
ENDBRANCH   9  10
ENDBRANCH   8   9
ENDBRANCH   1   8
BRANCH   3  14
ATOM     14  O   LIG A   1     -10.863   8.988 127.935  0.00  0.00    -0.503 OA
ATOM     15  H   LIG A   1     -10.369   8.617 127.182  0.00  0.00    +0.292 HD
ENDBRANCH   3  14
BRANCH   4  16
ATOM     16  O   LIG A   1     -12.931   9.189 129.692  0.00  0.00    -0.501 OA
ATOM     17  H   LIG A   1     -13.782   8.834 130.023  0.00  0.00    +0.292 HD
ENDBRANCH   4  16
BRANCH   5  18
ATOM     18  O   LIG A   1     -13.310   7.292 131.629  0.00  0.00    -0.503 OA
ATOM     19  H   LIG A   1     -13.786   6.440 131.562  0.00  0.00    +0.292 HD
ENDBRANCH   5  18
TORSDOF 8
ENDMDL
MODEL 9
REMARK VINA RESULT:      -5.3      9.098     11.740
REMARK  Name = NuBBE_628
REMARK  9 active torsions:
REMARK  status: ('A' for Active; 'I' for Inactive)
REMARK    1  A    between atoms: C_2  and  O_3
REMARK    2  A    between atoms: C_2  and  C_8
REMARK    3  A    between atoms: O_3  and  C_4
REMARK    4  A    between atoms: C_4  and  C_5
REMARK    5  A    between atoms: C_5  and  C_6
REMARK    6  A    between atoms: C_6  and  C_7
REMARK    7  A    between atoms: C_10  and  O_11
REMARK    8  A    between atoms: C_12  and  O_13
REMARK    9  A    between atoms: C_14  and  O_15
REMARK                            x       y       z     vdW  Elec       q    Type
REMARK                         _______ _______ _______ _____ _____    ______ ____
ROOT
ATOM      1  C   LIG A   1      -6.226   3.559 122.054  0.00  0.00    +0.066 A 
ATOM      2  C   LIG A   1      -5.140   4.450 122.144  0.00  0.00    +0.064 A 
ATOM      3  C   LIG A   1      -4.839   5.269 121.058  0.00  0.00    +0.163 A 
ATOM      4  C   LIG A   1      -5.600   5.199 119.896  0.00  0.00    +0.201 A 
ATOM      5  C   LIG A   1      -6.659   4.306 119.805  0.00  0.00    +0.163 A 
ATOM      6  C   LIG A   1      -6.978   3.480 120.872  0.00  0.00    +0.064 A 
ENDROOT
BRANCH   1   8
ATOM      7  O   LIG A   1      -6.483   3.103 124.385  0.00  0.00    -0.245 OA
ATOM      8  C   LIG A   1      -6.559   2.714 123.235  0.00  0.00    +0.339 C 
BRANCH   8   9
ATOM      9  O   LIG A   1      -6.998   1.500 122.813  0.00  0.00    -0.461 OA
BRANCH   9  10
ATOM     10  C   LIG A   1      -8.044   0.880 123.580  0.00  0.00    +0.232 C 
BRANCH  10  11
ATOM     11  C   LIG A   1      -7.859  -0.638 123.597  0.00  0.00    +0.041 C 
BRANCH  11  12
ATOM     12  C   LIG A   1      -6.395  -1.045 123.767  0.00  0.00    +0.000 C 
ATOM     13  C   LIG A   1      -6.186  -2.539 123.555  0.00  0.00    +0.004 C 
ENDBRANCH  11  12
ENDBRANCH  10  11
ENDBRANCH   9  10
ENDBRANCH   8   9
ENDBRANCH   1   8
BRANCH   3  14
ATOM     14  O   LIG A   1      -3.808   6.167 121.084  0.00  0.00    -0.503 OA
ATOM     15  H   LIG A   1      -3.977   6.814 121.792  0.00  0.00    +0.292 HD
ENDBRANCH   3  14
BRANCH   4  16
ATOM     16  O   LIG A   1      -5.322   6.008 118.828  0.00  0.00    -0.501 OA
ATOM     17  H   LIG A   1      -5.517   5.453 118.045  0.00  0.00    +0.292 HD
ENDBRANCH   4  16
BRANCH   5  18
ATOM     18  O   LIG A   1      -7.403   4.237 118.663  0.00  0.00    -0.503 OA
ATOM     19  H   LIG A   1      -6.784   3.904 117.982  0.00  0.00    +0.292 HD
ENDBRANCH   5  18
TORSDOF 8
ENDMDL
