MODEL 1
REMARK VINA RESULT:      -8.2      0.000      0.000
REMARK  Name = NuBBE_1599
REMARK  3 active torsions:
REMARK  status: ('A' for Active; 'I' for Inactive)
REMARK    1  A    between atoms: C_1  and  C_2
REMARK    2  A    between atoms: C_1  and  C_12
REMARK    3  A    between atoms: C_2  and  C_3
REMARK                            x       y       z     vdW  Elec       q    Type
REMARK                         _______ _______ _______ _____ _____    ______ ____
ROOT
ATOM      1  C   LIG A   1      -6.744   2.600 125.444  0.00  0.00    +0.060 C 
ENDROOT
BRANCH   1   2
ATOM      2  C   LIG A   1      -7.034   2.967 124.009  0.00  0.00    +0.042 A 
ATOM      3  N   LIG A   1      -6.031   3.529 123.289  0.00  0.00    -0.252 NA
ATOM      4  C   LIG A   1      -6.261   3.856 122.002  0.00  0.00    +0.071 A 
ATOM      5  C   LIG A   1      -7.511   3.642 121.380  0.00  0.00    +0.000 A 
ATOM      6  C   LIG A   1      -8.529   3.067 122.142  0.00  0.00    +0.012 A 
ATOM      7  C   LIG A   1      -8.294   2.725 123.466  0.00  0.00    +0.024 A 
ATOM      8  C   LIG A   1      -7.716   4.006 120.037  0.00  0.00    +0.010 A 
ATOM      9  C   LIG A   1      -6.685   4.581 119.300  0.00  0.00    +0.001 A 
ATOM     10  C   LIG A   1      -5.451   4.790 119.902  0.00  0.00    +0.002 A 
ATOM     11  C   LIG A   1      -5.252   4.427 121.238  0.00  0.00    +0.028 A 
ENDBRANCH   1   2
BRANCH   1  12
ATOM     12  C   LIG A   1      -5.314   2.113 125.715  0.00  0.00    +0.041 C 
BRANCH  12  13
ATOM     13  C   LIG A   1      -4.449   3.113 126.451  0.00  0.00    -0.043 A 
ATOM     14  C   LIG A   1      -4.951   4.375 126.801  0.00  0.00    +0.053 A 
ATOM     15  C   LIG A   1      -4.092   5.266 127.415  0.00  0.00    +0.167 A 
ATOM     16  C   LIG A   1      -2.778   4.951 127.670  0.00  0.00    +0.166 A 
ATOM     17  C   LIG A   1      -2.251   3.723 127.345  0.00  0.00    +0.050 A 
ATOM     18  C   LIG A   1      -3.101   2.791 126.745  0.00  0.00    +0.007 A 
ATOM     19  O   LIG A   1      -2.102   5.975 128.257  0.00  0.00    -0.453 OA
ATOM     20  C   LIG A   1      -3.148   6.960 128.371  0.00  0.00    +0.466 C 
ATOM     21  O   LIG A   1      -4.411   6.525 127.823  0.00  0.00    -0.453 OA
ENDBRANCH  12  13
ENDBRANCH   1  12
TORSDOF 3
ENDMDL
MODEL 2
REMARK VINA RESULT:      -8.2      4.486      7.294
REMARK  Name = NuBBE_1599
REMARK  3 active torsions:
REMARK  status: ('A' for Active; 'I' for Inactive)
REMARK    1  A    between atoms: C_1  and  C_2
REMARK    2  A    between atoms: C_1  and  C_12
REMARK    3  A    between atoms: C_2  and  C_3
REMARK                            x       y       z     vdW  Elec       q    Type
REMARK                         _______ _______ _______ _____ _____    ______ ____
ROOT
ATOM      1  C   LIG A   1      -7.750   2.706 124.740  0.00  0.00    +0.060 C 
ENDROOT
BRANCH   1   2
ATOM      2  C   LIG A   1      -8.097   1.266 125.029  0.00  0.00    +0.042 A 
ATOM      3  N   LIG A   1      -8.337   0.452 123.972  0.00  0.00    -0.252 NA
ATOM      4  C   LIG A   1      -8.639  -0.841 124.203  0.00  0.00    +0.071 A 
ATOM      5  C   LIG A   1      -8.724  -1.374 125.508  0.00  0.00    +0.000 A 
ATOM      6  C   LIG A   1      -8.479  -0.517 126.581  0.00  0.00    +0.012 A 
ATOM      7  C   LIG A   1      -8.163   0.813 126.346  0.00  0.00    +0.024 A 
ATOM      8  C   LIG A   1      -9.052  -2.727 125.711  0.00  0.00    +0.010 A 
ATOM      9  C   LIG A   1      -9.295  -3.562 124.624  0.00  0.00    +0.001 A 
ATOM     10  C   LIG A   1      -9.208  -3.047 123.336  0.00  0.00    +0.002 A 
ATOM     11  C   LIG A   1      -8.882  -1.700 123.140  0.00  0.00    +0.028 A 
ENDBRANCH   1   2
BRANCH   1  12
ATOM     12  C   LIG A   1      -6.478   2.913 123.905  0.00  0.00    +0.041 C 
BRANCH  12  13
ATOM     13  C   LIG A   1      -6.735   3.398 122.495  0.00  0.00    -0.043 A 
ATOM     14  C   LIG A   1      -8.034   3.406 121.964  0.00  0.00    +0.053 A 
ATOM     15  C   LIG A   1      -8.194   3.800 120.651  0.00  0.00    +0.167 A 
ATOM     16  C   LIG A   1      -7.126   4.162 119.865  0.00  0.00    +0.166 A 
ATOM     17  C   LIG A   1      -5.839   4.171 120.350  0.00  0.00    +0.050 A 
ATOM     18  C   LIG A   1      -5.647   3.800 121.683  0.00  0.00    +0.007 A 
ATOM     19  O   LIG A   1      -7.499   4.493 118.599  0.00  0.00    -0.453 OA
ATOM     20  C   LIG A   1      -8.929   4.327 118.687  0.00  0.00    +0.466 C 
ATOM     21  O   LIG A   1      -9.377   3.871 119.981  0.00  0.00    -0.453 OA
ENDBRANCH  12  13
ENDBRANCH   1  12
TORSDOF 3
ENDMDL
MODEL 3
REMARK VINA RESULT:      -8.1      4.610      6.150
REMARK  Name = NuBBE_1599
REMARK  3 active torsions:
REMARK  status: ('A' for Active; 'I' for Inactive)
REMARK    1  A    between atoms: C_1  and  C_2
REMARK    2  A    between atoms: C_1  and  C_12
REMARK    3  A    between atoms: C_2  and  C_3
REMARK                            x       y       z     vdW  Elec       q    Type
REMARK                         _______ _______ _______ _____ _____    ______ ____
ROOT
ATOM      1  C   LIG A   1      -7.575   2.717 124.593  0.00  0.00    +0.060 C 
ENDROOT
BRANCH   1   2
ATOM      2  C   LIG A   1      -7.294   3.177 123.183  0.00  0.00    +0.042 A 
ATOM      3  N   LIG A   1      -8.348   3.289 122.337  0.00  0.00    -0.252 NA
ATOM      4  C   LIG A   1      -8.126   3.708 121.075  0.00  0.00    +0.071 A 
ATOM      5  C   LIG A   1      -6.833   4.025 120.602  0.00  0.00    +0.000 A 
ATOM      6  C   LIG A   1      -5.763   3.897 121.489  0.00  0.00    +0.012 A 
ATOM      7  C   LIG A   1      -5.990   3.471 122.789  0.00  0.00    +0.024 A 
ATOM      8  C   LIG A   1      -6.639   4.450 119.275  0.00  0.00    +0.010 A 
ATOM      9  C   LIG A   1      -7.722   4.566 118.409  0.00  0.00    +0.001 A 
ATOM     10  C   LIG A   1      -8.997   4.262 118.867  0.00  0.00    +0.002 A 
ATOM     11  C   LIG A   1      -9.186   3.840 120.188  0.00  0.00    +0.028 A 
ENDBRANCH   1   2
BRANCH   1  12
ATOM     12  C   LIG A   1      -6.589   1.678 125.146  0.00  0.00    +0.041 C 
BRANCH  12  13
ATOM     13  C   LIG A   1      -6.947   0.246 124.813  0.00  0.00    -0.043 A 
ATOM     14  C   LIG A   1      -8.211  -0.077 124.298  0.00  0.00    +0.053 A 
ATOM     15  C   LIG A   1      -8.499  -1.408 124.075  0.00  0.00    +0.167 A 
ATOM     16  C   LIG A   1      -7.594  -2.405 124.355  0.00  0.00    +0.166 A 
ATOM     17  C   LIG A   1      -6.344  -2.127 124.856  0.00  0.00    +0.050 A 
ATOM     18  C   LIG A   1      -6.014  -0.788 125.071  0.00  0.00    +0.007 A 
ATOM     19  O   LIG A   1      -8.084  -3.644 124.084  0.00  0.00    -0.453 OA
ATOM     20  C   LIG A   1      -9.390  -3.313 123.572  0.00  0.00    +0.466 C 
ATOM     21  O   LIG A   1      -9.668  -1.897 123.578  0.00  0.00    -0.453 OA
ENDBRANCH  12  13
ENDBRANCH   1  12
TORSDOF 3
ENDMDL
MODEL 4
REMARK VINA RESULT:      -7.9      4.345      5.828
REMARK  Name = NuBBE_1599
REMARK  3 active torsions:
REMARK  status: ('A' for Active; 'I' for Inactive)
REMARK    1  A    between atoms: C_1  and  C_2
REMARK    2  A    between atoms: C_1  and  C_12
REMARK    3  A    between atoms: C_2  and  C_3
REMARK                            x       y       z     vdW  Elec       q    Type
REMARK                         _______ _______ _______ _____ _____    ______ ____
ROOT
ATOM      1  C   LIG A   1      -7.207   2.416 125.505  0.00  0.00    +0.060 C 
ENDROOT
BRANCH   1   2
ATOM      2  C   LIG A   1      -7.344   2.838 124.062  0.00  0.00    +0.042 A 
ATOM      3  N   LIG A   1      -6.253   3.366 123.456  0.00  0.00    -0.252 NA
ATOM      4  C   LIG A   1      -6.345   3.741 122.165  0.00  0.00    +0.071 A 
ATOM      5  C   LIG A   1      -7.543   3.612 121.425  0.00  0.00    +0.000 A 
ATOM      6  C   LIG A   1      -8.654   3.070 122.072  0.00  0.00    +0.012 A 
ATOM      7  C   LIG A   1      -8.559   2.679 123.399  0.00  0.00    +0.024 A 
ATOM      8  C   LIG A   1      -7.604   4.024 120.082  0.00  0.00    +0.010 A 
ATOM      9  C   LIG A   1      -6.482   4.564 119.460  0.00  0.00    +0.001 A 
ATOM     10  C   LIG A   1      -5.300   4.690 120.178  0.00  0.00    +0.002 A 
ATOM     11  C   LIG A   1      -5.243   4.279 121.515  0.00  0.00    +0.028 A 
ENDBRANCH   1   2
BRANCH   1  12
ATOM     12  C   LIG A   1      -6.159   1.325 125.767  0.00  0.00    +0.041 C 
BRANCH  12  13
ATOM     13  C   LIG A   1      -6.570  -0.054 125.298  0.00  0.00    -0.043 A 
ATOM     14  C   LIG A   1      -7.924  -0.410 125.216  0.00  0.00    +0.053 A 
ATOM     15  C   LIG A   1      -8.233  -1.702 124.843  0.00  0.00    +0.167 A 
ATOM     16  C   LIG A   1      -7.257  -2.633 124.569  0.00  0.00    +0.166 A 
ATOM     17  C   LIG A   1      -5.920  -2.320 124.634  0.00  0.00    +0.050 A 
ATOM     18  C   LIG A   1      -5.576  -1.013 124.987  0.00  0.00    +0.007 A 
ATOM     19  O   LIG A   1      -7.773  -3.848 124.243  0.00  0.00    -0.453 OA
ATOM     20  C   LIG A   1      -9.186  -3.569 124.313  0.00  0.00    +0.466 C 
ATOM     21  O   LIG A   1      -9.487  -2.214 124.709  0.00  0.00    -0.453 OA
ENDBRANCH  12  13
ENDBRANCH   1  12
TORSDOF 3
ENDMDL
MODEL 5
REMARK VINA RESULT:      -7.8      7.341      8.232
REMARK  Name = NuBBE_1599
REMARK  3 active torsions:
REMARK  status: ('A' for Active; 'I' for Inactive)
REMARK    1  A    between atoms: C_1  and  C_2
REMARK    2  A    between atoms: C_1  and  C_12
REMARK    3  A    between atoms: C_2  and  C_3
REMARK                            x       y       z     vdW  Elec       q    Type
REMARK                         _______ _______ _______ _____ _____    ______ ____
ROOT
ATOM      1  C   LIG A   1      -7.738   6.179 131.889  0.00  0.00    +0.060 C 
ENDROOT
BRANCH   1   2
ATOM      2  C   LIG A   1      -9.111   6.526 131.367  0.00  0.00    +0.042 A 
ATOM      3  N   LIG A   1      -9.186   7.185 130.184  0.00  0.00    -0.252 NA
ATOM      4  C   LIG A   1     -10.401   7.497 129.691  0.00  0.00    +0.071 A 
ATOM      5  C   LIG A   1     -11.597   7.169 130.368  0.00  0.00    +0.000 A 
ATOM      6  C   LIG A   1     -11.495   6.495 131.585  0.00  0.00    +0.012 A 
ATOM      7  C   LIG A   1     -10.246   6.169 132.092  0.00  0.00    +0.024 A 
ATOM      8  C   LIG A   1     -12.847   7.521 129.826  0.00  0.00    +0.010 A 
ATOM      9  C   LIG A   1     -12.922   8.196 128.612  0.00  0.00    +0.001 A 
ATOM     10  C   LIG A   1     -11.751   8.517 127.937  0.00  0.00    +0.002 A 
ATOM     11  C   LIG A   1     -10.510   8.166 128.479  0.00  0.00    +0.028 A 
ENDBRANCH   1   2
BRANCH   1  12
ATOM     12  C   LIG A   1      -6.575   6.889 131.181  0.00  0.00    +0.041 C 
BRANCH  12  13
ATOM     13  C   LIG A   1      -5.221   6.635 131.807  0.00  0.00    -0.043 A 
ATOM     14  C   LIG A   1      -4.041   6.902 131.097  0.00  0.00    +0.053 A 
ATOM     15  C   LIG A   1      -2.838   6.589 131.699  0.00  0.00    +0.167 A 
ATOM     16  C   LIG A   1      -2.777   6.020 132.949  0.00  0.00    +0.166 A 
ATOM     17  C   LIG A   1      -3.912   5.748 133.678  0.00  0.00    +0.050 A 
ATOM     18  C   LIG A   1      -5.143   6.075 133.105  0.00  0.00    +0.007 A 
ATOM     19  O   LIG A   1      -1.501   5.771 133.347  0.00  0.00    -0.453 OA
ATOM     20  C   LIG A   1      -0.762   6.278 132.217  0.00  0.00    +0.466 C 
ATOM     21  O   LIG A   1      -1.604   6.783 131.159  0.00  0.00    -0.453 OA
ENDBRANCH  12  13
ENDBRANCH   1  12
TORSDOF 3
ENDMDL
MODEL 6
REMARK VINA RESULT:      -7.8      5.845      7.799
REMARK  Name = NuBBE_1599
REMARK  3 active torsions:
REMARK  status: ('A' for Active; 'I' for Inactive)
REMARK    1  A    between atoms: C_1  and  C_2
REMARK    2  A    between atoms: C_1  and  C_12
REMARK    3  A    between atoms: C_2  and  C_3
REMARK                            x       y       z     vdW  Elec       q    Type
REMARK                         _______ _______ _______ _____ _____    ______ ____
ROOT
ATOM      1  C   LIG A   1      -7.621   5.693 131.583  0.00  0.00    +0.060 C 
ENDROOT
BRANCH   1   2
ATOM      2  C   LIG A   1      -8.992   6.229 131.249  0.00  0.00    +0.042 A 
ATOM      3  N   LIG A   1      -9.130   6.926 130.094  0.00  0.00    -0.252 NA
ATOM      4  C   LIG A   1     -10.346   7.407 129.768  0.00  0.00    +0.071 A 
ATOM      5  C   LIG A   1     -11.478   7.218 130.591  0.00  0.00    +0.000 A 
ATOM      6  C   LIG A   1     -11.311   6.501 131.777  0.00  0.00    +0.012 A 
ATOM      7  C   LIG A   1     -10.061   6.002 132.113  0.00  0.00    +0.024 A 
ATOM      8  C   LIG A   1     -12.730   7.743 130.222  0.00  0.00    +0.010 A 
ATOM      9  C   LIG A   1     -12.870   8.457 129.035  0.00  0.00    +0.001 A 
ATOM     10  C   LIG A   1     -11.763   8.643 128.217  0.00  0.00    +0.002 A 
ATOM     11  C   LIG A   1     -10.520   8.119 128.589  0.00  0.00    +0.028 A 
ENDBRANCH   1   2
BRANCH   1  12
ATOM     12  C   LIG A   1      -6.514   6.753 131.680  0.00  0.00    +0.041 C 
BRANCH  12  13
ATOM     13  C   LIG A   1      -5.428   6.612 130.636  0.00  0.00    -0.043 A 
ATOM     14  C   LIG A   1      -5.134   5.361 130.071  0.00  0.00    +0.053 A 
ATOM     15  C   LIG A   1      -4.090   5.287 129.171  0.00  0.00    +0.167 A 
ATOM     16  C   LIG A   1      -3.338   6.389 128.836  0.00  0.00    +0.166 A 
ATOM     17  C   LIG A   1      -3.599   7.631 129.366  0.00  0.00    +0.050 A 
ATOM     18  C   LIG A   1      -4.664   7.743 130.261  0.00  0.00    +0.007 A 
ATOM     19  O   LIG A   1      -2.347   6.094 127.953  0.00  0.00    -0.453 OA
ATOM     20  C   LIG A   1      -2.579   4.686 127.746  0.00  0.00    +0.466 C 
ATOM     21  O   LIG A   1      -3.673   4.162 128.528  0.00  0.00    -0.453 OA
ENDBRANCH  12  13
ENDBRANCH   1  12
TORSDOF 3
ENDMDL
MODEL 7
REMARK VINA RESULT:      -7.8      8.363      9.621
REMARK  Name = NuBBE_1599
REMARK  3 active torsions:
REMARK  status: ('A' for Active; 'I' for Inactive)
REMARK    1  A    between atoms: C_1  and  C_2
REMARK    2  A    between atoms: C_1  and  C_12
REMARK    3  A    between atoms: C_2  and  C_3
REMARK                            x       y       z     vdW  Elec       q    Type
REMARK                         _______ _______ _______ _____ _____    ______ ____
ROOT
ATOM      1  C   LIG A   1      -8.132   5.400 133.711  0.00  0.00    +0.060 C 
ENDROOT
BRANCH   1   2
ATOM      2  C   LIG A   1      -8.820   6.030 132.523  0.00  0.00    +0.042 A 
ATOM      3  N   LIG A   1     -10.174   6.082 132.536  0.00  0.00    -0.252 NA
ATOM      4  C   LIG A   1     -10.812   6.649 131.493  0.00  0.00    +0.071 A 
ATOM      5  C   LIG A   1     -10.118   7.181 130.383  0.00  0.00    +0.000 A 
ATOM      6  C   LIG A   1      -8.724   7.112 130.390  0.00  0.00    +0.012 A 
ATOM      7  C   LIG A   1      -8.066   6.533 131.465  0.00  0.00    +0.024 A 
ATOM      8  C   LIG A   1     -10.819   7.756 129.307  0.00  0.00    +0.010 A 
ATOM      9  C   LIG A   1     -12.209   7.810 129.322  0.00  0.00    +0.001 A 
ATOM     10  C   LIG A   1     -12.899   7.294 130.412  0.00  0.00    +0.002 A 
ATOM     11  C   LIG A   1     -12.198   6.722 131.480  0.00  0.00    +0.028 A 
ENDBRANCH   1   2
BRANCH   1  12
ATOM     12  C   LIG A   1      -8.826   4.153 134.278  0.00  0.00    +0.041 C 
BRANCH  12  13
ATOM     13  C   LIG A   1      -8.584   2.892 133.478  0.00  0.00    -0.043 A 
ATOM     14  C   LIG A   1      -7.331   2.260 133.497  0.00  0.00    +0.053 A 
ATOM     15  C   LIG A   1      -7.154   1.150 132.697  0.00  0.00    +0.167 A 
ATOM     16  C   LIG A   1      -8.156   0.669 131.887  0.00  0.00    +0.166 A 
ATOM     17  C   LIG A   1      -9.398   1.259 131.845  0.00  0.00    +0.050 A 
ATOM     18  C   LIG A   1      -9.616   2.371 132.661  0.00  0.00    +0.007 A 
ATOM     19  O   LIG A   1      -7.768  -0.416 131.165  0.00  0.00    -0.453 OA
ATOM     20  C   LIG A   1      -6.415  -0.584 131.636  0.00  0.00    +0.466 C 
ATOM     21  O   LIG A   1      -6.012   0.416 132.595  0.00  0.00    -0.453 OA
ENDBRANCH  12  13
ENDBRANCH   1  12
TORSDOF 3
ENDMDL
MODEL 8
REMARK VINA RESULT:      -7.7      6.233      8.857
REMARK  Name = NuBBE_1599
REMARK  3 active torsions:
REMARK  status: ('A' for Active; 'I' for Inactive)
REMARK    1  A    between atoms: C_1  and  C_2
REMARK    2  A    between atoms: C_1  and  C_12
REMARK    3  A    between atoms: C_2  and  C_3
REMARK                            x       y       z     vdW  Elec       q    Type
REMARK                         _______ _______ _______ _____ _____    ______ ____
ROOT
ATOM      1  C   LIG A   1      -7.792   5.046 131.403  0.00  0.00    +0.060 C 
ENDROOT
BRANCH   1   2
ATOM      2  C   LIG A   1      -6.520   5.620 130.828  0.00  0.00    +0.042 A 
ATOM      3  N   LIG A   1      -5.777   4.821 130.023  0.00  0.00    -0.252 NA
ATOM      4  C   LIG A   1      -4.642   5.313 129.489  0.00  0.00    +0.071 A 
ATOM      5  C   LIG A   1      -4.194   6.628 129.747  0.00  0.00    +0.000 A 
ATOM      6  C   LIG A   1      -4.972   7.430 130.582  0.00  0.00    +0.012 A 
ATOM      7  C   LIG A   1      -6.143   6.928 131.130  0.00  0.00    +0.024 A 
ATOM      8  C   LIG A   1      -2.998   7.103 129.179  0.00  0.00    +0.010 A 
ATOM      9  C   LIG A   1      -2.238   6.282 128.351  0.00  0.00    +0.001 A 
ATOM     10  C   LIG A   1      -2.674   4.989 128.087  0.00  0.00    +0.002 A 
ATOM     11  C   LIG A   1      -3.865   4.521 128.655  0.00  0.00    +0.028 A 
ENDBRANCH   1   2
BRANCH   1  12
ATOM     12  C   LIG A   1      -8.668   6.047 132.171  0.00  0.00    +0.041 C 
BRANCH  12  13
ATOM     13  C   LIG A   1      -9.863   6.550 131.392  0.00  0.00    -0.043 A 
ATOM     14  C   LIG A   1      -9.693   7.208 130.164  0.00  0.00    +0.053 A 
ATOM     15  C   LIG A   1     -10.818   7.700 129.533  0.00  0.00    +0.167 A 
ATOM     16  C   LIG A   1     -12.074   7.572 130.080  0.00  0.00    +0.166 A 
ATOM     17  C   LIG A   1     -12.280   6.930 131.278  0.00  0.00    +0.050 A 
ATOM     18  C   LIG A   1     -11.164   6.401 131.930  0.00  0.00    +0.007 A 
ATOM     19  O   LIG A   1     -13.038   8.144 129.310  0.00  0.00    -0.453 OA
ATOM     20  C   LIG A   1     -12.250   8.620 128.199  0.00  0.00    +0.466 C 
ATOM     21  O   LIG A   1     -10.838   8.357 128.341  0.00  0.00    -0.453 OA
ENDBRANCH  12  13
ENDBRANCH   1  12
TORSDOF 3
ENDMDL
MODEL 9
REMARK VINA RESULT:      -7.7      4.481      7.690
REMARK  Name = NuBBE_1599
REMARK  3 active torsions:
REMARK  status: ('A' for Active; 'I' for Inactive)
REMARK    1  A    between atoms: C_1  and  C_2
REMARK    2  A    between atoms: C_1  and  C_12
REMARK    3  A    between atoms: C_2  and  C_3
REMARK                            x       y       z     vdW  Elec       q    Type
REMARK                         _______ _______ _______ _____ _____    ______ ____
ROOT
ATOM      1  C   LIG A   1      -7.830   0.762 123.429  0.00  0.00    +0.060 C 
ENDROOT
BRANCH   1   2
ATOM      2  C   LIG A   1      -7.799   0.083 124.777  0.00  0.00    +0.042 A 
ATOM      3  N   LIG A   1      -8.360  -1.148 124.874  0.00  0.00    -0.252 NA
ATOM      4  C   LIG A   1      -8.336  -1.780 126.064  0.00  0.00    +0.071 A 
ATOM      5  C   LIG A   1      -7.756  -1.201 127.215  0.00  0.00    +0.000 A 
ATOM      6  C   LIG A   1      -7.190   0.068 127.092  0.00  0.00    +0.012 A 
ATOM      7  C   LIG A   1      -7.209   0.719 125.867  0.00  0.00    +0.024 A 
ATOM      8  C   LIG A   1      -7.760  -1.887 128.443  0.00  0.00    +0.010 A 
ATOM      9  C   LIG A   1      -8.333  -3.152 128.540  0.00  0.00    +0.001 A 
ATOM     10  C   LIG A   1      -8.901  -3.731 127.412  0.00  0.00    +0.002 A 
ATOM     11  C   LIG A   1      -8.896  -3.044 126.192  0.00  0.00    +0.028 A 
ENDBRANCH   1   2
BRANCH   1  12
ATOM     12  C   LIG A   1      -8.170   2.259 123.462  0.00  0.00    +0.041 C 
BRANCH  12  13
ATOM     13  C   LIG A   1      -7.398   3.091 122.463  0.00  0.00    -0.043 A 
ATOM     14  C   LIG A   1      -7.946   3.396 121.208  0.00  0.00    +0.053 A 
ATOM     15  C   LIG A   1      -7.167   4.106 120.316  0.00  0.00    +0.167 A 
ATOM     16  C   LIG A   1      -5.884   4.497 120.622  0.00  0.00    +0.166 A 
ATOM     17  C   LIG A   1      -5.315   4.221 121.842  0.00  0.00    +0.050 A 
ATOM     18  C   LIG A   1      -6.087   3.525 122.775  0.00  0.00    +0.007 A 
ATOM     19  O   LIG A   1      -5.285   5.163 119.599  0.00  0.00    -0.453 OA
ATOM     20  C   LIG A   1      -6.347   5.172 118.623  0.00  0.00    +0.466 C 
ATOM     21  O   LIG A   1      -7.539   4.489 119.064  0.00  0.00    -0.453 OA
ENDBRANCH  12  13
ENDBRANCH   1  12
TORSDOF 3
ENDMDL
