MODEL 1
REMARK VINA RESULT:      -7.2      0.000      0.000
REMARK  Name = NuBBE_1118
REMARK  6 active torsions:
REMARK  status: ('A' for Active; 'I' for Inactive)
REMARK    1  A    between atoms: C_1  and  O_2
REMARK    2  A    between atoms: O_2  and  C_3
REMARK    3  A    between atoms: C_7  and  C_8
REMARK    4  A    between atoms: C_8  and  C_9
REMARK    5  A    between atoms: C_8  and  O_10
REMARK    6  A    between atoms: C_8  and  C_11
REMARK                            x       y       z     vdW  Elec       q    Type
REMARK                         _______ _______ _______ _____ _____    ______ ____
ROOT
ATOM      1  C   LIG A   1      -8.544   5.841 132.564  0.00  0.00    +0.142 A 
ATOM      2  C   LIG A   1      -9.280   6.389 131.493  0.00  0.00    +0.082 A 
ATOM      3  C   LIG A   1      -8.548   7.064 130.521  0.00  0.00    +0.232 A 
ATOM      4  O   LIG A   1      -9.376   7.556 129.558  0.00  0.00    -0.439 OA
ATOM      5  C   LIG A   1     -10.648   7.180 129.879  0.00  0.00    +0.139 A 
ATOM      6  C   LIG A   1     -10.634   6.460 131.058  0.00  0.00    +0.061 A 
ATOM      7  N   LIG A   1      -7.221   7.245 130.472  0.00  0.00    -0.212 NA
ATOM      8  C   LIG A   1      -6.540   6.698 131.480  0.00  0.00    +0.078 A 
ATOM      9  C   LIG A   1      -7.132   5.990 132.552  0.00  0.00    +0.043 A 
ATOM     10  C   LIG A   1      -6.300   5.468 133.568  0.00  0.00    +0.013 A 
ATOM     11  C   LIG A   1      -4.916   5.633 133.528  0.00  0.00    +0.001 A 
ATOM     12  C   LIG A   1      -4.343   6.316 132.468  0.00  0.00    +0.002 A 
ATOM     13  C   LIG A   1      -5.158   6.839 131.460  0.00  0.00    +0.028 A 
ENDROOT
BRANCH   5  14
ATOM     14  C   LIG A   1     -11.731   7.630 128.944  0.00  0.00    +0.118 C 
ATOM     15  C   LIG A   1     -11.136   8.340 127.730  0.00  0.00    +0.049 C 
ATOM     16  C   LIG A   1     -12.759   8.519 129.642  0.00  0.00    +0.049 C 
BRANCH  14  17
ATOM     17  O   LIG A   1     -12.424   6.465 128.487  0.00  0.00    -0.381 OA
ATOM     18  H   LIG A   1     -11.991   5.700 128.913  0.00  0.00    +0.211 HD
ENDBRANCH  14  17
ENDBRANCH   5  14
BRANCH   1  20
ATOM     19  C   LIG A   1      -9.345   3.722 133.320  0.00  0.00    +0.277 C 
ATOM     20  O   LIG A   1      -9.065   5.083 133.607  0.00  0.00    -0.494 OA
ENDBRANCH   1  20
TORSDOF 3
ENDMDL
MODEL 2
REMARK VINA RESULT:      -7.1      2.044      3.570
REMARK  Name = NuBBE_1118
REMARK  6 active torsions:
REMARK  status: ('A' for Active; 'I' for Inactive)
REMARK    1  A    between atoms: C_1  and  O_2
REMARK    2  A    between atoms: O_2  and  C_3
REMARK    3  A    between atoms: C_7  and  C_8
REMARK    4  A    between atoms: C_8  and  C_9
REMARK    5  A    between atoms: C_8  and  O_10
REMARK    6  A    between atoms: C_8  and  C_11
REMARK                            x       y       z     vdW  Elec       q    Type
REMARK                         _______ _______ _______ _____ _____    ______ ____
ROOT
ATOM      1  C   LIG A   1      -8.820   5.655 131.392  0.00  0.00    +0.142 A 
ATOM      2  C   LIG A   1      -9.772   6.166 130.486  0.00  0.00    +0.082 A 
ATOM      3  C   LIG A   1     -10.712   5.260 130.001  0.00  0.00    +0.232 A 
ATOM      4  O   LIG A   1     -11.557   5.875 129.127  0.00  0.00    -0.439 OA
ATOM      5  C   LIG A   1     -11.194   7.189 129.059  0.00  0.00    +0.139 A 
ATOM      6  C   LIG A   1     -10.104   7.410 129.879  0.00  0.00    +0.061 A 
ATOM      7  N   LIG A   1     -10.831   3.961 130.303  0.00  0.00    -0.212 NA
ATOM      8  C   LIG A   1      -9.938   3.503 131.182  0.00  0.00    +0.078 A 
ATOM      9  C   LIG A   1      -8.912   4.286 131.759  0.00  0.00    +0.043 A 
ATOM     10  C   LIG A   1      -8.017   3.678 132.670  0.00  0.00    +0.013 A 
ATOM     11  C   LIG A   1      -8.133   2.331 133.009  0.00  0.00    +0.001 A 
ATOM     12  C   LIG A   1      -9.148   1.573 132.448  0.00  0.00    +0.002 A 
ATOM     13  C   LIG A   1     -10.035   2.165 131.545  0.00  0.00    +0.028 A 
ENDROOT
BRANCH   5  14
ATOM     14  C   LIG A   1     -11.998   8.055 128.135  0.00  0.00    +0.118 C 
ATOM     15  C   LIG A   1     -12.767   9.114 128.922  0.00  0.00    +0.049 C 
ATOM     16  C   LIG A   1     -12.944   7.236 127.259  0.00  0.00    +0.049 C 
BRANCH  14  17
ATOM     17  O   LIG A   1     -11.084   8.721 127.259  0.00  0.00    -0.381 OA
ATOM     18  H   LIG A   1     -11.330   9.667 127.270  0.00  0.00    +0.211 HD
ENDBRANCH  14  17
ENDBRANCH   5  14
BRANCH   1  20
ATOM     19  C   LIG A   1      -6.753   6.840 131.234  0.00  0.00    +0.277 C 
ATOM     20  O   LIG A   1      -7.833   6.391 132.038  0.00  0.00    -0.494 OA
ENDBRANCH   1  20
TORSDOF 3
ENDMDL
MODEL 3
REMARK VINA RESULT:      -7.1      8.744      9.697
REMARK  Name = NuBBE_1118
REMARK  6 active torsions:
REMARK  status: ('A' for Active; 'I' for Inactive)
REMARK    1  A    between atoms: C_1  and  O_2
REMARK    2  A    between atoms: O_2  and  C_3
REMARK    3  A    between atoms: C_7  and  C_8
REMARK    4  A    between atoms: C_8  and  C_9
REMARK    5  A    between atoms: C_8  and  O_10
REMARK    6  A    between atoms: C_8  and  C_11
REMARK                            x       y       z     vdW  Elec       q    Type
REMARK                         _______ _______ _______ _____ _____    ______ ____
ROOT
ATOM      1  C   LIG A   1      -9.054  -1.665 125.199  0.00  0.00    +0.142 A 
ATOM      2  C   LIG A   1      -8.637  -0.360 124.864  0.00  0.00    +0.082 A 
ATOM      3  C   LIG A   1      -7.932   0.334 125.842  0.00  0.00    +0.232 A 
ATOM      4  O   LIG A   1      -7.606   1.580 125.399  0.00  0.00    -0.439 OA
ATOM      5  C   LIG A   1      -8.068   1.696 124.120  0.00  0.00    +0.139 A 
ATOM      6  C   LIG A   1      -8.706   0.527 123.753  0.00  0.00    +0.061 A 
ATOM      7  N   LIG A   1      -7.586  -0.094 127.064  0.00  0.00    -0.212 NA
ATOM      8  C   LIG A   1      -7.967  -1.339 127.353  0.00  0.00    +0.078 A 
ATOM      9  C   LIG A   1      -8.699  -2.174 126.477  0.00  0.00    +0.043 A 
ATOM     10  C   LIG A   1      -9.055  -3.472 126.908  0.00  0.00    +0.013 A 
ATOM     11  C   LIG A   1      -8.693  -3.942 128.170  0.00  0.00    +0.001 A 
ATOM     12  C   LIG A   1      -7.964  -3.123 129.017  0.00  0.00    +0.002 A 
ATOM     13  C   LIG A   1      -7.611  -1.837 128.601  0.00  0.00    +0.028 A 
ENDROOT
BRANCH   5  14
ATOM     14  C   LIG A   1      -7.821   3.009 123.439  0.00  0.00    +0.118 C 
ATOM     15  C   LIG A   1      -8.575   3.079 122.112  0.00  0.00    +0.049 C 
ATOM     16  C   LIG A   1      -6.332   3.277 123.231  0.00  0.00    +0.049 C 
BRANCH  14  17
ATOM     17  O   LIG A   1      -8.319   4.043 124.293  0.00  0.00    -0.381 OA
ATOM     18  H   LIG A   1      -8.138   3.757 125.209  0.00  0.00    +0.211 HD
ENDBRANCH  14  17
ENDBRANCH   5  14
BRANCH   1  20
ATOM     19  C   LIG A   1      -8.988  -3.024 123.237  0.00  0.00    +0.277 C 
ATOM     20  O   LIG A   1      -9.718  -2.550 124.358  0.00  0.00    -0.494 OA
ENDBRANCH   1  20
TORSDOF 3
ENDMDL
MODEL 4
REMARK VINA RESULT:      -6.7      8.499      9.449
REMARK  Name = NuBBE_1118
REMARK  6 active torsions:
REMARK  status: ('A' for Active; 'I' for Inactive)
REMARK    1  A    between atoms: C_1  and  O_2
REMARK    2  A    between atoms: O_2  and  C_3
REMARK    3  A    between atoms: C_7  and  C_8
REMARK    4  A    between atoms: C_8  and  C_9
REMARK    5  A    between atoms: C_8  and  O_10
REMARK    6  A    between atoms: C_8  and  C_11
REMARK                            x       y       z     vdW  Elec       q    Type
REMARK                         _______ _______ _______ _____ _____    ______ ____
ROOT
ATOM      1  C   LIG A   1      -8.925  -1.402 125.310  0.00  0.00    +0.142 A 
ATOM      2  C   LIG A   1      -8.459  -0.076 125.192  0.00  0.00    +0.082 A 
ATOM      3  C   LIG A   1      -7.806   0.450 126.302  0.00  0.00    +0.232 A 
ATOM      4  O   LIG A   1      -7.424   1.736 126.063  0.00  0.00    -0.439 OA
ATOM      5  C   LIG A   1      -7.797   2.046 124.788  0.00  0.00    +0.139 A 
ATOM      6  C   LIG A   1      -8.434   0.961 124.217  0.00  0.00    +0.061 A 
ATOM      7  N   LIG A   1      -7.552  -0.157 127.470  0.00  0.00    -0.212 NA
ATOM      8  C   LIG A   1      -7.978  -1.418 127.552  0.00  0.00    +0.078 A 
ATOM      9  C   LIG A   1      -8.668  -2.097 126.521  0.00  0.00    +0.043 A 
ATOM     10  C   LIG A   1      -9.080  -3.432 126.738  0.00  0.00    +0.013 A 
ATOM     11  C   LIG A   1      -8.813  -4.087 127.940  0.00  0.00    +0.001 A 
ATOM     12  C   LIG A   1      -8.125  -3.419 128.940  0.00  0.00    +0.002 A 
ATOM     13  C   LIG A   1      -7.718  -2.098 128.736  0.00  0.00    +0.028 A 
ENDROOT
BRANCH   5  14
ATOM     14  C   LIG A   1      -7.477   3.434 124.319  0.00  0.00    +0.118 C 
ATOM     15  C   LIG A   1      -6.021   3.528 123.865  0.00  0.00    +0.049 C 
ATOM     16  C   LIG A   1      -7.781   4.485 125.384  0.00  0.00    +0.049 C 
BRANCH  14  17
ATOM     17  O   LIG A   1      -8.316   3.718 123.196  0.00  0.00    -0.381 OA
ATOM     18  H   LIG A   1      -8.831   4.515 123.429  0.00  0.00    +0.211 HD
ENDBRANCH  14  17
ENDBRANCH   5  14
BRANCH   1  20
ATOM     19  C   LIG A   1      -8.732  -2.557 123.229  0.00  0.00    +0.277 C 
ATOM     20  O   LIG A   1      -9.550  -2.138 124.310  0.00  0.00    -0.494 OA
ENDBRANCH   1  20
TORSDOF 3
ENDMDL
MODEL 5
REMARK VINA RESULT:      -6.7      1.828      5.699
REMARK  Name = NuBBE_1118
REMARK  6 active torsions:
REMARK  status: ('A' for Active; 'I' for Inactive)
REMARK    1  A    between atoms: C_1  and  O_2
REMARK    2  A    between atoms: O_2  and  C_3
REMARK    3  A    between atoms: C_7  and  C_8
REMARK    4  A    between atoms: C_8  and  C_9
REMARK    5  A    between atoms: C_8  and  O_10
REMARK    6  A    between atoms: C_8  and  C_11
REMARK                            x       y       z     vdW  Elec       q    Type
REMARK                         _______ _______ _______ _____ _____    ______ ____
ROOT
ATOM      1  C   LIG A   1      -9.165   5.894 132.281  0.00  0.00    +0.142 A 
ATOM      2  C   LIG A   1      -7.824   6.206 131.973  0.00  0.00    +0.082 A 
ATOM      3  C   LIG A   1      -7.617   7.006 130.853  0.00  0.00    +0.232 A 
ATOM      4  O   LIG A   1      -6.286   7.217 130.659  0.00  0.00    -0.439 OA
ATOM      5  C   LIG A   1      -5.618   6.582 131.666  0.00  0.00    +0.139 A 
ATOM      6  C   LIG A   1      -6.525   5.951 132.495  0.00  0.00    +0.061 A 
ATOM      7  N   LIG A   1      -8.541   7.530 130.037  0.00  0.00    -0.212 NA
ATOM      8  C   LIG A   1      -9.804   7.245 130.360  0.00  0.00    +0.078 A 
ATOM      9  C   LIG A   1     -10.185   6.437 131.457  0.00  0.00    +0.043 A 
ATOM     10  C   LIG A   1     -11.560   6.198 131.685  0.00  0.00    +0.013 A 
ATOM     11  C   LIG A   1     -12.538   6.746 130.856  0.00  0.00    +0.001 A 
ATOM     12  C   LIG A   1     -12.157   7.546 129.791  0.00  0.00    +0.002 A 
ATOM     13  C   LIG A   1     -10.801   7.785 129.556  0.00  0.00    +0.028 A 
ENDROOT
BRANCH   5  14
ATOM     14  C   LIG A   1      -4.122   6.680 131.638  0.00  0.00    +0.118 C 
ATOM     15  C   LIG A   1      -3.515   5.473 130.924  0.00  0.00    +0.049 C 
ATOM     16  C   LIG A   1      -3.530   6.836 133.037  0.00  0.00    +0.049 C 
BRANCH  14  17
ATOM     17  O   LIG A   1      -3.776   7.856 130.902  0.00  0.00    -0.381 OA
ATOM     18  H   LIG A   1      -4.589   8.395 130.841  0.00  0.00    +0.211 HD
ENDBRANCH  14  17
ENDBRANCH   5  14
BRANCH   1  20
ATOM     19  C   LIG A   1      -9.249   3.785 133.399  0.00  0.00    +0.277 C 
ATOM     20  O   LIG A   1      -9.599   5.161 133.379  0.00  0.00    -0.494 OA
ENDBRANCH   1  20
TORSDOF 3
ENDMDL
MODEL 6
REMARK VINA RESULT:      -6.3      8.188      9.113
REMARK  Name = NuBBE_1118
REMARK  6 active torsions:
REMARK  status: ('A' for Active; 'I' for Inactive)
REMARK    1  A    between atoms: C_1  and  O_2
REMARK    2  A    between atoms: O_2  and  C_3
REMARK    3  A    between atoms: C_7  and  C_8
REMARK    4  A    between atoms: C_8  and  C_9
REMARK    5  A    between atoms: C_8  and  O_10
REMARK    6  A    between atoms: C_8  and  C_11
REMARK                            x       y       z     vdW  Elec       q    Type
REMARK                         _______ _______ _______ _____ _____    ______ ____
ROOT
ATOM      1  C   LIG A   1      -7.337  -0.166 127.536  0.00  0.00    +0.142 A 
ATOM      2  C   LIG A   1      -7.545   0.582 126.358  0.00  0.00    +0.082 A 
ATOM      3  C   LIG A   1      -8.246  -0.055 125.338  0.00  0.00    +0.232 A 
ATOM      4  O   LIG A   1      -8.362   0.767 124.258  0.00  0.00    -0.439 OA
ATOM      5  C   LIG A   1      -7.765   1.952 124.576  0.00  0.00    +0.139 A 
ATOM      6  C   LIG A   1      -7.253   1.881 125.856  0.00  0.00    +0.061 A 
ATOM      7  N   LIG A   1      -8.762  -1.291 125.345  0.00  0.00    -0.212 NA
ATOM      8  C   LIG A   1      -8.577  -1.972 126.477  0.00  0.00    +0.078 A 
ATOM      9  C   LIG A   1      -7.877  -1.477 127.602  0.00  0.00    +0.043 A 
ATOM     10  C   LIG A   1      -7.738  -2.305 128.739  0.00  0.00    +0.013 A 
ATOM     11  C   LIG A   1      -8.280  -3.589 128.771  0.00  0.00    +0.001 A 
ATOM     12  C   LIG A   1      -8.975  -4.062 127.670  0.00  0.00    +0.002 A 
ATOM     13  C   LIG A   1      -9.115  -3.252 126.540  0.00  0.00    +0.028 A 
ENDROOT
BRANCH   5  14
ATOM     14  C   LIG A   1      -7.772   3.007 123.511  0.00  0.00    +0.118 C 
ATOM     15  C   LIG A   1      -8.837   2.707 122.459  0.00  0.00    +0.049 C 
ATOM     16  C   LIG A   1      -6.400   3.175 122.860  0.00  0.00    +0.049 C 
BRANCH  14  17
ATOM     17  O   LIG A   1      -8.096   4.253 124.135  0.00  0.00    -0.381 OA
ATOM     18  H   LIG A   1      -9.067   4.265 124.243  0.00  0.00    +0.211 HD
ENDBRANCH  14  17
ENDBRANCH   5  14
BRANCH   1  20
ATOM     19  C   LIG A   1      -5.307   0.463 128.626  0.00  0.00    +0.277 C 
ATOM     20  O   LIG A   1      -6.714   0.291 128.692  0.00  0.00    -0.494 OA
ENDBRANCH   1  20
TORSDOF 3
ENDMDL
MODEL 7
REMARK VINA RESULT:      -6.3      9.800     11.729
REMARK  Name = NuBBE_1118
REMARK  6 active torsions:
REMARK  status: ('A' for Active; 'I' for Inactive)
REMARK    1  A    between atoms: C_1  and  O_2
REMARK    2  A    between atoms: O_2  and  C_3
REMARK    3  A    between atoms: C_7  and  C_8
REMARK    4  A    between atoms: C_8  and  C_9
REMARK    5  A    between atoms: C_8  and  O_10
REMARK    6  A    between atoms: C_8  and  C_11
REMARK                            x       y       z     vdW  Elec       q    Type
REMARK                         _______ _______ _______ _____ _____    ______ ____
ROOT
ATOM      1  C   LIG A   1      -6.338  -1.735 125.980  0.00  0.00    +0.142 A 
ATOM      2  C   LIG A   1      -6.422  -2.219 127.302  0.00  0.00    +0.082 A 
ATOM      3  C   LIG A   1      -7.515  -3.029 127.596  0.00  0.00    +0.232 A 
ATOM      4  O   LIG A   1      -7.486  -3.412 128.902  0.00  0.00    -0.439 OA
ATOM      5  C   LIG A   1      -6.360  -2.881 129.461  0.00  0.00    +0.139 A 
ATOM      6  C   LIG A   1      -5.678  -2.144 128.513  0.00  0.00    +0.061 A 
ATOM      7  N   LIG A   1      -8.494  -3.418 126.767  0.00  0.00    -0.212 NA
ATOM      8  C   LIG A   1      -8.383  -2.972 125.515  0.00  0.00    +0.078 A 
ATOM      9  C   LIG A   1      -7.341  -2.131 125.057  0.00  0.00    +0.043 A 
ATOM     10  C   LIG A   1      -7.344  -1.714 123.706  0.00  0.00    +0.013 A 
ATOM     11  C   LIG A   1      -8.344  -2.120 122.824  0.00  0.00    +0.001 A 
ATOM     12  C   LIG A   1      -9.354  -2.953 123.278  0.00  0.00    +0.002 A 
ATOM     13  C   LIG A   1      -9.362  -3.367 124.612  0.00  0.00    +0.028 A 
ENDROOT
BRANCH   5  14
ATOM     14  C   LIG A   1      -6.135  -3.176 130.914  0.00  0.00    +0.118 C 
ATOM     15  C   LIG A   1      -5.634  -4.606 131.104  0.00  0.00    +0.049 C 
ATOM     16  C   LIG A   1      -7.388  -2.925 131.752  0.00  0.00    +0.049 C 
BRANCH  14  17
ATOM     17  O   LIG A   1      -5.126  -2.280 131.389  0.00  0.00    -0.381 OA
ATOM     18  H   LIG A   1      -5.508  -1.382 131.342  0.00  0.00    +0.211 HD
ENDBRANCH  14  17
ENDBRANCH   5  14
BRANCH   1  20
ATOM     19  C   LIG A   1      -5.211   0.370 125.941  0.00  0.00    +0.277 C 
ATOM     20  O   LIG A   1      -5.307  -0.962 125.460  0.00  0.00    -0.494 OA
ENDBRANCH   1  20
TORSDOF 3
ENDMDL
MODEL 8
REMARK VINA RESULT:      -6.2      1.997      6.320
REMARK  Name = NuBBE_1118
REMARK  6 active torsions:
REMARK  status: ('A' for Active; 'I' for Inactive)
REMARK    1  A    between atoms: C_1  and  O_2
REMARK    2  A    between atoms: O_2  and  C_3
REMARK    3  A    between atoms: C_7  and  C_8
REMARK    4  A    between atoms: C_8  and  C_9
REMARK    5  A    between atoms: C_8  and  O_10
REMARK    6  A    between atoms: C_8  and  C_11
REMARK                            x       y       z     vdW  Elec       q    Type
REMARK                         _______ _______ _______ _____ _____    ______ ____
ROOT
ATOM      1  C   LIG A   1      -9.221   6.070 130.163  0.00  0.00    +0.142 A 
ATOM      2  C   LIG A   1      -8.729   5.916 131.475  0.00  0.00    +0.082 A 
ATOM      3  C   LIG A   1      -9.614   6.214 132.507  0.00  0.00    +0.232 A 
ATOM      4  O   LIG A   1      -9.011   6.041 133.715  0.00  0.00    -0.439 OA
ATOM      5  C   LIG A   1      -7.740   5.601 133.482  0.00  0.00    +0.139 A 
ATOM      6  C   LIG A   1      -7.527   5.509 132.120  0.00  0.00    +0.061 A 
ATOM      7  N   LIG A   1     -10.888   6.617 132.404  0.00  0.00    -0.212 NA
ATOM      8  C   LIG A   1     -11.343   6.731 131.156  0.00  0.00    +0.078 A 
ATOM      9  C   LIG A   1     -10.571   6.479 129.998  0.00  0.00    +0.043 A 
ATOM     10  C   LIG A   1     -11.167   6.651 128.727  0.00  0.00    +0.013 A 
ATOM     11  C   LIG A   1     -12.495   7.055 128.599  0.00  0.00    +0.001 A 
ATOM     12  C   LIG A   1     -13.249   7.288 129.738  0.00  0.00    +0.002 A 
ATOM     13  C   LIG A   1     -12.667   7.124 130.998  0.00  0.00    +0.028 A 
ENDROOT
BRANCH   5  14
ATOM     14  C   LIG A   1      -6.888   5.354 134.691  0.00  0.00    +0.118 C 
ATOM     15  C   LIG A   1      -7.565   5.896 135.949  0.00  0.00    +0.049 C 
ATOM     16  C   LIG A   1      -5.486   5.939 134.535  0.00  0.00    +0.049 C 
BRANCH  14  17
ATOM     17  O   LIG A   1      -6.740   3.939 134.836  0.00  0.00    -0.381 OA
ATOM     18  H   LIG A   1      -6.510   3.591 133.953  0.00  0.00    +0.211 HD
ENDBRANCH  14  17
ENDBRANCH   5  14
BRANCH   1  20
ATOM     19  C   LIG A   1      -8.204   4.411 128.778  0.00  0.00    +0.277 C 
ATOM     20  O   LIG A   1      -8.530   5.776 128.993  0.00  0.00    -0.494 OA
ENDBRANCH   1  20
TORSDOF 3
ENDMDL
MODEL 9
REMARK VINA RESULT:      -6.1      9.431     10.188
REMARK  Name = NuBBE_1118
REMARK  6 active torsions:
REMARK  status: ('A' for Active; 'I' for Inactive)
REMARK    1  A    between atoms: C_1  and  O_2
REMARK    2  A    between atoms: O_2  and  C_3
REMARK    3  A    between atoms: C_7  and  C_8
REMARK    4  A    between atoms: C_8  and  C_9
REMARK    5  A    between atoms: C_8  and  O_10
REMARK    6  A    between atoms: C_8  and  C_11
REMARK                            x       y       z     vdW  Elec       q    Type
REMARK                         _______ _______ _______ _____ _____    ______ ____
ROOT
ATOM      1  C   LIG A   1      -7.472   0.036 125.821  0.00  0.00    +0.142 A 
ATOM      2  C   LIG A   1      -7.156   0.843 124.709  0.00  0.00    +0.082 A 
ATOM      3  C   LIG A   1      -7.167   0.215 123.467  0.00  0.00    +0.232 A 
ATOM      4  O   LIG A   1      -6.830   1.098 122.486  0.00  0.00    -0.439 OA
ATOM      5  C   LIG A   1      -6.625   2.311 123.076  0.00  0.00    +0.139 A 
ATOM      6  C   LIG A   1      -6.817   2.199 124.439  0.00  0.00    +0.061 A 
ATOM      7  N   LIG A   1      -7.458  -1.064 123.197  0.00  0.00    -0.212 NA
ATOM      8  C   LIG A   1      -7.780  -1.805 124.259  0.00  0.00    +0.078 A 
ATOM      9  C   LIG A   1      -7.804  -1.325 125.589  0.00  0.00    +0.043 A 
ATOM     10  C   LIG A   1      -8.150  -2.216 126.631  0.00  0.00    +0.013 A 
ATOM     11  C   LIG A   1      -8.469  -3.548 126.370  0.00  0.00    +0.001 A 
ATOM     12  C   LIG A   1      -8.455  -4.007 125.063  0.00  0.00    +0.002 A 
ATOM     13  C   LIG A   1      -8.112  -3.134 124.027  0.00  0.00    +0.028 A 
ENDROOT
BRANCH   5  14
ATOM     14  C   LIG A   1      -6.231   3.436 122.166  0.00  0.00    +0.118 C 
ATOM     15  C   LIG A   1      -5.494   2.905 120.938  0.00  0.00    +0.049 C 
ATOM     16  C   LIG A   1      -5.392   4.490 122.887  0.00  0.00    +0.049 C 
BRANCH  14  17
ATOM     17  O   LIG A   1      -7.429   4.081 121.726  0.00  0.00    -0.381 OA
ATOM     18  H   LIG A   1      -7.639   3.708 120.848  0.00  0.00    +0.211 HD
ENDBRANCH  14  17
ENDBRANCH   5  14
BRANCH   1  20
ATOM     19  C   LIG A   1      -8.669   1.319 127.442  0.00  0.00    +0.277 C 
ATOM     20  O   LIG A   1      -7.574   0.468 127.139  0.00  0.00    -0.494 OA
ENDBRANCH   1  20
TORSDOF 3
ENDMDL
