MODEL 1
REMARK VINA RESULT:      -8.3      0.000      0.000
REMARK  Name = NuBBE_1362
REMARK  4 active torsions:
REMARK  status: ('A' for Active; 'I' for Inactive)
REMARK    1  A    between atoms: C_1  and  C_2
REMARK    2  A    between atoms: C_1  and  C_4
REMARK    3  A    between atoms: C_8  and  C_22
REMARK    4  A    between atoms: C_25  and  C_27
REMARK                            x       y       z     vdW  Elec       q    Type
REMARK                         _______ _______ _______ _____ _____    ______ ____
ROOT
ATOM      1  C   LIG A   1      -6.501  -2.064 124.196  0.00  0.00    +0.067 C 
ATOM      2  C   LIG A   1      -7.958  -1.627 123.863  0.00  0.00    +0.028 C 
ATOM      3  C   LIG A   1      -8.523  -0.925 125.103  0.00  0.00    +0.090 C 
ATOM      4  N   LIG A   1      -8.482  -1.886 126.211  0.00  0.00    -0.277 NA
ATOM      5  C   LIG A   1      -7.171  -2.487 126.506  0.00  0.00    +0.128 C 
ATOM      6  N   LIG A   1      -6.523  -3.064 125.295  0.00  0.00    -0.283 NA
ATOM      7  C   LIG A   1      -7.372  -4.239 124.869  0.00  0.00    +0.091 C 
ATOM      8  C   LIG A   1      -8.854  -3.803 124.750  0.00  0.00    +0.021 C 
ATOM      9  C   LIG A   1      -8.877  -2.835 123.548  0.00  0.00    +0.013 C 
ATOM     10  C   LIG A   1      -9.370  -3.035 126.027  0.00  0.00    +0.063 C 
ATOM     11  C   LIG A   1      -9.354  -3.797 127.404  0.00  0.00    +0.019 C 
ATOM     12  C   LIG A   1      -8.515  -3.063 128.542  0.00  0.00    +0.004 C 
ATOM     13  C   LIG A   1      -7.134  -2.442 128.045  0.00  0.00    +0.035 C 
ENDROOT
BRANCH   3  14
ATOM     14  C   LIG A   1      -7.947   0.459 125.441  0.00  0.00    -0.038 C 
ATOM     15  C   LIG A   1      -7.465   1.321 124.520  0.00  0.00    +0.078 C 
ATOM     16  N   LIG A   1      -6.914   2.565 124.814  0.00  0.00    -0.278 N 
ATOM     17  C   LIG A   1      -6.328   3.309 123.777  0.00  0.00    +0.216 C 
ATOM     18  O   LIG A   1      -6.273   2.941 122.607  0.00  0.00    -0.276 OA
ATOM     19  C   LIG A   1      -5.757   4.653 124.171  0.00  0.00    +0.110 C 
ATOM     20  C   LIG A   1      -6.783   2.937 126.221  0.00  0.00    +0.113 C 
ATOM     21  C   LIG A   1      -7.908   2.380 127.075  0.00  0.00    +0.024 C 
ATOM     22  C   LIG A   1      -8.028   0.871 126.894  0.00  0.00    +0.035 C 
ENDBRANCH   3  14
BRANCH   1  23
ATOM     23  C   LIG A   1      -5.721  -2.535 122.939  0.00  0.00    +0.045 C 
BRANCH  23  24
ATOM     24  C   LIG A   1      -4.402  -3.189 123.268  0.00  0.00    -0.033 C 
ATOM     25  C   LIG A   1      -4.218  -4.515 123.345  0.00  0.00    +0.004 C 
ENDBRANCH  23  24
ENDBRANCH   1  23
TORSDOF 3
ENDMDL
MODEL 2
REMARK VINA RESULT:      -7.9      1.640      2.217
REMARK  Name = NuBBE_1362
REMARK  4 active torsions:
REMARK  status: ('A' for Active; 'I' for Inactive)
REMARK    1  A    between atoms: C_1  and  C_2
REMARK    2  A    between atoms: C_1  and  C_4
REMARK    3  A    between atoms: C_8  and  C_22
REMARK    4  A    between atoms: C_25  and  C_27
REMARK                            x       y       z     vdW  Elec       q    Type
REMARK                         _______ _______ _______ _____ _____    ______ ____
ROOT
ATOM      1  C   LIG A   1      -6.501  -2.004 124.253  0.00  0.00    +0.067 C 
ATOM      2  C   LIG A   1      -7.953  -1.541 123.935  0.00  0.00    +0.028 C 
ATOM      3  C   LIG A   1      -8.508  -0.867 125.195  0.00  0.00    +0.090 C 
ATOM      4  N   LIG A   1      -8.477  -1.857 126.277  0.00  0.00    -0.277 NA
ATOM      5  C   LIG A   1      -7.173  -2.481 126.552  0.00  0.00    +0.128 C 
ATOM      6  N   LIG A   1      -6.533  -3.034 125.325  0.00  0.00    -0.283 NA
ATOM      7  C   LIG A   1      -7.397  -4.186 124.869  0.00  0.00    +0.091 C 
ATOM      8  C   LIG A   1      -8.874  -3.730 124.765  0.00  0.00    +0.021 C 
ATOM      9  C   LIG A   1      -8.887  -2.730 123.589  0.00  0.00    +0.013 C 
ATOM     10  C   LIG A   1      -9.378  -2.990 126.062  0.00  0.00    +0.063 C 
ATOM     11  C   LIG A   1      -9.369  -3.790 127.419  0.00  0.00    +0.019 C 
ATOM     12  C   LIG A   1      -8.520  -3.097 128.574  0.00  0.00    +0.004 C 
ATOM     13  C   LIG A   1      -7.132  -2.478 128.092  0.00  0.00    +0.035 C 
ENDROOT
BRANCH   3  14
ATOM     14  C   LIG A   1      -7.916   0.501 125.569  0.00  0.00    -0.038 C 
ATOM     15  C   LIG A   1      -7.919   1.007 126.822  0.00  0.00    +0.078 C 
ATOM     16  N   LIG A   1      -7.412   2.255 127.171  0.00  0.00    -0.278 N 
ATOM     17  C   LIG A   1      -7.595   2.719 128.483  0.00  0.00    +0.216 C 
ATOM     18  O   LIG A   1      -8.171   2.089 129.365  0.00  0.00    -0.276 OA
ATOM     19  C   LIG A   1      -7.011   4.080 128.790  0.00  0.00    +0.110 C 
ATOM     20  C   LIG A   1      -6.905   3.109 126.098  0.00  0.00    +0.113 C 
ATOM     21  C   LIG A   1      -6.262   2.311 124.977  0.00  0.00    +0.024 C 
ATOM     22  C   LIG A   1      -7.221   1.247 124.453  0.00  0.00    +0.035 C 
ENDBRANCH   3  14
BRANCH   1  23
ATOM     23  C   LIG A   1      -5.729  -2.450 122.983  0.00  0.00    +0.045 C 
BRANCH  23  24
ATOM     24  C   LIG A   1      -4.411  -3.117 123.291  0.00  0.00    -0.033 C 
ATOM     25  C   LIG A   1      -4.240  -4.444 123.370  0.00  0.00    +0.004 C 
ENDBRANCH  23  24
ENDBRANCH   1  23
TORSDOF 3
ENDMDL
MODEL 3
REMARK VINA RESULT:      -7.7      1.930      3.795
REMARK  Name = NuBBE_1362
REMARK  4 active torsions:
REMARK  status: ('A' for Active; 'I' for Inactive)
REMARK    1  A    between atoms: C_1  and  C_2
REMARK    2  A    between atoms: C_1  and  C_4
REMARK    3  A    between atoms: C_8  and  C_22
REMARK    4  A    between atoms: C_25  and  C_27
REMARK                            x       y       z     vdW  Elec       q    Type
REMARK                         _______ _______ _______ _____ _____    ______ ____
ROOT
ATOM      1  C   LIG A   1      -8.168  -2.321 126.665  0.00  0.00    +0.067 C 
ATOM      2  C   LIG A   1      -6.976  -2.533 125.686  0.00  0.00    +0.028 C 
ATOM      3  C   LIG A   1      -6.662  -1.179 125.042  0.00  0.00    +0.090 C 
ATOM      4  N   LIG A   1      -7.870  -0.733 124.340  0.00  0.00    -0.277 NA
ATOM      5  C   LIG A   1      -9.101  -0.654 125.143  0.00  0.00    +0.128 C 
ATOM      6  N   LIG A   1      -9.372  -1.910 125.896  0.00  0.00    -0.283 NA
ATOM      7  C   LIG A   1      -9.680  -2.973 124.867  0.00  0.00    +0.091 C 
ATOM      8  C   LIG A   1      -8.564  -3.007 123.794  0.00  0.00    +0.021 C 
ATOM      9  C   LIG A   1      -7.320  -3.527 124.547  0.00  0.00    +0.013 C 
ATOM     10  C   LIG A   1      -8.238  -1.582 123.205  0.00  0.00    +0.063 C 
ATOM     11  C   LIG A   1      -9.391  -0.807 122.464  0.00  0.00    +0.019 C 
ATOM     12  C   LIG A   1      -9.706   0.629 123.077  0.00  0.00    +0.004 C 
ATOM     13  C   LIG A   1      -9.711   0.679 124.670  0.00  0.00    +0.035 C 
ENDROOT
BRANCH   3  14
ATOM     14  C   LIG A   1      -6.022  -0.112 125.944  0.00  0.00    -0.038 C 
ATOM     15  C   LIG A   1      -5.914   1.192 125.609  0.00  0.00    +0.078 C 
ATOM     16  N   LIG A   1      -5.312   2.164 126.403  0.00  0.00    -0.278 N 
ATOM     17  C   LIG A   1      -5.145   3.458 125.883  0.00  0.00    +0.216 C 
ATOM     18  O   LIG A   1      -5.508   3.804 124.762  0.00  0.00    -0.276 OA
ATOM     19  C   LIG A   1      -4.491   4.462 126.805  0.00  0.00    +0.110 C 
ATOM     20  C   LIG A   1      -4.690   1.734 127.654  0.00  0.00    +0.113 C 
ATOM     21  C   LIG A   1      -5.428   0.573 128.298  0.00  0.00    +0.024 C 
ATOM     22  C   LIG A   1      -5.584  -0.581 127.313  0.00  0.00    +0.035 C 
ENDBRANCH   3  14
BRANCH   1  23
ATOM     23  C   LIG A   1      -8.405  -3.547 127.587  0.00  0.00    +0.045 C 
BRANCH  23  24
ATOM     24  C   LIG A   1      -8.239  -3.231 129.053  0.00  0.00    -0.033 C 
ATOM     25  C   LIG A   1      -7.057  -3.195 129.684  0.00  0.00    +0.004 C 
ENDBRANCH  23  24
ENDBRANCH   1  23
TORSDOF 3
ENDMDL
MODEL 4
REMARK VINA RESULT:      -7.7      2.524      4.840
REMARK  Name = NuBBE_1362
REMARK  4 active torsions:
REMARK  status: ('A' for Active; 'I' for Inactive)
REMARK    1  A    between atoms: C_1  and  C_2
REMARK    2  A    between atoms: C_1  and  C_4
REMARK    3  A    between atoms: C_8  and  C_22
REMARK    4  A    between atoms: C_25  and  C_27
REMARK                            x       y       z     vdW  Elec       q    Type
REMARK                         _______ _______ _______ _____ _____    ______ ____
ROOT
ATOM      1  C   LIG A   1      -8.488  -1.950 126.320  0.00  0.00    +0.067 C 
ATOM      2  C   LIG A   1      -6.997  -1.510 126.405  0.00  0.00    +0.028 C 
ATOM      3  C   LIG A   1      -6.976   0.005 126.634  0.00  0.00    +0.090 C 
ATOM      4  N   LIG A   1      -7.666   0.633 125.502  0.00  0.00    -0.277 NA
ATOM      5  C   LIG A   1      -9.036   0.167 125.232  0.00  0.00    +0.128 C 
ATOM      6  N   LIG A   1      -9.124  -1.317 125.134  0.00  0.00    -0.283 NA
ATOM      7  C   LIG A   1      -8.355  -1.716 123.897  0.00  0.00    +0.091 C 
ATOM      8  C   LIG A   1      -6.942  -1.083 123.926  0.00  0.00    +0.021 C 
ATOM      9  C   LIG A   1      -6.223  -1.796 125.092  0.00  0.00    +0.013 C 
ATOM     10  C   LIG A   1      -6.972   0.465 124.225  0.00  0.00    +0.063 C 
ATOM     11  C   LIG A   1      -7.735   1.398 123.211  0.00  0.00    +0.019 C 
ATOM     12  C   LIG A   1      -8.889   2.271 123.877  0.00  0.00    +0.004 C 
ATOM     13  C   LIG A   1      -9.776   1.487 124.945  0.00  0.00    +0.035 C 
ENDROOT
BRANCH   3  14
ATOM     14  C   LIG A   1      -7.435   0.505 128.013  0.00  0.00    -0.038 C 
ATOM     15  C   LIG A   1      -8.033   1.698 128.222  0.00  0.00    +0.078 C 
ATOM     16  N   LIG A   1      -8.428   2.177 129.468  0.00  0.00    -0.278 N 
ATOM     17  C   LIG A   1      -8.918   3.489 129.567  0.00  0.00    +0.216 C 
ATOM     18  O   LIG A   1      -9.035   4.256 128.616  0.00  0.00    -0.276 OA
ATOM     19  C   LIG A   1      -9.334   3.936 130.951  0.00  0.00    +0.110 C 
ATOM     20  C   LIG A   1      -8.111   1.365 130.642  0.00  0.00    +0.113 C 
ATOM     21  C   LIG A   1      -8.158  -0.124 130.346  0.00  0.00    +0.024 C 
ATOM     22  C   LIG A   1      -7.266  -0.468 129.158  0.00  0.00    +0.035 C 
ENDBRANCH   3  14
BRANCH   1  23
ATOM     23  C   LIG A   1      -8.655  -3.493 126.368  0.00  0.00    +0.045 C 
BRANCH  23  24
ATOM     24  C   LIG A   1      -9.138  -3.998 127.705  0.00  0.00    -0.033 C 
ATOM     25  C   LIG A   1      -8.625  -3.614 128.883  0.00  0.00    +0.004 C 
ENDBRANCH  23  24
ENDBRANCH   1  23
TORSDOF 3
ENDMDL
MODEL 5
REMARK VINA RESULT:      -7.3      2.885      5.249
REMARK  Name = NuBBE_1362
REMARK  4 active torsions:
REMARK  status: ('A' for Active; 'I' for Inactive)
REMARK    1  A    between atoms: C_1  and  C_2
REMARK    2  A    between atoms: C_1  and  C_4
REMARK    3  A    between atoms: C_8  and  C_22
REMARK    4  A    between atoms: C_25  and  C_27
REMARK                            x       y       z     vdW  Elec       q    Type
REMARK                         _______ _______ _______ _____ _____    ______ ____
ROOT
ATOM      1  C   LIG A   1      -8.509  -1.909 126.095  0.00  0.00    +0.067 C 
ATOM      2  C   LIG A   1      -7.038  -1.398 126.127  0.00  0.00    +0.028 C 
ATOM      3  C   LIG A   1      -7.083   0.125 126.300  0.00  0.00    +0.090 C 
ATOM      4  N   LIG A   1      -7.827   0.677 125.162  0.00  0.00    -0.277 NA
ATOM      5  C   LIG A   1      -9.180   0.138 124.944  0.00  0.00    +0.128 C 
ATOM      6  N   LIG A   1      -9.201  -1.351 124.904  0.00  0.00    -0.283 NA
ATOM      7  C   LIG A   1      -8.443  -1.762 123.663  0.00  0.00    +0.091 C 
ATOM      8  C   LIG A   1      -7.061  -1.063 123.634  0.00  0.00    +0.021 C 
ATOM      9  C   LIG A   1      -6.283  -1.698 124.807  0.00  0.00    +0.013 C 
ATOM     10  C   LIG A   1      -7.156   0.492 123.875  0.00  0.00    +0.063 C 
ATOM     11  C   LIG A   1      -7.985   1.349 122.847  0.00  0.00    +0.019 C 
ATOM     12  C   LIG A   1      -9.163   2.193 123.509  0.00  0.00    +0.004 C 
ATOM     13  C   LIG A   1      -9.987   1.411 124.627  0.00  0.00    +0.035 C 
ENDROOT
BRANCH   3  14
ATOM     14  C   LIG A   1      -7.533   0.655 127.670  0.00  0.00    -0.038 C 
ATOM     15  C   LIG A   1      -7.272   0.035 128.841  0.00  0.00    +0.078 C 
ATOM     16  N   LIG A   1      -7.697   0.488 130.087  0.00  0.00    -0.278 N 
ATOM     17  C   LIG A   1      -7.474  -0.318 131.215  0.00  0.00    +0.216 C 
ATOM     18  O   LIG A   1      -6.913  -1.409 131.184  0.00  0.00    -0.276 OA
ATOM     19  C   LIG A   1      -7.957   0.244 132.534  0.00  0.00    +0.110 C 
ATOM     20  C   LIG A   1      -8.544   1.679 130.127  0.00  0.00    +0.113 C 
ATOM     21  C   LIG A   1      -8.199   2.672 129.030  0.00  0.00    +0.024 C 
ATOM     22  C   LIG A   1      -8.226   1.999 127.663  0.00  0.00    +0.035 C 
ENDBRANCH   3  14
BRANCH   1  23
ATOM     23  C   LIG A   1      -8.603  -3.454 126.205  0.00  0.00    +0.045 C 
BRANCH  23  24
ATOM     24  C   LIG A   1      -9.007  -3.930 127.579  0.00  0.00    -0.033 C 
ATOM     25  C   LIG A   1      -8.480  -3.465 128.720  0.00  0.00    +0.004 C 
ENDBRANCH  23  24
ENDBRANCH   1  23
TORSDOF 3
ENDMDL
MODEL 6
REMARK VINA RESULT:      -7.2      2.574      4.449
REMARK  Name = NuBBE_1362
REMARK  4 active torsions:
REMARK  status: ('A' for Active; 'I' for Inactive)
REMARK    1  A    between atoms: C_1  and  C_2
REMARK    2  A    between atoms: C_1  and  C_4
REMARK    3  A    between atoms: C_8  and  C_22
REMARK    4  A    between atoms: C_25  and  C_27
REMARK                            x       y       z     vdW  Elec       q    Type
REMARK                         _______ _______ _______ _____ _____    ______ ____
ROOT
ATOM      1  C   LIG A   1      -7.860  -1.742 126.751  0.00  0.00    +0.067 C 
ATOM      2  C   LIG A   1      -6.684  -1.863 125.738  0.00  0.00    +0.028 C 
ATOM      3  C   LIG A   1      -6.582  -0.531 124.988  0.00  0.00    +0.090 C 
ATOM      4  N   LIG A   1      -7.864  -0.307 124.310  0.00  0.00    -0.277 NA
ATOM      5  C   LIG A   1      -9.066  -0.335 125.160  0.00  0.00    +0.128 C 
ATOM      6  N   LIG A   1      -9.135  -1.557 126.009  0.00  0.00    -0.283 NA
ATOM      7  C   LIG A   1      -9.327  -2.726 125.072  0.00  0.00    +0.091 C 
ATOM      8  C   LIG A   1      -8.254  -2.688 123.955  0.00  0.00    +0.021 C 
ATOM      9  C   LIG A   1      -6.926  -2.977 124.687  0.00  0.00    +0.013 C 
ATOM     10  C   LIG A   1      -8.149  -1.280 123.255  0.00  0.00    +0.063 C 
ATOM     11  C   LIG A   1      -9.423  -0.727 122.513  0.00  0.00    +0.019 C 
ATOM     12  C   LIG A   1      -9.912   0.696 123.038  0.00  0.00    +0.004 C 
ATOM     13  C   LIG A   1      -9.870   0.864 124.622  0.00  0.00    +0.035 C 
ENDROOT
BRANCH   3  14
ATOM     14  C   LIG A   1      -6.066   0.678 125.785  0.00  0.00    -0.038 C 
ATOM     15  C   LIG A   1      -5.482   0.586 126.999  0.00  0.00    +0.078 C 
ATOM     16  N   LIG A   1      -5.036   1.673 127.745  0.00  0.00    -0.278 N 
ATOM     17  C   LIG A   1      -4.567   1.454 129.051  0.00  0.00    +0.216 C 
ATOM     18  O   LIG A   1      -4.512   0.352 129.589  0.00  0.00    -0.276 OA
ATOM     19  C   LIG A   1      -4.092   2.681 129.797  0.00  0.00    +0.110 C 
ATOM     20  C   LIG A   1      -5.278   3.012 127.211  0.00  0.00    +0.113 C 
ATOM     21  C   LIG A   1      -5.216   3.051 125.694  0.00  0.00    +0.024 C 
ATOM     22  C   LIG A   1      -6.159   2.016 125.088  0.00  0.00    +0.035 C 
ENDBRANCH   3  14
BRANCH   1  23
ATOM     23  C   LIG A   1      -7.893  -2.917 127.766  0.00  0.00    +0.045 C 
BRANCH  23  24
ATOM     24  C   LIG A   1      -7.891  -2.461 129.204  0.00  0.00    -0.033 C 
ATOM     25  C   LIG A   1      -7.509  -3.228 130.235  0.00  0.00    +0.004 C 
ENDBRANCH  23  24
ENDBRANCH   1  23
TORSDOF 3
ENDMDL
MODEL 7
REMARK VINA RESULT:      -7.2      6.546      9.054
REMARK  Name = NuBBE_1362
REMARK  4 active torsions:
REMARK  status: ('A' for Active; 'I' for Inactive)
REMARK    1  A    between atoms: C_1  and  C_2
REMARK    2  A    between atoms: C_1  and  C_4
REMARK    3  A    between atoms: C_8  and  C_22
REMARK    4  A    between atoms: C_25  and  C_27
REMARK                            x       y       z     vdW  Elec       q    Type
REMARK                         _______ _______ _______ _____ _____    ______ ____
ROOT
ATOM      1  C   LIG A   1      -9.223   6.438 129.845  0.00  0.00    +0.067 C 
ATOM      2  C   LIG A   1      -8.725   6.457 131.320  0.00  0.00    +0.028 C 
ATOM      3  C   LIG A   1      -7.611   5.412 131.444  0.00  0.00    +0.090 C 
ATOM      4  N   LIG A   1      -8.183   4.111 131.079  0.00  0.00    -0.277 NA
ATOM      5  C   LIG A   1      -8.828   4.029 129.759  0.00  0.00    +0.128 C 
ATOM      6  N   LIG A   1      -9.827   5.113 129.544  0.00  0.00    -0.283 NA
ATOM      7  C   LIG A   1     -10.956   4.860 130.515  0.00  0.00    +0.091 C 
ATOM      8  C   LIG A   1     -10.391   4.680 131.946  0.00  0.00    +0.021 C 
ATOM      9  C   LIG A   1      -9.843   6.072 132.323  0.00  0.00    +0.013 C 
ATOM     10  C   LIG A   1      -9.209   3.639 132.009  0.00  0.00    +0.063 C 
ATOM     11  C   LIG A   1      -9.508   2.154 131.578  0.00  0.00    +0.019 C 
ATOM     12  C   LIG A   1      -8.575   1.620 130.403  0.00  0.00    +0.004 C 
ATOM     13  C   LIG A   1      -8.319   2.673 129.234  0.00  0.00    +0.035 C 
ENDROOT
BRANCH   3  14
ATOM     14  C   LIG A   1      -6.276   5.735 130.755  0.00  0.00    -0.038 C 
ATOM     15  C   LIG A   1      -5.700   4.947 129.820  0.00  0.00    +0.078 C 
ATOM     16  N   LIG A   1      -4.478   5.211 129.208  0.00  0.00    -0.278 N 
ATOM     17  C   LIG A   1      -3.926   4.246 128.350  0.00  0.00    +0.216 C 
ATOM     18  O   LIG A   1      -4.457   3.171 128.087  0.00  0.00    -0.276 OA
ATOM     19  C   LIG A   1      -2.602   4.607 127.716  0.00  0.00    +0.110 C 
ATOM     20  C   LIG A   1      -3.731   6.385 129.657  0.00  0.00    +0.113 C 
ATOM     21  C   LIG A   1      -4.641   7.528 130.069  0.00  0.00    +0.024 C 
ATOM     22  C   LIG A   1      -5.653   7.065 131.111  0.00  0.00    +0.035 C 
ENDBRANCH   3  14
BRANCH   1  23
ATOM     23  C   LIG A   1     -10.153   7.637 129.516  0.00  0.00    +0.045 C 
BRANCH  23  24
ATOM     24  C   LIG A   1     -10.999   7.414 128.287  0.00  0.00    -0.033 C 
ATOM     25  C   LIG A   1     -10.859   8.099 127.144  0.00  0.00    +0.004 C 
ENDBRANCH  23  24
ENDBRANCH   1  23
TORSDOF 3
ENDMDL
MODEL 8
REMARK VINA RESULT:      -7.2      4.988      8.865
REMARK  Name = NuBBE_1362
REMARK  4 active torsions:
REMARK  status: ('A' for Active; 'I' for Inactive)
REMARK    1  A    between atoms: C_1  and  C_2
REMARK    2  A    between atoms: C_1  and  C_4
REMARK    3  A    between atoms: C_8  and  C_22
REMARK    4  A    between atoms: C_25  and  C_27
REMARK                            x       y       z     vdW  Elec       q    Type
REMARK                         _______ _______ _______ _____ _____    ______ ____
ROOT
ATOM      1  C   LIG A   1      -9.599   6.059 129.815  0.00  0.00    +0.067 C 
ATOM      2  C   LIG A   1      -8.074   6.004 130.126  0.00  0.00    +0.028 C 
ATOM      3  C   LIG A   1      -7.656   4.529 130.126  0.00  0.00    +0.090 C 
ATOM      4  N   LIG A   1      -8.448   3.846 131.154  0.00  0.00    -0.277 NA
ATOM      5  C   LIG A   1      -9.910   3.972 131.045  0.00  0.00    +0.128 C 
ATOM      6  N   LIG A   1     -10.351   5.389 130.908  0.00  0.00    -0.283 NA
ATOM      7  C   LIG A   1     -10.026   6.072 132.215  0.00  0.00    +0.091 C 
ATOM      8  C   LIG A   1      -8.545   5.816 132.590  0.00  0.00    +0.021 C 
ATOM      9  C   LIG A   1      -7.738   6.586 131.523  0.00  0.00    +0.013 C 
ATOM     10  C   LIG A   1      -8.150   4.291 132.517  0.00  0.00    +0.063 C 
ATOM     11  C   LIG A   1      -8.913   3.286 133.458  0.00  0.00    +0.019 C 
ATOM     12  C   LIG A   1      -9.637   2.096 132.685  0.00  0.00    +0.004 C 
ATOM     13  C   LIG A   1     -10.382   2.537 131.346  0.00  0.00    +0.035 C 
ENDROOT
BRANCH   3  14
ATOM     14  C   LIG A   1      -7.632   3.815 128.765  0.00  0.00    -0.038 C 
ATOM     15  C   LIG A   1      -7.166   4.375 127.627  0.00  0.00    +0.078 C 
ATOM     16  N   LIG A   1      -7.164   3.751 126.383  0.00  0.00    -0.278 N 
ATOM     17  C   LIG A   1      -6.775   4.489 125.254  0.00  0.00    +0.216 C 
ATOM     18  O   LIG A   1      -6.420   5.664 125.286  0.00  0.00    -0.276 OA
ATOM     19  C   LIG A   1      -6.790   3.743 123.939  0.00  0.00    +0.110 C 
ATOM     20  C   LIG A   1      -7.772   2.425 126.284  0.00  0.00    +0.113 C 
ATOM     21  C   LIG A   1      -7.584   1.605 127.549  0.00  0.00    +0.024 C 
ATOM     22  C   LIG A   1      -8.083   2.372 128.769  0.00  0.00    +0.035 C 
ENDBRANCH   3  14
BRANCH   1  23
ATOM     23  C   LIG A   1     -10.091   7.500 129.511  0.00  0.00    +0.045 C 
BRANCH  23  24
ATOM     24  C   LIG A   1     -11.544   7.560 129.110  0.00  0.00    -0.033 C 
ATOM     25  C   LIG A   1     -12.263   8.690 129.054  0.00  0.00    +0.004 C 
ENDBRANCH  23  24
ENDBRANCH   1  23
TORSDOF 3
ENDMDL
MODEL 9
REMARK VINA RESULT:      -7.1      2.346      5.799
REMARK  Name = NuBBE_1362
REMARK  4 active torsions:
REMARK  status: ('A' for Active; 'I' for Inactive)
REMARK    1  A    between atoms: C_1  and  C_2
REMARK    2  A    between atoms: C_1  and  C_4
REMARK    3  A    between atoms: C_8  and  C_22
REMARK    4  A    between atoms: C_25  and  C_27
REMARK                            x       y       z     vdW  Elec       q    Type
REMARK                         _______ _______ _______ _____ _____    ______ ____
ROOT
ATOM      1  C   LIG A   1      -7.579   0.801 126.155  0.00  0.00    +0.067 C 
ATOM      2  C   LIG A   1      -8.896   0.080 125.743  0.00  0.00    +0.028 C 
ATOM      3  C   LIG A   1      -8.601  -1.423 125.693  0.00  0.00    +0.090 C 
ATOM      4  N   LIG A   1      -7.534  -1.633 124.709  0.00  0.00    -0.277 NA
ATOM      5  C   LIG A   1      -6.295  -0.867 124.917  0.00  0.00    +0.128 C 
ATOM      6  N   LIG A   1      -6.549   0.589 125.104  0.00  0.00    -0.283 NA
ATOM      7  C   LIG A   1      -7.079   1.109 123.789  0.00  0.00    +0.091 C 
ATOM      8  C   LIG A   1      -8.263   0.230 123.313  0.00  0.00    +0.021 C 
ATOM      9  C   LIG A   1      -9.385   0.508 124.335  0.00  0.00    +0.013 C 
ATOM     10  C   LIG A   1      -7.929  -1.310 123.337  0.00  0.00    +0.063 C 
ATOM     11  C   LIG A   1      -6.746  -1.824 122.433  0.00  0.00    +0.019 C 
ATOM     12  C   LIG A   1      -5.604  -2.592 123.235  0.00  0.00    +0.004 C 
ATOM     13  C   LIG A   1      -5.210  -1.922 124.626  0.00  0.00    +0.035 C 
ENDROOT
BRANCH   3  14
ATOM     14  C   LIG A   1      -8.372  -2.131 127.039  0.00  0.00    -0.038 C 
ATOM     15  C   LIG A   1      -7.879  -1.519 128.138  0.00  0.00    +0.078 C 
ATOM     16  N   LIG A   1      -7.639  -2.153 129.354  0.00  0.00    -0.278 N 
ATOM     17  C   LIG A   1      -7.002  -1.435 130.379  0.00  0.00    +0.216 C 
ATOM     18  O   LIG A   1      -6.643  -0.265 130.283  0.00  0.00    -0.276 OA
ATOM     19  C   LIG A   1      -6.781  -2.186 131.672  0.00  0.00    +0.110 C 
ATOM     20  C   LIG A   1      -7.868  -3.595 129.428  0.00  0.00    +0.113 C 
ATOM     21  C   LIG A   1      -9.021  -4.044 128.548  0.00  0.00    +0.024 C 
ATOM     22  C   LIG A   1      -8.821  -3.573 127.112  0.00  0.00    +0.035 C 
ENDBRANCH   3  14
BRANCH   1  23
ATOM     23  C   LIG A   1      -7.807   2.295 126.512  0.00  0.00    +0.045 C 
BRANCH  23  24
ATOM     24  C   LIG A   1      -7.729   2.571 127.993  0.00  0.00    -0.033 C 
ATOM     25  C   LIG A   1      -8.675   2.216 128.874  0.00  0.00    +0.004 C 
ENDBRANCH  23  24
ENDBRANCH   1  23
TORSDOF 3
ENDMDL
