MODEL 1
REMARK VINA RESULT:      -6.8      0.000      0.000
REMARK  Name = NuBBE_1671
REMARK  14 active torsions:
REMARK  status: ('A' for Active; 'I' for Inactive)
REMARK    1  A    between atoms: C_1  and  O_2
REMARK    2  A    between atoms: O_2  and  C_3
REMARK    3  A    between atoms: C_4  and  O_5
REMARK    4  A    between atoms: O_5  and  C_6
REMARK    5  A    between atoms: C_7  and  O_8
REMARK    6  A    between atoms: O_8  and  C_9
REMARK    7  A    between atoms: C_11  and  C_12
REMARK    8  A    between atoms: C_15  and  C_16
REMARK    9  A    between atoms: C_18  and  O_19
REMARK   10  A    between atoms: O_19  and  C_20
REMARK   11  A    between atoms: C_21  and  O_22
REMARK   12  A    between atoms: O_22  and  C_23
REMARK   13  A    between atoms: C_24  and  O_25
REMARK   14  A    between atoms: O_25  and  C_26
REMARK                            x       y       z     vdW  Elec       q    Type
REMARK                         _______ _______ _______ _____ _____    ______ ____
ROOT
ATOM      1  C   LIG A   1      -7.102  -2.084 127.800  0.00  0.00    +0.154 C 
ATOM      2  C   LIG A   1      -6.911  -1.350 129.134  0.00  0.00    +0.056 C 
ATOM      3  C   LIG A   1      -8.055  -1.808 129.993  0.00  0.00    +0.056 C 
ATOM      4  C   LIG A   1      -7.528  -1.675 131.407  0.00  0.00    +0.154 C 
ATOM      5  O   LIG A   1      -6.123  -1.992 131.291  0.00  0.00    -0.371 OA
ATOM      6  C   LIG A   1      -5.713  -1.865 129.916  0.00  0.00    +0.167 C 
ATOM      7  C   LIG A   1      -8.254  -3.240 129.499  0.00  0.00    +0.167 C 
ATOM      8  O   LIG A   1      -7.857  -3.277 128.121  0.00  0.00    -0.371 OA
ENDROOT
BRANCH   1  13
ATOM      9  C   LIG A   1      -9.130  -1.224 124.700  0.00  0.00    +0.166 A 
ATOM     10  C   LIG A   1      -9.402   0.175 124.880  0.00  0.00    +0.203 A 
ATOM     11  C   LIG A   1      -8.859   0.810 126.014  0.00  0.00    +0.166 A 
ATOM     12  C   LIG A   1      -8.157   0.057 126.952  0.00  0.00    +0.056 A 
ATOM     13  C   LIG A   1      -7.906  -1.295 126.807  0.00  0.00    -0.011 A 
ATOM     14  C   LIG A   1      -8.397  -1.919 125.647  0.00  0.00    +0.056 A 
BRANCH   9  16
ATOM     15  C   LIG A   1      -9.382  -3.204 123.449  0.00  0.00    +0.277 C 
ATOM     16  O   LIG A   1      -9.573  -1.815 123.527  0.00  0.00    -0.491 OA
ENDBRANCH   9  16
BRANCH  10  17
ATOM     17  O   LIG A   1     -10.197   0.851 123.991  0.00  0.00    -0.488 OA
ATOM     18  C   LIG A   1      -9.548   1.497 122.896  0.00  0.00    +0.277 C 
ENDBRANCH  10  17
BRANCH  11  19
ATOM     19  O   LIG A   1      -8.894   2.191 126.161  0.00  0.00    -0.491 OA
ATOM     20  C   LIG A   1      -7.677   2.891 125.822  0.00  0.00    +0.277 C 
ENDBRANCH  11  19
ENDBRANCH   1  13
BRANCH   4  21
ATOM     21  C   LIG A   1      -7.734  -0.286 132.008  0.00  0.00    -0.011 A 
ATOM     22  C   LIG A   1      -6.751   0.295 132.826  0.00  0.00    +0.056 A 
ATOM     23  C   LIG A   1      -6.898   1.591 133.339  0.00  0.00    +0.166 A 
ATOM     24  C   LIG A   1      -8.059   2.363 133.073  0.00  0.00    +0.203 A 
ATOM     25  C   LIG A   1      -9.068   1.784 132.263  0.00  0.00    +0.166 A 
ATOM     26  C   LIG A   1      -8.888   0.469 131.779  0.00  0.00    +0.056 A 
BRANCH  23  27
ATOM     27  O   LIG A   1      -5.904   2.203 134.082  0.00  0.00    -0.491 OA
ATOM     28  C   LIG A   1      -4.641   2.394 133.447  0.00  0.00    +0.277 C 
ENDBRANCH  23  27
BRANCH  24  29
ATOM     29  O   LIG A   1      -7.976   3.695 133.393  0.00  0.00    -0.488 OA
ATOM     30  C   LIG A   1      -8.843   4.177 134.423  0.00  0.00    +0.277 C 
ENDBRANCH  24  29
BRANCH  25  31
ATOM     31  O   LIG A   1     -10.166   2.352 131.672  0.00  0.00    -0.491 OA
ATOM     32  C   LIG A   1     -10.080   3.277 130.606  0.00  0.00    +0.277 C 
ENDBRANCH  25  31
ENDBRANCH   4  21
TORSDOF 8
ENDMDL
MODEL 2
REMARK VINA RESULT:      -6.7      0.531      2.252
REMARK  Name = NuBBE_1671
REMARK  14 active torsions:
REMARK  status: ('A' for Active; 'I' for Inactive)
REMARK    1  A    between atoms: C_1  and  O_2
REMARK    2  A    between atoms: O_2  and  C_3
REMARK    3  A    between atoms: C_4  and  O_5
REMARK    4  A    between atoms: O_5  and  C_6
REMARK    5  A    between atoms: C_7  and  O_8
REMARK    6  A    between atoms: O_8  and  C_9
REMARK    7  A    between atoms: C_11  and  C_12
REMARK    8  A    between atoms: C_15  and  C_16
REMARK    9  A    between atoms: C_18  and  O_19
REMARK   10  A    between atoms: O_19  and  C_20
REMARK   11  A    between atoms: C_21  and  O_22
REMARK   12  A    between atoms: O_22  and  C_23
REMARK   13  A    between atoms: C_24  and  O_25
REMARK   14  A    between atoms: O_25  and  C_26
REMARK                            x       y       z     vdW  Elec       q    Type
REMARK                         _______ _______ _______ _____ _____    ______ ____
ROOT
ATOM      1  C   LIG A   1      -7.004  -1.985 127.793  0.00  0.00    +0.154 C 
ATOM      2  C   LIG A   1      -6.846  -1.234 129.121  0.00  0.00    +0.056 C 
ATOM      3  C   LIG A   1      -7.978  -1.726 129.978  0.00  0.00    +0.056 C 
ATOM      4  C   LIG A   1      -7.465  -1.562 131.394  0.00  0.00    +0.154 C 
ATOM      5  O   LIG A   1      -6.048  -1.828 131.288  0.00  0.00    -0.371 OA
ATOM      6  C   LIG A   1      -5.635  -1.698 129.914  0.00  0.00    +0.167 C 
ATOM      7  C   LIG A   1      -8.122  -3.169 129.495  0.00  0.00    +0.167 C 
ATOM      8  O   LIG A   1      -7.716  -3.202 128.119  0.00  0.00    -0.371 OA
ENDROOT
BRANCH   1  13
ATOM      9  C   LIG A   1      -9.055  -1.231 124.681  0.00  0.00    +0.166 A 
ATOM     10  C   LIG A   1      -9.368   0.162 124.841  0.00  0.00    +0.203 A 
ATOM     11  C   LIG A   1      -8.844   0.829 125.965  0.00  0.00    +0.166 A 
ATOM     12  C   LIG A   1      -8.121   0.111 126.913  0.00  0.00    +0.056 A 
ATOM     13  C   LIG A   1      -7.830  -1.235 126.788  0.00  0.00    -0.011 A 
ATOM     14  C   LIG A   1      -8.302  -1.890 125.637  0.00  0.00    +0.056 A 
BRANCH   9  16
ATOM     15  C   LIG A   1      -9.443  -3.255 123.540  0.00  0.00    +0.277 C 
ATOM     16  O   LIG A   1      -9.481  -1.852 123.516  0.00  0.00    -0.491 OA
ENDBRANCH   9  16
BRANCH  10  17
ATOM     17  O   LIG A   1     -10.183   0.802 123.942  0.00  0.00    -0.488 OA
ATOM     18  C   LIG A   1      -9.549   1.509 122.876  0.00  0.00    +0.277 C 
ENDBRANCH  10  17
BRANCH  11  19
ATOM     19  O   LIG A   1      -8.919   2.210 126.092  0.00  0.00    -0.491 OA
ATOM     20  C   LIG A   1      -7.676   2.927 125.930  0.00  0.00    +0.277 C 
ENDBRANCH  11  19
ENDBRANCH   1  13
BRANCH   4  21
ATOM     21  C   LIG A   1      -7.725  -0.176 131.981  0.00  0.00    -0.011 A 
ATOM     22  C   LIG A   1      -8.873   0.550 131.625  0.00  0.00    +0.056 A 
ATOM     23  C   LIG A   1      -9.157   1.798 132.196  0.00  0.00    +0.166 A 
ATOM     24  C   LIG A   1      -8.282   2.393 133.142  0.00  0.00    +0.203 A 
ATOM     25  C   LIG A   1      -7.110   1.680 133.499  0.00  0.00    +0.166 A 
ATOM     26  C   LIG A   1      -6.853   0.433 132.888  0.00  0.00    +0.056 A 
BRANCH  23  27
ATOM     27  O   LIG A   1     -10.323   2.488 131.911  0.00  0.00    -0.491 OA
ATOM     28  C   LIG A   1     -10.339   3.276 130.723  0.00  0.00    +0.277 C 
ENDBRANCH  23  27
BRANCH  24  29
ATOM     29  O   LIG A   1      -8.787   3.469 133.827  0.00  0.00    -0.488 OA
ATOM     30  C   LIG A   1      -8.163   4.737 133.608  0.00  0.00    +0.277 C 
ENDBRANCH  24  29
BRANCH  25  31
ATOM     31  O   LIG A   1      -6.217   1.893 134.517  0.00  0.00    -0.491 OA
ATOM     32  C   LIG A   1      -5.429   0.865 135.084  0.00  0.00    +0.277 C 
ENDBRANCH  25  31
ENDBRANCH   4  21
TORSDOF 8
ENDMDL
MODEL 3
REMARK VINA RESULT:      -6.7      0.481      7.502
REMARK  Name = NuBBE_1671
REMARK  14 active torsions:
REMARK  status: ('A' for Active; 'I' for Inactive)
REMARK    1  A    between atoms: C_1  and  O_2
REMARK    2  A    between atoms: O_2  and  C_3
REMARK    3  A    between atoms: C_4  and  O_5
REMARK    4  A    between atoms: O_5  and  C_6
REMARK    5  A    between atoms: C_7  and  O_8
REMARK    6  A    between atoms: O_8  and  C_9
REMARK    7  A    between atoms: C_11  and  C_12
REMARK    8  A    between atoms: C_15  and  C_16
REMARK    9  A    between atoms: C_18  and  O_19
REMARK   10  A    between atoms: O_19  and  C_20
REMARK   11  A    between atoms: C_21  and  O_22
REMARK   12  A    between atoms: O_22  and  C_23
REMARK   13  A    between atoms: C_24  and  O_25
REMARK   14  A    between atoms: O_25  and  C_26
REMARK                            x       y       z     vdW  Elec       q    Type
REMARK                         _______ _______ _______ _____ _____    ______ ____
ROOT
ATOM      1  C   LIG A   1      -7.539  -1.481 131.518  0.00  0.00    +0.154 C 
ATOM      2  C   LIG A   1      -7.923  -1.624 130.040  0.00  0.00    +0.056 C 
ATOM      3  C   LIG A   1      -6.685  -1.235 129.281  0.00  0.00    +0.056 C 
ATOM      4  C   LIG A   1      -6.803  -1.993 127.975  0.00  0.00    +0.154 C 
ATOM      5  O   LIG A   1      -7.452  -3.230 128.342  0.00  0.00    -0.371 OA
ATOM      6  C   LIG A   1      -8.099  -3.074 129.620  0.00  0.00    +0.167 C 
ATOM      7  C   LIG A   1      -5.585  -1.720 130.224  0.00  0.00    +0.167 C 
ATOM      8  O   LIG A   1      -6.101  -1.641 131.561  0.00  0.00    -0.371 OA
ENDROOT
BRANCH   1  13
ATOM      9  C   LIG A   1      -9.326   1.819 132.129  0.00  0.00    +0.166 A 
ATOM     10  C   LIG A   1      -8.479   2.462 133.094  0.00  0.00    +0.203 A 
ATOM     11  C   LIG A   1      -7.302   1.794 133.484  0.00  0.00    +0.166 A 
ATOM     12  C   LIG A   1      -7.042   0.518 132.992  0.00  0.00    +0.056 A 
ATOM     13  C   LIG A   1      -7.859  -0.126 132.080  0.00  0.00    -0.011 A 
ATOM     14  C   LIG A   1      -9.004   0.563 131.645  0.00  0.00    +0.056 A 
BRANCH   9  16
ATOM     15  C   LIG A   1     -10.240   3.180 130.437  0.00  0.00    +0.277 C 
ATOM     16  O   LIG A   1     -10.424   2.531 131.668  0.00  0.00    -0.491 OA
ENDBRANCH   9  16
BRANCH  10  17
ATOM     17  O   LIG A   1      -8.834   3.668 133.640  0.00  0.00    -0.488 OA
ATOM     18  C   LIG A   1      -8.318   4.844 133.016  0.00  0.00    +0.277 C 
ENDBRANCH  10  17
BRANCH  11  19
ATOM     19  O   LIG A   1      -6.326   2.424 134.246  0.00  0.00    -0.491 OA
ATOM     20  C   LIG A   1      -5.192   2.940 133.517  0.00  0.00    +0.277 C 
ENDBRANCH  11  19
ENDBRANCH   1  13
BRANCH   4  21
ATOM     21  C   LIG A   1      -7.599  -1.248 126.906  0.00  0.00    -0.011 A 
ATOM     22  C   LIG A   1      -8.218  -1.945 125.855  0.00  0.00    +0.056 A 
ATOM     23  C   LIG A   1      -8.999  -1.284 124.897  0.00  0.00    +0.166 A 
ATOM     24  C   LIG A   1      -9.178   0.123 124.935  0.00  0.00    +0.203 A 
ATOM     25  C   LIG A   1      -8.545   0.844 125.980  0.00  0.00    +0.166 A 
ATOM     26  C   LIG A   1      -7.753   0.142 126.915  0.00  0.00    +0.056 A 
BRANCH  23  27
ATOM     27  O   LIG A   1      -9.677  -1.968 123.903  0.00  0.00    -0.491 OA
ATOM     28  C   LIG A   1      -9.354  -3.346 123.726  0.00  0.00    +0.277 C 
ENDBRANCH  23  27
BRANCH  24  29
ATOM     29  O   LIG A   1     -10.167   0.621 124.124  0.00  0.00    -0.488 OA
ATOM     30  C   LIG A   1      -9.763   1.447 123.028  0.00  0.00    +0.277 C 
ENDBRANCH  24  29
BRANCH  25  31
ATOM     31  O   LIG A   1      -8.711   2.141 126.390  0.00  0.00    -0.491 OA
ATOM     32  C   LIG A   1      -7.866   3.197 125.979  0.00  0.00    +0.277 C 
ENDBRANCH  25  31
ENDBRANCH   4  21
TORSDOF 8
ENDMDL
MODEL 4
REMARK VINA RESULT:      -6.7      0.213      2.276
REMARK  Name = NuBBE_1671
REMARK  14 active torsions:
REMARK  status: ('A' for Active; 'I' for Inactive)
REMARK    1  A    between atoms: C_1  and  O_2
REMARK    2  A    between atoms: O_2  and  C_3
REMARK    3  A    between atoms: C_4  and  O_5
REMARK    4  A    between atoms: O_5  and  C_6
REMARK    5  A    between atoms: C_7  and  O_8
REMARK    6  A    between atoms: O_8  and  C_9
REMARK    7  A    between atoms: C_11  and  C_12
REMARK    8  A    between atoms: C_15  and  C_16
REMARK    9  A    between atoms: C_18  and  O_19
REMARK   10  A    between atoms: O_19  and  C_20
REMARK   11  A    between atoms: C_21  and  O_22
REMARK   12  A    between atoms: O_22  and  C_23
REMARK   13  A    between atoms: C_24  and  O_25
REMARK   14  A    between atoms: O_25  and  C_26
REMARK                            x       y       z     vdW  Elec       q    Type
REMARK                         _______ _______ _______ _____ _____    ______ ____
ROOT
ATOM      1  C   LIG A   1      -7.047  -2.108 127.727  0.00  0.00    +0.154 C 
ATOM      2  C   LIG A   1      -6.883  -1.403 129.079  0.00  0.00    +0.056 C 
ATOM      3  C   LIG A   1      -8.077  -1.833 129.884  0.00  0.00    +0.056 C 
ATOM      4  C   LIG A   1      -7.604  -1.741 131.321  0.00  0.00    +0.154 C 
ATOM      5  O   LIG A   1      -6.207  -2.106 131.255  0.00  0.00    -0.371 OA
ATOM      6  C   LIG A   1      -5.737  -1.973 129.900  0.00  0.00    +0.167 C 
ATOM      7  C   LIG A   1      -8.306  -3.249 129.358  0.00  0.00    +0.167 C 
ATOM      8  O   LIG A   1      -7.856  -3.279 127.996  0.00  0.00    -0.371 OA
ENDROOT
BRANCH   1  13
ATOM      9  C   LIG A   1      -8.672   0.893 126.049  0.00  0.00    +0.166 A 
ATOM     10  C   LIG A   1      -9.201   0.328 124.840  0.00  0.00    +0.203 A 
ATOM     11  C   LIG A   1      -9.042  -1.056 124.635  0.00  0.00    +0.166 A 
ATOM     12  C   LIG A   1      -8.318  -1.807 125.557  0.00  0.00    +0.056 A 
ATOM     13  C   LIG A   1      -7.781  -1.276 126.715  0.00  0.00    -0.011 A 
ATOM     14  C   LIG A   1      -7.988   0.094 126.950  0.00  0.00    +0.056 A 
BRANCH   9  16
ATOM     15  C   LIG A   1      -7.799   3.065 126.308  0.00  0.00    +0.277 C 
ATOM     16  O   LIG A   1      -8.929   2.233 126.295  0.00  0.00    -0.491 OA
ENDBRANCH   9  16
BRANCH  10  17
ATOM     17  O   LIG A   1      -9.806   1.127 123.903  0.00  0.00    -0.488 OA
ATOM     18  C   LIG A   1      -8.961   1.752 122.937  0.00  0.00    +0.277 C 
ENDBRANCH  10  17
BRANCH  11  19
ATOM     19  O   LIG A   1      -9.697  -1.720 123.605  0.00  0.00    -0.491 OA
ATOM     20  C   LIG A   1      -9.361  -3.114 123.438  0.00  0.00    +0.277 C 
ENDBRANCH  11  19
ENDBRANCH   1  13
BRANCH   4  21
ATOM     21  C   LIG A   1      -7.785  -0.355 131.936  0.00  0.00    -0.011 A 
ATOM     22  C   LIG A   1      -6.787   0.204 132.750  0.00  0.00    +0.056 A 
ATOM     23  C   LIG A   1      -6.911   1.497 133.277  0.00  0.00    +0.166 A 
ATOM     24  C   LIG A   1      -8.062   2.288 133.029  0.00  0.00    +0.203 A 
ATOM     25  C   LIG A   1      -9.087   1.730 132.222  0.00  0.00    +0.166 A 
ATOM     26  C   LIG A   1      -8.930   0.418 131.724  0.00  0.00    +0.056 A 
BRANCH  23  27
ATOM     27  O   LIG A   1      -5.901   2.088 134.017  0.00  0.00    -0.491 OA
ATOM     28  C   LIG A   1      -4.642   2.266 133.373  0.00  0.00    +0.277 C 
ENDBRANCH  23  27
BRANCH  24  29
ATOM     29  O   LIG A   1      -7.958   3.615 133.361  0.00  0.00    -0.488 OA
ATOM     30  C   LIG A   1      -8.835   4.108 134.377  0.00  0.00    +0.277 C 
ENDBRANCH  24  29
BRANCH  25  31
ATOM     31  O   LIG A   1     -10.182   2.320 131.646  0.00  0.00    -0.491 OA
ATOM     32  C   LIG A   1     -10.091   3.263 130.596  0.00  0.00    +0.277 C 
ENDBRANCH  25  31
ENDBRANCH   4  21
TORSDOF 8
ENDMDL
MODEL 5
REMARK VINA RESULT:      -6.6      0.416      3.157
REMARK  Name = NuBBE_1671
REMARK  14 active torsions:
REMARK  status: ('A' for Active; 'I' for Inactive)
REMARK    1  A    between atoms: C_1  and  O_2
REMARK    2  A    between atoms: O_2  and  C_3
REMARK    3  A    between atoms: C_4  and  O_5
REMARK    4  A    between atoms: O_5  and  C_6
REMARK    5  A    between atoms: C_7  and  O_8
REMARK    6  A    between atoms: O_8  and  C_9
REMARK    7  A    between atoms: C_11  and  C_12
REMARK    8  A    between atoms: C_15  and  C_16
REMARK    9  A    between atoms: C_18  and  O_19
REMARK   10  A    between atoms: O_19  and  C_20
REMARK   11  A    between atoms: C_21  and  O_22
REMARK   12  A    between atoms: O_22  and  C_23
REMARK   13  A    between atoms: C_24  and  O_25
REMARK   14  A    between atoms: O_25  and  C_26
REMARK                            x       y       z     vdW  Elec       q    Type
REMARK                         _______ _______ _______ _____ _____    ______ ____
ROOT
ATOM      1  C   LIG A   1      -7.004  -2.073 127.701  0.00  0.00    +0.154 C 
ATOM      2  C   LIG A   1      -6.841  -1.361 129.050  0.00  0.00    +0.056 C 
ATOM      3  C   LIG A   1      -8.023  -1.804 129.865  0.00  0.00    +0.056 C 
ATOM      4  C   LIG A   1      -7.541  -1.700 131.297  0.00  0.00    +0.154 C 
ATOM      5  O   LIG A   1      -6.140  -2.045 131.224  0.00  0.00    -0.371 OA
ATOM      6  C   LIG A   1      -5.681  -1.911 129.865  0.00  0.00    +0.167 C 
ATOM      7  C   LIG A   1      -8.236  -3.225 129.346  0.00  0.00    +0.167 C 
ATOM      8  O   LIG A   1      -7.795  -3.253 127.981  0.00  0.00    -0.371 OA
ENDROOT
BRANCH   1  13
ATOM      9  C   LIG A   1      -8.679   0.900 126.022  0.00  0.00    +0.166 A 
ATOM     10  C   LIG A   1      -9.212   0.322 124.820  0.00  0.00    +0.203 A 
ATOM     11  C   LIG A   1      -9.038  -1.061 124.621  0.00  0.00    +0.166 A 
ATOM     12  C   LIG A   1      -8.297  -1.799 125.541  0.00  0.00    +0.056 A 
ATOM     13  C   LIG A   1      -7.757  -1.255 126.692  0.00  0.00    -0.011 A 
ATOM     14  C   LIG A   1      -7.978   0.114 126.921  0.00  0.00    +0.056 A 
BRANCH   9  16
ATOM     15  C   LIG A   1      -7.829   3.084 126.257  0.00  0.00    +0.277 C 
ATOM     16  O   LIG A   1      -8.950   2.238 126.263  0.00  0.00    -0.491 OA
ENDBRANCH   9  16
BRANCH  10  17
ATOM     17  O   LIG A   1      -9.834   1.109 123.884  0.00  0.00    -0.488 OA
ATOM     18  C   LIG A   1      -9.004   1.743 122.911  0.00  0.00    +0.277 C 
ENDBRANCH  10  17
BRANCH  11  19
ATOM     19  O   LIG A   1      -9.694  -1.738 123.600  0.00  0.00    -0.491 OA
ATOM     20  C   LIG A   1      -9.350  -3.132 123.445  0.00  0.00    +0.277 C 
ENDBRANCH  11  19
ENDBRANCH   1  13
BRANCH   4  21
ATOM     21  C   LIG A   1      -7.737  -0.314 131.908  0.00  0.00    -0.011 A 
ATOM     22  C   LIG A   1      -8.861   0.463 131.581  0.00  0.00    +0.056 A 
ATOM     23  C   LIG A   1      -9.086   1.712 132.174  0.00  0.00    +0.166 A 
ATOM     24  C   LIG A   1      -8.175   2.257 133.115  0.00  0.00    +0.203 A 
ATOM     25  C   LIG A   1      -7.026   1.493 133.444  0.00  0.00    +0.166 A 
ATOM     26  C   LIG A   1      -6.829   0.246 132.811  0.00  0.00    +0.056 A 
BRANCH  23  27
ATOM     27  O   LIG A   1     -10.228   2.452 131.917  0.00  0.00    -0.491 OA
ATOM     28  C   LIG A   1     -10.262   3.195 130.702  0.00  0.00    +0.277 C 
ENDBRANCH  23  27
BRANCH  24  29
ATOM     29  O   LIG A   1      -8.626   3.342 133.824  0.00  0.00    -0.488 OA
ATOM     30  C   LIG A   1      -8.073   4.619 133.492  0.00  0.00    +0.277 C 
ENDBRANCH  24  29
BRANCH  25  31
ATOM     31  O   LIG A   1      -6.111   1.655 134.452  0.00  0.00    -0.491 OA
ATOM     32  C   LIG A   1      -5.083   2.624 134.415  0.00  0.00    +0.277 C 
ENDBRANCH  25  31
ENDBRANCH   4  21
TORSDOF 8
ENDMDL
MODEL 6
REMARK VINA RESULT:      -6.5      1.657      7.619
REMARK  Name = NuBBE_1671
REMARK  14 active torsions:
REMARK  status: ('A' for Active; 'I' for Inactive)
REMARK    1  A    between atoms: C_1  and  O_2
REMARK    2  A    between atoms: O_2  and  C_3
REMARK    3  A    between atoms: C_4  and  O_5
REMARK    4  A    between atoms: O_5  and  C_6
REMARK    5  A    between atoms: C_7  and  O_8
REMARK    6  A    between atoms: O_8  and  C_9
REMARK    7  A    between atoms: C_11  and  C_12
REMARK    8  A    between atoms: C_15  and  C_16
REMARK    9  A    between atoms: C_18  and  O_19
REMARK   10  A    between atoms: O_19  and  C_20
REMARK   11  A    between atoms: C_21  and  O_22
REMARK   12  A    between atoms: O_22  and  C_23
REMARK   13  A    between atoms: C_24  and  O_25
REMARK   14  A    between atoms: O_25  and  C_26
REMARK                            x       y       z     vdW  Elec       q    Type
REMARK                         _______ _______ _______ _____ _____    ______ ____
ROOT
ATOM      1  C   LIG A   1      -7.618   0.499 131.740  0.00  0.00    +0.154 C 
ATOM      2  C   LIG A   1      -7.966  -0.067 130.358  0.00  0.00    +0.056 C 
ATOM      3  C   LIG A   1      -6.751   0.200 129.515  0.00  0.00    +0.056 C 
ATOM      4  C   LIG A   1      -6.789  -0.889 128.463  0.00  0.00    +0.154 C 
ATOM      5  O   LIG A   1      -7.345  -2.029 129.155  0.00  0.00    -0.371 OA
ATOM      6  C   LIG A   1      -8.023  -1.586 130.347  0.00  0.00    +0.167 C 
ATOM      7  C   LIG A   1      -5.631   0.076 130.547  0.00  0.00    +0.167 C 
ATOM      8  O   LIG A   1      -6.172   0.471 131.816  0.00  0.00    -0.371 OA
ENDROOT
BRANCH   1  13
ATOM      9  C   LIG A   1      -8.536   4.098 130.922  0.00  0.00    +0.166 A 
ATOM     10  C   LIG A   1      -8.833   4.648 132.215  0.00  0.00    +0.203 A 
ATOM     11  C   LIG A   1      -8.674   3.813 133.338  0.00  0.00    +0.166 A 
ATOM     12  C   LIG A   1      -8.319   2.479 133.156  0.00  0.00    +0.056 A 
ATOM     13  C   LIG A   1      -8.051   1.926 131.917  0.00  0.00    -0.011 A 
ATOM     14  C   LIG A   1      -8.153   2.773 130.800  0.00  0.00    +0.056 A 
BRANCH   9  16
ATOM     15  C   LIG A   1      -8.080   4.433 128.636  0.00  0.00    +0.277 C 
ATOM     16  O   LIG A   1      -8.588   4.957 129.835  0.00  0.00    -0.491 OA
ENDBRANCH   9  16
BRANCH  10  17
ATOM     17  O   LIG A   1      -9.293   5.934 132.337  0.00  0.00    -0.488 OA
ATOM     18  C   LIG A   1     -10.707   6.128 132.291  0.00  0.00    +0.277 C 
ENDBRANCH  10  17
BRANCH  11  19
ATOM     19  O   LIG A   1      -8.736   4.314 134.632  0.00  0.00    -0.491 OA
ATOM     20  C   LIG A   1      -7.510   4.871 135.152  0.00  0.00    +0.277 C 
ENDBRANCH  11  19
ENDBRANCH   1  13
BRANCH   4  21
ATOM     21  C   LIG A   1      -7.623  -0.526 127.237  0.00  0.00    -0.011 A 
ATOM     22  C   LIG A   1      -8.194  -1.527 126.434  0.00  0.00    +0.056 A 
ATOM     23  C   LIG A   1      -9.009  -1.212 125.338  0.00  0.00    +0.166 A 
ATOM     24  C   LIG A   1      -9.274   0.135 124.979  0.00  0.00    +0.203 A 
ATOM     25  C   LIG A   1      -8.692   1.158 125.770  0.00  0.00    +0.166 A 
ATOM     26  C   LIG A   1      -7.863   0.798 126.855  0.00  0.00    +0.056 A 
BRANCH  23  27
ATOM     27  O   LIG A   1      -9.639  -2.189 124.587  0.00  0.00    -0.491 OA
ATOM     28  C   LIG A   1      -8.844  -2.889 123.633  0.00  0.00    +0.277 C 
ENDBRANCH  23  27
BRANCH  24  29
ATOM     29  O   LIG A   1     -10.287   0.323 124.073  0.00  0.00    -0.488 OA
ATOM     30  C   LIG A   1      -9.937   0.879 122.803  0.00  0.00    +0.277 C 
ENDBRANCH  24  29
BRANCH  25  31
ATOM     31  O   LIG A   1      -8.939   2.506 125.799  0.00  0.00    -0.491 OA
ATOM     32  C   LIG A   1      -8.220   3.442 125.020  0.00  0.00    +0.277 C 
ENDBRANCH  25  31
ENDBRANCH   4  21
TORSDOF 8
ENDMDL
MODEL 7
REMARK VINA RESULT:      -6.5      3.334      8.462
REMARK  Name = NuBBE_1671
REMARK  14 active torsions:
REMARK  status: ('A' for Active; 'I' for Inactive)
REMARK    1  A    between atoms: C_1  and  O_2
REMARK    2  A    between atoms: O_2  and  C_3
REMARK    3  A    between atoms: C_4  and  O_5
REMARK    4  A    between atoms: O_5  and  C_6
REMARK    5  A    between atoms: C_7  and  O_8
REMARK    6  A    between atoms: O_8  and  C_9
REMARK    7  A    between atoms: C_11  and  C_12
REMARK    8  A    between atoms: C_15  and  C_16
REMARK    9  A    between atoms: C_18  and  O_19
REMARK   10  A    between atoms: O_19  and  C_20
REMARK   11  A    between atoms: C_21  and  O_22
REMARK   12  A    between atoms: O_22  and  C_23
REMARK   13  A    between atoms: C_24  and  O_25
REMARK   14  A    between atoms: O_25  and  C_26
REMARK                            x       y       z     vdW  Elec       q    Type
REMARK                         _______ _______ _______ _____ _____    ______ ____
ROOT
ATOM      1  C   LIG A   1      -5.653   4.329 125.623  0.00  0.00    +0.154 C 
ATOM      2  C   LIG A   1      -6.325   2.976 125.360  0.00  0.00    +0.056 C 
ATOM      3  C   LIG A   1      -7.704   3.112 125.939  0.00  0.00    +0.056 C 
ATOM      4  C   LIG A   1      -8.541   2.145 125.127  0.00  0.00    +0.154 C 
ATOM      5  O   LIG A   1      -7.958   2.198 123.806  0.00  0.00    -0.371 OA
ATOM      6  C   LIG A   1      -6.629   2.750 123.888  0.00  0.00    +0.167 C 
ATOM      7  C   LIG A   1      -7.992   4.593 125.696  0.00  0.00    +0.167 C 
ATOM      8  O   LIG A   1      -6.735   5.284 125.728  0.00  0.00    -0.371 OA
ENDROOT
BRANCH   1  13
ATOM      9  C   LIG A   1      -3.532   5.622 128.503  0.00  0.00    +0.166 A 
ATOM     10  C   LIG A   1      -3.408   4.466 129.345  0.00  0.00    +0.203 A 
ATOM     11  C   LIG A   1      -3.999   3.266 128.906  0.00  0.00    +0.166 A 
ATOM     12  C   LIG A   1      -4.742   3.257 127.729  0.00  0.00    +0.056 A 
ATOM     13  C   LIG A   1      -4.892   4.366 126.917  0.00  0.00    -0.011 A 
ATOM     14  C   LIG A   1      -4.254   5.551 127.323  0.00  0.00    +0.056 A 
BRANCH   9  16
ATOM     15  C   LIG A   1      -3.666   7.891 129.121  0.00  0.00    +0.277 C 
ATOM     16  O   LIG A   1      -2.855   6.770 128.887  0.00  0.00    -0.491 OA
ENDBRANCH   9  16
BRANCH  10  17
ATOM     17  O   LIG A   1      -2.766   4.550 130.554  0.00  0.00    -0.488 OA
ATOM     18  C   LIG A   1      -3.564   4.866 131.695  0.00  0.00    +0.277 C 
ENDBRANCH  10  17
BRANCH  11  19
ATOM     19  O   LIG A   1      -3.755   2.057 129.547  0.00  0.00    -0.491 OA
ATOM     20  C   LIG A   1      -4.816   1.567 130.394  0.00  0.00    +0.277 C 
ENDBRANCH  11  19
ENDBRANCH   1  13
BRANCH   4  21
ATOM     21  C   LIG A   1      -8.535   0.721 125.677  0.00  0.00    -0.011 A 
ATOM     22  C   LIG A   1      -9.128  -0.330 124.958  0.00  0.00    +0.056 A 
ATOM     23  C   LIG A   1      -9.083  -1.652 125.420  0.00  0.00    +0.166 A 
ATOM     24  C   LIG A   1      -8.456  -1.983 126.649  0.00  0.00    +0.203 A 
ATOM     25  C   LIG A   1      -7.866  -0.931 127.396  0.00  0.00    +0.166 A 
ATOM     26  C   LIG A   1      -7.949   0.390 126.902  0.00  0.00    +0.056 A 
BRANCH  23  27
ATOM     27  O   LIG A   1      -9.596  -2.705 124.683  0.00  0.00    -0.491 OA
ATOM     28  C   LIG A   1      -9.110  -2.867 123.353  0.00  0.00    +0.277 C 
ENDBRANCH  23  27
BRANCH  24  29
ATOM     29  O   LIG A   1      -8.235  -3.320 126.865  0.00  0.00    -0.488 OA
ATOM     30  C   LIG A   1      -8.937  -3.933 127.950  0.00  0.00    +0.277 C 
ENDBRANCH  24  29
BRANCH  25  31
ATOM     31  O   LIG A   1      -7.024  -0.974 128.476  0.00  0.00    -0.491 OA
ATOM     32  C   LIG A   1      -7.481  -1.042 129.812  0.00  0.00    +0.277 C 
ENDBRANCH  25  31
ENDBRANCH   4  21
TORSDOF 8
ENDMDL
MODEL 8
REMARK VINA RESULT:      -6.5      0.914      7.543
REMARK  Name = NuBBE_1671
REMARK  14 active torsions:
REMARK  status: ('A' for Active; 'I' for Inactive)
REMARK    1  A    between atoms: C_1  and  O_2
REMARK    2  A    between atoms: O_2  and  C_3
REMARK    3  A    between atoms: C_4  and  O_5
REMARK    4  A    between atoms: O_5  and  C_6
REMARK    5  A    between atoms: C_7  and  O_8
REMARK    6  A    between atoms: O_8  and  C_9
REMARK    7  A    between atoms: C_11  and  C_12
REMARK    8  A    between atoms: C_15  and  C_16
REMARK    9  A    between atoms: C_18  and  O_19
REMARK   10  A    between atoms: O_19  and  C_20
REMARK   11  A    between atoms: C_21  and  O_22
REMARK   12  A    between atoms: O_22  and  C_23
REMARK   13  A    between atoms: C_24  and  O_25
REMARK   14  A    between atoms: O_25  and  C_26
REMARK                            x       y       z     vdW  Elec       q    Type
REMARK                         _______ _______ _______ _____ _____    ______ ____
ROOT
ATOM      1  C   LIG A   1      -7.040  -1.009 132.041  0.00  0.00    +0.154 C 
ATOM      2  C   LIG A   1      -7.563  -1.339 130.638  0.00  0.00    +0.056 C 
ATOM      3  C   LIG A   1      -6.481  -0.877 129.704  0.00  0.00    +0.056 C 
ATOM      4  C   LIG A   1      -6.640  -1.766 128.487  0.00  0.00    +0.154 C 
ATOM      5  O   LIG A   1      -7.074  -3.032 129.031  0.00  0.00    -0.371 OA
ATOM      6  C   LIG A   1      -7.591  -2.834 130.361  0.00  0.00    +0.167 C 
ATOM      7  C   LIG A   1      -5.227  -1.130 130.541  0.00  0.00    +0.167 C 
ATOM      8  O   LIG A   1      -5.597  -0.987 131.920  0.00  0.00    -0.371 OA
ENDROOT
BRANCH   1  13
ATOM      9  C   LIG A   1      -9.091   2.166 132.459  0.00  0.00    +0.166 A 
ATOM     10  C   LIG A   1      -8.308   2.925 133.392  0.00  0.00    +0.203 A 
ATOM     11  C   LIG A   1      -7.086   2.376 133.825  0.00  0.00    +0.166 A 
ATOM     12  C   LIG A   1      -6.719   1.100 133.406  0.00  0.00    +0.056 A 
ATOM     13  C   LIG A   1      -7.472   0.345 132.526  0.00  0.00    -0.011 A 
ATOM     14  C   LIG A   1      -8.664   0.914 132.047  0.00  0.00    +0.056 A 
BRANCH   9  16
ATOM     15  C   LIG A   1     -10.119   3.272 130.651  0.00  0.00    +0.277 C 
ATOM     16  O   LIG A   1     -10.238   2.760 131.953  0.00  0.00    -0.491 OA
ENDBRANCH   9  16
BRANCH  10  17
ATOM     17  O   LIG A   1      -8.764   4.127 133.870  0.00  0.00    -0.488 OA
ATOM     18  C   LIG A   1      -8.295   5.308 133.218  0.00  0.00    +0.277 C 
ENDBRANCH  10  17
BRANCH  11  19
ATOM     19  O   LIG A   1      -6.171   3.123 134.558  0.00  0.00    -0.491 OA
ATOM     20  C   LIG A   1      -4.911   2.478 134.839  0.00  0.00    +0.277 C 
ENDBRANCH  11  19
ENDBRANCH   1  13
BRANCH   4  21
ATOM     21  C   LIG A   1      -7.642  -1.230 127.467  0.00  0.00    -0.011 A 
ATOM     22  C   LIG A   1      -7.871   0.151 127.342  0.00  0.00    +0.056 A 
ATOM     23  C   LIG A   1      -8.744   0.664 126.373  0.00  0.00    +0.166 A 
ATOM     24  C   LIG A   1      -9.454  -0.192 125.492  0.00  0.00    +0.203 A 
ATOM     25  C   LIG A   1      -9.247  -1.590 125.617  0.00  0.00    +0.166 A 
ATOM     26  C   LIG A   1      -8.371  -2.067 126.617  0.00  0.00    +0.056 A 
BRANCH  23  27
ATOM     27  O   LIG A   1      -8.919   2.025 126.190  0.00  0.00    -0.491 OA
ATOM     28  C   LIG A   1      -7.770   2.784 125.821  0.00  0.00    +0.277 C 
ENDBRANCH  23  27
BRANCH  24  29
ATOM     29  O   LIG A   1     -10.060   0.420 124.424  0.00  0.00    -0.488 OA
ATOM     30  C   LIG A   1      -9.357   0.414 123.179  0.00  0.00    +0.277 C 
ENDBRANCH  24  29
BRANCH  25  31
ATOM     31  O   LIG A   1      -9.613  -2.618 124.788  0.00  0.00    -0.491 OA
ATOM     32  C   LIG A   1      -8.719  -3.240 123.886  0.00  0.00    +0.277 C 
ENDBRANCH  25  31
ENDBRANCH   4  21
TORSDOF 8
ENDMDL
MODEL 9
REMARK VINA RESULT:      -6.5      2.272      3.632
REMARK  Name = NuBBE_1671
REMARK  14 active torsions:
REMARK  status: ('A' for Active; 'I' for Inactive)
REMARK    1  A    between atoms: C_1  and  O_2
REMARK    2  A    between atoms: O_2  and  C_3
REMARK    3  A    between atoms: C_4  and  O_5
REMARK    4  A    between atoms: O_5  and  C_6
REMARK    5  A    between atoms: C_7  and  O_8
REMARK    6  A    between atoms: O_8  and  C_9
REMARK    7  A    between atoms: C_11  and  C_12
REMARK    8  A    between atoms: C_15  and  C_16
REMARK    9  A    between atoms: C_18  and  O_19
REMARK   10  A    between atoms: O_19  and  C_20
REMARK   11  A    between atoms: C_21  and  O_22
REMARK   12  A    between atoms: O_22  and  C_23
REMARK   13  A    between atoms: C_24  and  O_25
REMARK   14  A    between atoms: O_25  and  C_26
REMARK                            x       y       z     vdW  Elec       q    Type
REMARK                         _______ _______ _______ _____ _____    ______ ____
ROOT
ATOM      1  C   LIG A   1      -5.939  -1.254 126.086  0.00  0.00    +0.154 C 
ATOM      2  C   LIG A   1      -6.122  -1.264 127.609  0.00  0.00    +0.056 C 
ATOM      3  C   LIG A   1      -7.583  -1.548 127.819  0.00  0.00    +0.056 C 
ATOM      4  C   LIG A   1      -7.636  -2.217 129.177  0.00  0.00    +0.154 C 
ATOM      5  O   LIG A   1      -6.408  -2.977 129.243  0.00  0.00    -0.371 OA
ATOM      6  C   LIG A   1      -5.476  -2.473 128.267  0.00  0.00    +0.167 C 
ATOM      7  C   LIG A   1      -7.892  -2.454 126.628  0.00  0.00    +0.167 C 
ATOM      8  O   LIG A   1      -7.008  -2.078 125.562  0.00  0.00    -0.371 OA
ENDROOT
BRANCH   1  13
ATOM      9  C   LIG A   1      -5.604   2.501 125.585  0.00  0.00    +0.166 A 
ATOM     10  C   LIG A   1      -6.380   2.730 124.399  0.00  0.00    +0.203 A 
ATOM     11  C   LIG A   1      -7.037   1.627 123.819  0.00  0.00    +0.166 A 
ATOM     12  C   LIG A   1      -6.851   0.357 124.358  0.00  0.00    +0.056 A 
ATOM     13  C   LIG A   1      -6.088   0.114 125.486  0.00  0.00    -0.011 A 
ATOM     14  C   LIG A   1      -5.479   1.222 126.099  0.00  0.00    +0.056 A 
BRANCH   9  16
ATOM     15  C   LIG A   1      -3.653   3.702 126.135  0.00  0.00    +0.277 C 
ATOM     16  O   LIG A   1      -5.052   3.608 126.211  0.00  0.00    -0.491 OA
ENDBRANCH   9  16
BRANCH  10  17
ATOM     17  O   LIG A   1      -6.441   3.979 123.835  0.00  0.00    -0.488 OA
ATOM     18  C   LIG A   1      -5.542   4.254 122.761  0.00  0.00    +0.277 C 
ENDBRANCH  10  17
BRANCH  11  19
ATOM     19  O   LIG A   1      -7.970   1.788 122.802  0.00  0.00    -0.491 OA
ATOM     20  C   LIG A   1      -9.333   2.006 123.225  0.00  0.00    +0.277 C 
ENDBRANCH  11  19
ENDBRANCH   1  13
BRANCH   4  21
ATOM     21  C   LIG A   1      -7.739  -1.233 130.339  0.00  0.00    -0.011 A 
ATOM     22  C   LIG A   1      -7.368  -1.615 131.639  0.00  0.00    +0.056 A 
ATOM     23  C   LIG A   1      -7.403  -0.709 132.708  0.00  0.00    +0.166 A 
ATOM     24  C   LIG A   1      -7.838   0.629 132.526  0.00  0.00    +0.203 A 
ATOM     25  C   LIG A   1      -8.232   1.026 131.223  0.00  0.00    +0.166 A 
ATOM     26  C   LIG A   1      -8.198   0.078 130.177  0.00  0.00    +0.056 A 
BRANCH  23  27
ATOM     27  O   LIG A   1      -6.966  -1.052 133.976  0.00  0.00    -0.491 OA
ATOM     28  C   LIG A   1      -5.699  -1.697 134.076  0.00  0.00    +0.277 C 
ENDBRANCH  23  27
BRANCH  24  29
ATOM     29  O   LIG A   1      -7.576   1.488 133.564  0.00  0.00    -0.488 OA
ATOM     30  C   LIG A   1      -6.389   2.281 133.476  0.00  0.00    +0.277 C 
ENDBRANCH  24  29
BRANCH  25  31
ATOM     31  O   LIG A   1      -8.481   2.274 130.713  0.00  0.00    -0.491 OA
ATOM     32  C   LIG A   1      -8.827   2.503 129.361  0.00  0.00    +0.277 C 
ENDBRANCH  25  31
ENDBRANCH   4  21
TORSDOF 8
ENDMDL
