MODEL 1
REMARK VINA RESULT:      -5.6      0.000      0.000
REMARK  Name = NuBBE_1804
REMARK  12 active torsions:
REMARK  status: ('A' for Active; 'I' for Inactive)
REMARK    1  A    between atoms: C_1  and  C_2
REMARK    2  A    between atoms: C_2  and  C_3
REMARK    3  A    between atoms: C_3  and  C_4
REMARK    4  A    between atoms: C_4  and  C_5
REMARK    5  A    between atoms: C_5  and  C_6
REMARK    6  A    between atoms: C_6  and  C_7
REMARK    7  A    between atoms: C_7  and  C_8
REMARK    8  A    between atoms: C_8  and  C_9
REMARK    9  A    between atoms: C_9  and  C_10
REMARK   10  A    between atoms: C_10  and  C_11
REMARK   11  A    between atoms: C_13  and  C_14
REMARK   12  A    between atoms: C_14  and  C_15
REMARK                            x       y       z     vdW  Elec       q    Type
REMARK                         _______ _______ _______ _____ _____    ______ ____
ROOT
ATOM      1  C   LIG A   1      -7.770  -2.024 127.560  0.00  0.00    +0.045 C 
ENDROOT
BRANCH   1   2
ATOM      2  C   LIG A   1      -7.000  -2.330 128.847  0.00  0.00    +0.177 C 
ATOM      3  C   LIG A   1      -7.399  -3.654 129.477  0.00  0.00    +0.059 C 
ATOM      4  C   LIG A   1      -6.150  -4.073 130.234  0.00  0.00    +0.108 C 
ATOM      5  C   LIG A   1      -5.073  -3.430 129.394  0.00  0.00    +0.311 C 
ATOM      6  O   LIG A   1      -5.603  -2.470 128.581  0.00  0.00    -0.461 OA
ATOM      7  O   LIG A   1      -3.888  -3.685 129.469  0.00  0.00    -0.251 OA
BRANCH   4   8
ATOM      8  C   LIG A   1      -6.103  -3.544 131.662  0.00  0.00    +0.085 C 
BRANCH   8   9
ATOM      9  C   LIG A   1      -5.357  -4.490 132.575  0.00  0.00    +0.224 C 
ATOM     10  O   LIG A   1      -5.926  -5.235 133.365  0.00  0.00    -0.301 OA
ENDBRANCH   8   9
ENDBRANCH   4   8
ENDBRANCH   1   2
BRANCH   1  11
ATOM     11  C   LIG A   1      -8.599  -3.216 127.050  0.00  0.00    +0.003 C 
BRANCH  11  12
ATOM     12  C   LIG A   1      -9.397  -2.906 125.773  0.00  0.00    +0.000 C 
BRANCH  12  13
ATOM     13  C   LIG A   1      -8.929  -3.714 124.560  0.00  0.00    -0.000 C 
BRANCH  13  14
ATOM     14  C   LIG A   1      -9.204  -2.989 123.239  0.00  0.00    -0.000 C 
BRANCH  14  15
ATOM     15  C   LIG A   1      -8.382  -1.701 123.096  0.00  0.00    -0.000 C 
BRANCH  15  16
ATOM     16  C   LIG A   1      -6.884  -1.933 122.859  0.00  0.00    -0.000 C 
BRANCH  16  17
ATOM     17  C   LIG A   1      -5.994  -1.589 124.061  0.00  0.00    -0.000 C 
BRANCH  17  19
ATOM     18  C   LIG A   1      -4.809  -3.801 123.706  0.00  0.00    +0.004 C 
ATOM     19  C   LIG A   1      -5.391  -2.832 124.719  0.00  0.00    -0.003 C 
ENDBRANCH  17  19
ENDBRANCH  16  17
ENDBRANCH  15  16
ENDBRANCH  14  15
ENDBRANCH  13  14
ENDBRANCH  12  13
ENDBRANCH  11  12
ENDBRANCH   1  11
TORSDOF 11
ENDMDL
MODEL 2
REMARK VINA RESULT:      -5.6      4.434      6.733
REMARK  Name = NuBBE_1804
REMARK  12 active torsions:
REMARK  status: ('A' for Active; 'I' for Inactive)
REMARK    1  A    between atoms: C_1  and  C_2
REMARK    2  A    between atoms: C_2  and  C_3
REMARK    3  A    between atoms: C_3  and  C_4
REMARK    4  A    between atoms: C_4  and  C_5
REMARK    5  A    between atoms: C_5  and  C_6
REMARK    6  A    between atoms: C_6  and  C_7
REMARK    7  A    between atoms: C_7  and  C_8
REMARK    8  A    between atoms: C_8  and  C_9
REMARK    9  A    between atoms: C_9  and  C_10
REMARK   10  A    between atoms: C_10  and  C_11
REMARK   11  A    between atoms: C_13  and  C_14
REMARK   12  A    between atoms: C_14  and  C_15
REMARK                            x       y       z     vdW  Elec       q    Type
REMARK                         _______ _______ _______ _____ _____    ______ ____
ROOT
ATOM      1  C   LIG A   1      -8.755  -2.555 123.370  0.00  0.00    +0.045 C 
ENDROOT
BRANCH   1   2
ATOM      2  C   LIG A   1      -8.778  -1.104 123.859  0.00  0.00    +0.177 C 
ATOM      3  C   LIG A   1      -7.494  -0.353 123.549  0.00  0.00    +0.059 C 
ATOM      4  C   LIG A   1      -7.948   1.094 123.458  0.00  0.00    +0.108 C 
ATOM      5  C   LIG A   1      -9.371   0.923 122.986  0.00  0.00    +0.311 C 
ATOM      6  O   LIG A   1      -9.796  -0.359 123.190  0.00  0.00    -0.461 OA
ATOM      7  O   LIG A   1     -10.067   1.812 122.540  0.00  0.00    -0.251 OA
BRANCH   4   8
ATOM      8  C   LIG A   1      -7.911   1.825 124.794  0.00  0.00    +0.085 C 
BRANCH   8   9
ATOM      9  C   LIG A   1      -7.948   3.324 124.603  0.00  0.00    +0.224 C 
ATOM     10  O   LIG A   1      -8.778   4.041 125.153  0.00  0.00    -0.301 OA
ENDBRANCH   8   9
ENDBRANCH   4   8
ENDBRANCH   1   2
BRANCH   1  11
ATOM     11  C   LIG A   1      -8.939  -3.579 124.502  0.00  0.00    +0.003 C 
BRANCH  11  12
ATOM     12  C   LIG A   1      -9.546  -2.978 125.781  0.00  0.00    +0.000 C 
BRANCH  12  13
ATOM     13  C   LIG A   1      -8.634  -3.114 127.002  0.00  0.00    -0.000 C 
BRANCH  13  14
ATOM     14  C   LIG A   1      -7.873  -1.820 127.305  0.00  0.00    -0.000 C 
BRANCH  14  15
ATOM     15  C   LIG A   1      -6.356  -2.035 127.373  0.00  0.00    -0.000 C 
BRANCH  15  16
ATOM     16  C   LIG A   1      -5.640  -1.905 126.022  0.00  0.00    -0.000 C 
BRANCH  16  17
ATOM     17  C   LIG A   1      -5.522  -3.221 125.241  0.00  0.00    -0.000 C 
BRANCH  17  19
ATOM     18  C   LIG A   1      -4.098  -4.218 123.396  0.00  0.00    +0.004 C 
ATOM     19  C   LIG A   1      -4.922  -3.025 123.847  0.00  0.00    -0.003 C 
ENDBRANCH  17  19
ENDBRANCH  16  17
ENDBRANCH  15  16
ENDBRANCH  14  15
ENDBRANCH  13  14
ENDBRANCH  12  13
ENDBRANCH  11  12
ENDBRANCH   1  11
TORSDOF 11
ENDMDL
MODEL 3
REMARK VINA RESULT:      -5.4      3.935      7.626
REMARK  Name = NuBBE_1804
REMARK  12 active torsions:
REMARK  status: ('A' for Active; 'I' for Inactive)
REMARK    1  A    between atoms: C_1  and  C_2
REMARK    2  A    between atoms: C_2  and  C_3
REMARK    3  A    between atoms: C_3  and  C_4
REMARK    4  A    between atoms: C_4  and  C_5
REMARK    5  A    between atoms: C_5  and  C_6
REMARK    6  A    between atoms: C_6  and  C_7
REMARK    7  A    between atoms: C_7  and  C_8
REMARK    8  A    between atoms: C_8  and  C_9
REMARK    9  A    between atoms: C_9  and  C_10
REMARK   10  A    between atoms: C_10  and  C_11
REMARK   11  A    between atoms: C_13  and  C_14
REMARK   12  A    between atoms: C_14  and  C_15
REMARK                            x       y       z     vdW  Elec       q    Type
REMARK                         _______ _______ _______ _____ _____    ______ ____
ROOT
ATOM      1  C   LIG A   1      -8.171  -3.068 124.072  0.00  0.00    +0.045 C 
ENDROOT
BRANCH   1   2
ATOM      2  C   LIG A   1      -8.708  -1.646 124.254  0.00  0.00    +0.177 C 
ATOM      3  C   LIG A   1      -7.681  -0.576 123.922  0.00  0.00    +0.059 C 
ATOM      4  C   LIG A   1      -8.533   0.608 123.498  0.00  0.00    +0.108 C 
ATOM      5  C   LIG A   1      -9.746  -0.093 122.937  0.00  0.00    +0.311 C 
ATOM      6  O   LIG A   1      -9.788  -1.393 123.354  0.00  0.00    -0.461 OA
ATOM      7  O   LIG A   1     -10.601   0.435 122.256  0.00  0.00    -0.251 OA
BRANCH   4   8
ATOM      8  C   LIG A   1      -8.927   1.516 124.656  0.00  0.00    +0.085 C 
BRANCH   8   9
ATOM      9  C   LIG A   1      -8.684   2.970 124.324  0.00  0.00    +0.224 C 
ATOM     10  O   LIG A   1      -8.805   3.868 125.151  0.00  0.00    -0.301 OA
ENDBRANCH   8   9
ENDBRANCH   4   8
ENDBRANCH   1   2
BRANCH   1  11
ATOM     11  C   LIG A   1      -8.232  -3.908 125.359  0.00  0.00    +0.003 C 
BRANCH  11  12
ATOM     12  C   LIG A   1      -9.174  -3.327 126.426  0.00  0.00    +0.000 C 
BRANCH  12  13
ATOM     13  C   LIG A   1      -8.865  -3.828 127.839  0.00  0.00    -0.000 C 
BRANCH  13  14
ATOM     14  C   LIG A   1      -8.035  -2.821 128.643  0.00  0.00    -0.000 C 
BRANCH  14  15
ATOM     15  C   LIG A   1      -7.486  -3.421 129.944  0.00  0.00    -0.000 C 
BRANCH  15  16
ATOM     16  C   LIG A   1      -5.980  -3.711 129.917  0.00  0.00    -0.000 C 
BRANCH  16  17
ATOM     17  C   LIG A   1      -5.571  -4.996 130.651  0.00  0.00    -0.000 C 
BRANCH  17  19
ATOM     18  C   LIG A   1      -4.191  -4.025 132.543  0.00  0.00    +0.004 C 
ATOM     19  C   LIG A   1      -5.446  -4.792 132.162  0.00  0.00    -0.003 C 
ENDBRANCH  17  19
ENDBRANCH  16  17
ENDBRANCH  15  16
ENDBRANCH  14  15
ENDBRANCH  13  14
ENDBRANCH  12  13
ENDBRANCH  11  12
ENDBRANCH   1  11
TORSDOF 11
ENDMDL
MODEL 4
REMARK VINA RESULT:      -5.3      2.929      6.912
REMARK  Name = NuBBE_1804
REMARK  12 active torsions:
REMARK  status: ('A' for Active; 'I' for Inactive)
REMARK    1  A    between atoms: C_1  and  C_2
REMARK    2  A    between atoms: C_2  and  C_3
REMARK    3  A    between atoms: C_3  and  C_4
REMARK    4  A    between atoms: C_4  and  C_5
REMARK    5  A    between atoms: C_5  and  C_6
REMARK    6  A    between atoms: C_6  and  C_7
REMARK    7  A    between atoms: C_7  and  C_8
REMARK    8  A    between atoms: C_8  and  C_9
REMARK    9  A    between atoms: C_9  and  C_10
REMARK   10  A    between atoms: C_10  and  C_11
REMARK   11  A    between atoms: C_13  and  C_14
REMARK   12  A    between atoms: C_14  and  C_15
REMARK                            x       y       z     vdW  Elec       q    Type
REMARK                         _______ _______ _______ _____ _____    ______ ____
ROOT
ATOM      1  C   LIG A   1      -9.564  -3.212 126.104  0.00  0.00    +0.045 C 
ENDROOT
BRANCH   1   2
ATOM      2  C   LIG A   1      -8.723  -2.401 125.115  0.00  0.00    +0.177 C 
ATOM      3  C   LIG A   1      -8.302  -3.204 123.895  0.00  0.00    +0.059 C 
ATOM      4  C   LIG A   1      -8.133  -2.146 122.819  0.00  0.00    +0.108 C 
ATOM      5  C   LIG A   1      -9.129  -1.107 123.275  0.00  0.00    +0.311 C 
ATOM      6  O   LIG A   1      -9.477  -1.313 124.580  0.00  0.00    -0.461 OA
ATOM      7  O   LIG A   1      -9.526  -0.180 122.599  0.00  0.00    -0.251 OA
BRANCH   4   8
ATOM      8  C   LIG A   1      -6.730  -1.555 122.765  0.00  0.00    +0.085 C 
BRANCH   8   9
ATOM      9  C   LIG A   1      -5.687  -2.580 123.144  0.00  0.00    +0.224 C 
ATOM     10  O   LIG A   1      -4.932  -2.435 124.101  0.00  0.00    -0.301 OA
ENDBRANCH   8   9
ENDBRANCH   4   8
ENDBRANCH   1   2
BRANCH   1  11
ATOM     11  C   LIG A   1      -8.785  -3.630 127.362  0.00  0.00    +0.003 C 
BRANCH  11  12
ATOM     12  C   LIG A   1      -7.607  -2.697 127.693  0.00  0.00    +0.000 C 
BRANCH  12  13
ATOM     13  C   LIG A   1      -7.669  -2.129 129.112  0.00  0.00    -0.000 C 
BRANCH  13  14
ATOM     14  C   LIG A   1      -7.690  -3.230 130.177  0.00  0.00    -0.000 C 
BRANCH  14  15
ATOM     15  C   LIG A   1      -6.408  -4.072 130.174  0.00  0.00    -0.000 C 
BRANCH  15  16
ATOM     16  C   LIG A   1      -5.529  -3.885 131.418  0.00  0.00    -0.000 C 
BRANCH  16  17
ATOM     17  C   LIG A   1      -4.086  -3.459 131.113  0.00  0.00    -0.000 C 
BRANCH  17  19
ATOM     18  C   LIG A   1      -2.893  -3.858 128.913  0.00  0.00    +0.004 C 
ATOM     19  C   LIG A   1      -3.903  -3.007 129.663  0.00  0.00    -0.003 C 
ENDBRANCH  17  19
ENDBRANCH  16  17
ENDBRANCH  15  16
ENDBRANCH  14  15
ENDBRANCH  13  14
ENDBRANCH  12  13
ENDBRANCH  11  12
ENDBRANCH   1  11
TORSDOF 11
ENDMDL
MODEL 5
REMARK VINA RESULT:      -5.3      4.152      6.987
REMARK  Name = NuBBE_1804
REMARK  12 active torsions:
REMARK  status: ('A' for Active; 'I' for Inactive)
REMARK    1  A    between atoms: C_1  and  C_2
REMARK    2  A    between atoms: C_2  and  C_3
REMARK    3  A    between atoms: C_3  and  C_4
REMARK    4  A    between atoms: C_4  and  C_5
REMARK    5  A    between atoms: C_5  and  C_6
REMARK    6  A    between atoms: C_6  and  C_7
REMARK    7  A    between atoms: C_7  and  C_8
REMARK    8  A    between atoms: C_8  and  C_9
REMARK    9  A    between atoms: C_9  and  C_10
REMARK   10  A    between atoms: C_10  and  C_11
REMARK   11  A    between atoms: C_13  and  C_14
REMARK   12  A    between atoms: C_14  and  C_15
REMARK                            x       y       z     vdW  Elec       q    Type
REMARK                         _______ _______ _______ _____ _____    ______ ____
ROOT
ATOM      1  C   LIG A   1      -8.324  -2.377 123.092  0.00  0.00    +0.045 C 
ENDROOT
BRANCH   1   2
ATOM      2  C   LIG A   1      -8.091  -1.000 123.718  0.00  0.00    +0.177 C 
ATOM      3  C   LIG A   1      -6.844  -0.310 123.189  0.00  0.00    +0.059 C 
ATOM      4  C   LIG A   1      -7.161   1.166 123.357  0.00  0.00    +0.108 C 
ATOM      5  C   LIG A   1      -8.664   1.156 123.224  0.00  0.00    +0.311 C 
ATOM      6  O   LIG A   1      -9.156  -0.106 123.391  0.00  0.00    -0.461 OA
ATOM      7  O   LIG A   1      -9.353   2.141 123.050  0.00  0.00    -0.251 OA
BRANCH   4   8
ATOM      8  C   LIG A   1      -6.747   1.722 124.714  0.00  0.00    +0.085 C 
BRANCH   8   9
ATOM      9  C   LIG A   1      -6.068   3.065 124.574  0.00  0.00    +0.224 C 
ATOM     10  O   LIG A   1      -6.008   3.669 123.508  0.00  0.00    -0.301 OA
ENDBRANCH   8   9
ENDBRANCH   4   8
ENDBRANCH   1   2
BRANCH   1  11
ATOM     11  C   LIG A   1      -9.202  -3.296 123.958  0.00  0.00    +0.003 C 
BRANCH  11  12
ATOM     12  C   LIG A   1      -8.529  -3.727 125.272  0.00  0.00    +0.000 C 
BRANCH  12  13
ATOM     13  C   LIG A   1      -9.273  -3.239 126.517  0.00  0.00    -0.000 C 
BRANCH  13  14
ATOM     14  C   LIG A   1      -8.983  -4.108 127.744  0.00  0.00    -0.000 C 
BRANCH  14  15
ATOM     15  C   LIG A   1      -8.455  -3.291 128.930  0.00  0.00    -0.000 C 
BRANCH  15  16
ATOM     16  C   LIG A   1      -7.026  -2.764 128.746  0.00  0.00    -0.000 C 
BRANCH  16  17
ATOM     17  C   LIG A   1      -6.929  -1.239 128.607  0.00  0.00    -0.000 C 
BRANCH  17  19
ATOM     18  C   LIG A   1      -5.644  -1.989 126.554  0.00  0.00    +0.004 C 
ATOM     19  C   LIG A   1      -6.227  -0.811 127.315  0.00  0.00    -0.003 C 
ENDBRANCH  17  19
ENDBRANCH  16  17
ENDBRANCH  15  16
ENDBRANCH  14  15
ENDBRANCH  13  14
ENDBRANCH  12  13
ENDBRANCH  11  12
ENDBRANCH   1  11
TORSDOF 11
ENDMDL
MODEL 6
REMARK VINA RESULT:      -5.2      1.690      2.495
REMARK  Name = NuBBE_1804
REMARK  12 active torsions:
REMARK  status: ('A' for Active; 'I' for Inactive)
REMARK    1  A    between atoms: C_1  and  C_2
REMARK    2  A    between atoms: C_2  and  C_3
REMARK    3  A    between atoms: C_3  and  C_4
REMARK    4  A    between atoms: C_4  and  C_5
REMARK    5  A    between atoms: C_5  and  C_6
REMARK    6  A    between atoms: C_6  and  C_7
REMARK    7  A    between atoms: C_7  and  C_8
REMARK    8  A    between atoms: C_8  and  C_9
REMARK    9  A    between atoms: C_9  and  C_10
REMARK   10  A    between atoms: C_10  and  C_11
REMARK   11  A    between atoms: C_13  and  C_14
REMARK   12  A    between atoms: C_14  and  C_15
REMARK                            x       y       z     vdW  Elec       q    Type
REMARK                         _______ _______ _______ _____ _____    ______ ____
ROOT
ATOM      1  C   LIG A   1      -8.559  -3.566 128.392  0.00  0.00    +0.045 C 
ENDROOT
BRANCH   1   2
ATOM      2  C   LIG A   1      -7.332  -3.578 129.307  0.00  0.00    +0.177 C 
ATOM      3  C   LIG A   1      -6.197  -2.708 128.790  0.00  0.00    +0.059 C 
ATOM      4  C   LIG A   1      -5.454  -2.313 130.055  0.00  0.00    +0.108 C 
ATOM      5  C   LIG A   1      -6.574  -2.333 131.067  0.00  0.00    +0.311 C 
ATOM      6  O   LIG A   1      -7.647  -3.026 130.586  0.00  0.00    -0.461 OA
ATOM      7  O   LIG A   1      -6.513  -1.851 132.180  0.00  0.00    -0.251 OA
BRANCH   4   8
ATOM      8  C   LIG A   1      -4.360  -3.299 130.447  0.00  0.00    +0.085 C 
BRANCH   8   9
ATOM      9  C   LIG A   1      -3.161  -3.181 129.536  0.00  0.00    +0.224 C 
ATOM     10  O   LIG A   1      -2.874  -4.035 128.703  0.00  0.00    -0.301 OA
ENDBRANCH   8   9
ENDBRANCH   4   8
ENDBRANCH   1   2
BRANCH   1  11
ATOM     11  C   LIG A   1      -8.365  -2.711 127.128  0.00  0.00    +0.003 C 
BRANCH  11  12
ATOM     12  C   LIG A   1      -9.336  -3.070 125.990  0.00  0.00    +0.000 C 
BRANCH  12  13
ATOM     13  C   LIG A   1      -8.626  -3.552 124.722  0.00  0.00    -0.000 C 
BRANCH  13  14
ATOM     14  C   LIG A   1      -9.382  -3.160 123.450  0.00  0.00    -0.000 C 
BRANCH  14  15
ATOM     15  C   LIG A   1      -8.600  -2.160 122.588  0.00  0.00    -0.000 C 
BRANCH  15  16
ATOM     16  C   LIG A   1      -7.165  -1.904 123.067  0.00  0.00    -0.000 C 
BRANCH  16  17
ATOM     17  C   LIG A   1      -6.882  -0.448 123.462  0.00  0.00    -0.000 C 
BRANCH  17  19
ATOM     18  C   LIG A   1      -5.447  -1.273 125.383  0.00  0.00    +0.004 C 
ATOM     19  C   LIG A   1      -6.529  -0.301 124.944  0.00  0.00    -0.003 C 
ENDBRANCH  17  19
ENDBRANCH  16  17
ENDBRANCH  15  16
ENDBRANCH  14  15
ENDBRANCH  13  14
ENDBRANCH  12  13
ENDBRANCH  11  12
ENDBRANCH   1  11
TORSDOF 11
ENDMDL
MODEL 7
REMARK VINA RESULT:      -5.1      3.019      7.008
REMARK  Name = NuBBE_1804
REMARK  12 active torsions:
REMARK  status: ('A' for Active; 'I' for Inactive)
REMARK    1  A    between atoms: C_1  and  C_2
REMARK    2  A    between atoms: C_2  and  C_3
REMARK    3  A    between atoms: C_3  and  C_4
REMARK    4  A    between atoms: C_4  and  C_5
REMARK    5  A    between atoms: C_5  and  C_6
REMARK    6  A    between atoms: C_6  and  C_7
REMARK    7  A    between atoms: C_7  and  C_8
REMARK    8  A    between atoms: C_8  and  C_9
REMARK    9  A    between atoms: C_9  and  C_10
REMARK   10  A    between atoms: C_10  and  C_11
REMARK   11  A    between atoms: C_13  and  C_14
REMARK   12  A    between atoms: C_14  and  C_15
REMARK                            x       y       z     vdW  Elec       q    Type
REMARK                         _______ _______ _______ _____ _____    ______ ____
ROOT
ATOM      1  C   LIG A   1      -9.243  -3.704 127.259  0.00  0.00    +0.045 C 
ENDROOT
BRANCH   1   2
ATOM      2  C   LIG A   1      -8.538  -2.999 126.096  0.00  0.00    +0.177 C 
ATOM      3  C   LIG A   1      -8.039  -3.963 125.033  0.00  0.00    +0.059 C 
ATOM      4  C   LIG A   1      -8.036  -3.120 123.769  0.00  0.00    +0.108 C 
ATOM      5  C   LIG A   1      -9.153  -2.149 124.066  0.00  0.00    +0.311 C 
ATOM      6  O   LIG A   1      -9.443  -2.140 125.400  0.00  0.00    -0.461 OA
ATOM      7  O   LIG A   1      -9.684  -1.428 123.246  0.00  0.00    -0.251 OA
BRANCH   4   8
ATOM      8  C   LIG A   1      -6.726  -2.377 123.540  0.00  0.00    +0.085 C 
BRANCH   8   9
ATOM      9  C   LIG A   1      -5.541  -3.196 123.996  0.00  0.00    +0.224 C 
ATOM     10  O   LIG A   1      -4.520  -3.315 123.327  0.00  0.00    -0.301 OA
ENDBRANCH   8   9
ENDBRANCH   4   8
ENDBRANCH   1   2
BRANCH   1  11
ATOM     11  C   LIG A   1      -8.561  -3.462 128.616  0.00  0.00    +0.003 C 
BRANCH  11  12
ATOM     12  C   LIG A   1      -7.174  -2.808 128.499  0.00  0.00    +0.000 C 
BRANCH  12  13
ATOM     13  C   LIG A   1      -6.254  -3.131 129.678  0.00  0.00    -0.000 C 
BRANCH  13  14
ATOM     14  C   LIG A   1      -7.006  -3.147 131.013  0.00  0.00    -0.000 C 
BRANCH  14  15
ATOM     15  C   LIG A   1      -6.788  -1.862 131.822  0.00  0.00    -0.000 C 
BRANCH  15  16
ATOM     16  C   LIG A   1      -8.084  -1.180 132.280  0.00  0.00    -0.000 C 
BRANCH  16  17
ATOM     17  C   LIG A   1      -8.634  -0.140 131.293  0.00  0.00    -0.000 C 
BRANCH  17  19
ATOM     18  C   LIG A   1      -7.941   0.766 129.030  0.00  0.00    +0.004 C 
ATOM     19  C   LIG A   1      -7.529   0.530 130.473  0.00  0.00    -0.003 C 
ENDBRANCH  17  19
ENDBRANCH  16  17
ENDBRANCH  15  16
ENDBRANCH  14  15
ENDBRANCH  13  14
ENDBRANCH  12  13
ENDBRANCH  11  12
ENDBRANCH   1  11
TORSDOF 11
ENDMDL
MODEL 8
REMARK VINA RESULT:      -5.1      3.401      6.824
REMARK  Name = NuBBE_1804
REMARK  12 active torsions:
REMARK  status: ('A' for Active; 'I' for Inactive)
REMARK    1  A    between atoms: C_1  and  C_2
REMARK    2  A    between atoms: C_2  and  C_3
REMARK    3  A    between atoms: C_3  and  C_4
REMARK    4  A    between atoms: C_4  and  C_5
REMARK    5  A    between atoms: C_5  and  C_6
REMARK    6  A    between atoms: C_6  and  C_7
REMARK    7  A    between atoms: C_7  and  C_8
REMARK    8  A    between atoms: C_8  and  C_9
REMARK    9  A    between atoms: C_9  and  C_10
REMARK   10  A    between atoms: C_10  and  C_11
REMARK   11  A    between atoms: C_13  and  C_14
REMARK   12  A    between atoms: C_14  and  C_15
REMARK                            x       y       z     vdW  Elec       q    Type
REMARK                         _______ _______ _______ _____ _____    ______ ____
ROOT
ATOM      1  C   LIG A   1      -5.781   0.124 126.498  0.00  0.00    +0.045 C 
ENDROOT
BRANCH   1   2
ATOM      2  C   LIG A   1      -5.519  -0.755 125.272  0.00  0.00    +0.177 C 
ATOM      3  C   LIG A   1      -5.550  -2.241 125.589  0.00  0.00    +0.059 C 
ATOM      4  C   LIG A   1      -5.961  -2.872 124.269  0.00  0.00    +0.108 C 
ATOM      5  C   LIG A   1      -6.790  -1.765 123.664  0.00  0.00    +0.311 C 
ATOM      6  O   LIG A   1      -6.544  -0.579 124.293  0.00  0.00    -0.461 OA
ATOM      7  O   LIG A   1      -7.531  -1.894 122.711  0.00  0.00    -0.251 OA
BRANCH   4   8
ATOM      8  C   LIG A   1      -4.780  -3.211 123.368  0.00  0.00    +0.085 C 
BRANCH   8   9
ATOM      9  C   LIG A   1      -4.199  -4.564 123.708  0.00  0.00    +0.224 C 
ATOM     10  O   LIG A   1      -4.109  -5.472 122.888  0.00  0.00    -0.301 OA
ENDBRANCH   8   9
ENDBRANCH   4   8
ENDBRANCH   1   2
BRANCH   1  11
ATOM     11  C   LIG A   1      -6.023  -0.685 127.783  0.00  0.00    +0.003 C 
BRANCH  11  12
ATOM     12  C   LIG A   1      -7.441  -0.519 128.354  0.00  0.00    +0.000 C 
BRANCH  12  13
ATOM     13  C   LIG A   1      -7.697  -1.381 129.593  0.00  0.00    -0.000 C 
BRANCH  13  14
ATOM     14  C   LIG A   1      -8.284  -2.750 129.237  0.00  0.00    -0.000 C 
BRANCH  14  15
ATOM     15  C   LIG A   1      -7.240  -3.871 129.307  0.00  0.00    -0.000 C 
BRANCH  15  16
ATOM     16  C   LIG A   1      -6.138  -3.641 130.350  0.00  0.00    -0.000 C 
BRANCH  16  17
ATOM     17  C   LIG A   1      -5.444  -4.924 130.829  0.00  0.00    -0.000 C 
BRANCH  17  19
ATOM     18  C   LIG A   1      -6.253  -3.980 133.038  0.00  0.00    +0.004 C 
ATOM     19  C   LIG A   1      -5.390  -5.027 132.355  0.00  0.00    -0.003 C 
ENDBRANCH  17  19
ENDBRANCH  16  17
ENDBRANCH  15  16
ENDBRANCH  14  15
ENDBRANCH  13  14
ENDBRANCH  12  13
ENDBRANCH  11  12
ENDBRANCH   1  11
TORSDOF 11
ENDMDL
MODEL 9
REMARK VINA RESULT:      -5.1      9.519     11.533
REMARK  Name = NuBBE_1804
REMARK  12 active torsions:
REMARK  status: ('A' for Active; 'I' for Inactive)
REMARK    1  A    between atoms: C_1  and  C_2
REMARK    2  A    between atoms: C_2  and  C_3
REMARK    3  A    between atoms: C_3  and  C_4
REMARK    4  A    between atoms: C_4  and  C_5
REMARK    5  A    between atoms: C_5  and  C_6
REMARK    6  A    between atoms: C_6  and  C_7
REMARK    7  A    between atoms: C_7  and  C_8
REMARK    8  A    between atoms: C_8  and  C_9
REMARK    9  A    between atoms: C_9  and  C_10
REMARK   10  A    between atoms: C_10  and  C_11
REMARK   11  A    between atoms: C_13  and  C_14
REMARK   12  A    between atoms: C_14  and  C_15
REMARK                            x       y       z     vdW  Elec       q    Type
REMARK                         _______ _______ _______ _____ _____    ______ ____
ROOT
ATOM      1  C   LIG A   1      -8.148   6.256 131.449  0.00  0.00    +0.045 C 
ENDROOT
BRANCH   1   2
ATOM      2  C   LIG A   1      -9.353   6.893 130.751  0.00  0.00    +0.177 C 
ATOM      3  C   LIG A   1      -9.823   6.105 129.540  0.00  0.00    +0.059 C 
ATOM      4  C   LIG A   1     -11.299   6.453 129.446  0.00  0.00    +0.108 C 
ATOM      5  C   LIG A   1     -11.626   6.718 130.895  0.00  0.00    +0.311 C 
ATOM      6  O   LIG A   1     -10.486   6.920 131.619  0.00  0.00    -0.461 OA
ATOM      7  O   LIG A   1     -12.749   6.800 131.350  0.00  0.00    -0.251 OA
BRANCH   4   8
ATOM      8  C   LIG A   1     -11.576   7.689 128.599  0.00  0.00    +0.085 C 
BRANCH   8   9
ATOM      9  C   LIG A   1     -10.861   7.617 127.270  0.00  0.00    +0.224 C 
ATOM     10  O   LIG A   1     -11.183   6.830 126.386  0.00  0.00    -0.301 OA
ENDBRANCH   8   9
ENDBRANCH   4   8
ENDBRANCH   1   2
BRANCH   1  11
ATOM     11  C   LIG A   1      -6.822   6.974 131.147  0.00  0.00    +0.003 C 
BRANCH  11  12
ATOM     12  C   LIG A   1      -5.588   6.241 131.699  0.00  0.00    +0.000 C 
BRANCH  12  13
ATOM     13  C   LIG A   1      -4.304   7.067 131.602  0.00  0.00    -0.000 C 
BRANCH  13  14
ATOM     14  C   LIG A   1      -3.539   6.802 130.302  0.00  0.00    -0.000 C 
BRANCH  14  15
ATOM     15  C   LIG A   1      -2.623   5.576 130.401  0.00  0.00    -0.000 C 
BRANCH  15  16
ATOM     16  C   LIG A   1      -3.158   4.330 129.684  0.00  0.00    -0.000 C 
BRANCH  16  17
ATOM     17  C   LIG A   1      -3.817   4.616 128.328  0.00  0.00    -0.000 C 
BRANCH  17  19
ATOM     18  C   LIG A   1      -2.102   3.153 127.168  0.00  0.00    +0.004 C 
ATOM     19  C   LIG A   1      -2.838   4.482 127.160  0.00  0.00    -0.003 C 
ENDBRANCH  17  19
ENDBRANCH  16  17
ENDBRANCH  15  16
ENDBRANCH  14  15
ENDBRANCH  13  14
ENDBRANCH  12  13
ENDBRANCH  11  12
ENDBRANCH   1  11
TORSDOF 11
ENDMDL
