MODEL 1
REMARK VINA RESULT:      -6.9      0.000      0.000
REMARK  Name = NuBBE_2149
REMARK  15 active torsions:
REMARK  status: ('A' for Active; 'I' for Inactive)
REMARK    1  A    between atoms: C_1  and  O_2
REMARK    2  A    between atoms: O_2  and  C_3
REMARK    3  A    between atoms: C_4  and  O_5
REMARK    4  A    between atoms: O_5  and  C_6
REMARK    5  A    between atoms: C_7  and  O_8
REMARK    6  A    between atoms: O_8  and  C_9
REMARK    7  A    between atoms: C_11  and  C_12
REMARK    8  A    between atoms: C_14  and  C_16
REMARK    9  A    between atoms: C_17  and  C_18
REMARK   10  A    between atoms: C_18  and  C_19
REMARK   11  A    between atoms: C_24  and  O_26
REMARK   12  A    between atoms: O_26  and  C_27
REMARK   13  A    between atoms: C_28  and  O_30
REMARK   14  A    between atoms: C_31  and  O_32
REMARK   15  A    between atoms: O_32  and  C_33
REMARK                            x       y       z     vdW  Elec       q    Type
REMARK                         _______ _______ _______ _____ _____    ______ ____
ROOT
ATOM      1  C   LIG A   1      -4.432   2.683 127.061  0.00  0.00    +0.065 C 
ATOM      2  C   LIG A   1      -3.076   3.639 127.081  0.00  0.00    +0.010 C 
ATOM      3  C   LIG A   1      -1.722   2.969 126.852  0.00  0.00    +0.009 C 
ATOM      4  C   LIG A   1      -3.183   4.640 128.325  0.00  0.00    +0.041 C 
ATOM      5  C   LIG A   1      -4.541   4.234 128.295  0.00  0.00    +0.175 C 
ATOM      6  O   LIG A   1      -5.451   5.013 127.957  0.00  0.00    -0.294 OA
ATOM      7  C   LIG A   1      -3.099   4.322 129.938  0.00  0.00    +0.049 C 
ATOM      8  C   LIG A   1      -4.565   4.108 130.685  0.00  0.00    +0.150 C 
ATOM      9  C   LIG A   1      -5.579   3.151 129.815  0.00  0.00    +0.183 C 
ATOM     10  C   LIG A   1      -4.761   2.695 128.566  0.00  0.00    +0.162 C 
ENDROOT
BRANCH   1  15
ATOM     11  C   LIG A   1      -6.311   3.918 123.878  0.00  0.00    +0.165 A 
ATOM     12  C   LIG A   1      -7.613   3.384 124.059  0.00  0.00    +0.203 A 
ATOM     13  C   LIG A   1      -7.931   2.793 125.293  0.00  0.00    +0.165 A 
ATOM     14  C   LIG A   1      -6.884   2.526 126.217  0.00  0.00    +0.053 A 
ATOM     15  C   LIG A   1      -5.568   3.009 126.046  0.00  0.00    -0.034 A 
ATOM     16  C   LIG A   1      -5.321   3.745 124.876  0.00  0.00    +0.053 A 
BRANCH  11  18
ATOM     17  C   LIG A   1      -5.404   3.838 121.639  0.00  0.00    +0.277 C 
ATOM     18  O   LIG A   1      -5.836   4.596 122.768  0.00  0.00    -0.491 OA
ENDBRANCH  11  18
BRANCH  12  19
ATOM     19  O   LIG A   1      -8.405   3.423 122.948  0.00  0.00    -0.488 OA
ATOM     20  C   LIG A   1      -9.024   2.275 122.429  0.00  0.00    +0.277 C 
ENDBRANCH  12  19
BRANCH  13  21
ATOM     21  O   LIG A   1      -9.160   2.308 125.693  0.00  0.00    -0.491 OA
ATOM     22  C   LIG A   1      -9.330   0.894 125.889  0.00  0.00    +0.277 C 
ENDBRANCH  13  21
ENDBRANCH   1  15
BRANCH   8  23
ATOM     23  O   LIG A   1      -5.147   5.315 131.218  0.00  0.00    -0.377 OA
ATOM     24  C   LIG A   1      -4.557   5.967 132.332  0.00  0.00    +0.194 C 
ENDBRANCH   8  23
BRANCH   9  25
ATOM     25  O   LIG A   1      -6.894   3.652 129.608  0.00  0.00    -0.386 OA
ATOM     26  H   LIG A   1      -6.824   4.618 129.490  0.00  0.00    +0.210 HD
ENDBRANCH   9  25
BRANCH  10  27
ATOM     27  O   LIG A   1      -3.854   1.819 129.279  0.00  0.00    -0.366 OA
ATOM     28  C   LIG A   1      -4.218   0.625 129.939  0.00  0.00    +0.195 C 
ENDBRANCH  10  27
BRANCH   4  29
ATOM     29  C   LIG A   1      -2.649   6.032 127.989  0.00  0.00    +0.041 C 
BRANCH  29  30
ATOM     30  C   LIG A   1      -2.761   7.078 129.061  0.00  0.00    -0.034 C 
ATOM     31  C   LIG A   1      -3.764   7.950 129.232  0.00  0.00    +0.004 C 
ENDBRANCH  29  30
ENDBRANCH   4  29
TORSDOF 9
ENDMDL
MODEL 2
REMARK VINA RESULT:      -6.6      0.603      2.312
REMARK  Name = NuBBE_2149
REMARK  15 active torsions:
REMARK  status: ('A' for Active; 'I' for Inactive)
REMARK    1  A    between atoms: C_1  and  O_2
REMARK    2  A    between atoms: O_2  and  C_3
REMARK    3  A    between atoms: C_4  and  O_5
REMARK    4  A    between atoms: O_5  and  C_6
REMARK    5  A    between atoms: C_7  and  O_8
REMARK    6  A    between atoms: O_8  and  C_9
REMARK    7  A    between atoms: C_11  and  C_12
REMARK    8  A    between atoms: C_14  and  C_16
REMARK    9  A    between atoms: C_17  and  C_18
REMARK   10  A    between atoms: C_18  and  C_19
REMARK   11  A    between atoms: C_24  and  O_26
REMARK   12  A    between atoms: O_26  and  C_27
REMARK   13  A    between atoms: C_28  and  O_30
REMARK   14  A    between atoms: C_31  and  O_32
REMARK   15  A    between atoms: O_32  and  C_33
REMARK                            x       y       z     vdW  Elec       q    Type
REMARK                         _______ _______ _______ _____ _____    ______ ____
ROOT
ATOM      1  C   LIG A   1      -4.284   2.485 126.973  0.00  0.00    +0.065 C 
ATOM      2  C   LIG A   1      -3.003   3.536 127.064  0.00  0.00    +0.010 C 
ATOM      3  C   LIG A   1      -1.592   2.955 127.003  0.00  0.00    +0.009 C 
ATOM      4  C   LIG A   1      -3.298   4.589 128.233  0.00  0.00    +0.041 C 
ATOM      5  C   LIG A   1      -4.617   4.085 128.099  0.00  0.00    +0.175 C 
ATOM      6  O   LIG A   1      -5.539   4.778 127.633  0.00  0.00    -0.294 OA
ATOM      7  C   LIG A   1      -3.351   4.361 129.863  0.00  0.00    +0.049 C 
ATOM      8  C   LIG A   1      -4.866   4.080 130.479  0.00  0.00    +0.150 C 
ATOM      9  C   LIG A   1      -5.723   3.009 129.575  0.00  0.00    +0.183 C 
ATOM     10  C   LIG A   1      -4.759   2.550 128.437  0.00  0.00    +0.162 C 
ENDROOT
BRANCH   1  15
ATOM     11  C   LIG A   1      -7.579   2.272 124.905  0.00  0.00    +0.165 A 
ATOM     12  C   LIG A   1      -7.365   3.229 123.879  0.00  0.00    +0.203 A 
ATOM     13  C   LIG A   1      -6.087   3.798 123.748  0.00  0.00    +0.165 A 
ATOM     14  C   LIG A   1      -5.134   3.591 124.781  0.00  0.00    +0.053 A 
ATOM     15  C   LIG A   1      -5.334   2.676 125.838  0.00  0.00    -0.034 A 
ATOM     16  C   LIG A   1      -6.561   1.994 125.849  0.00  0.00    +0.053 A 
BRANCH  11  18
ATOM     17  C   LIG A   1      -8.837   0.225 124.639  0.00  0.00    +0.277 C 
ATOM     18  O   LIG A   1      -8.741   1.556 125.145  0.00  0.00    -0.491 OA
ENDBRANCH  11  18
BRANCH  12  19
ATOM     19  O   LIG A   1      -8.483   3.568 123.172  0.00  0.00    -0.488 OA
ATOM     20  C   LIG A   1      -8.736   3.065 121.886  0.00  0.00    +0.277 C 
ENDBRANCH  12  19
BRANCH  13  21
ATOM     21  O   LIG A   1      -5.658   4.665 122.763  0.00  0.00    -0.491 OA
ATOM     22  C   LIG A   1      -5.223   4.135 121.499  0.00  0.00    +0.277 C 
ENDBRANCH  13  21
ENDBRANCH   1  15
BRANCH   8  23
ATOM     23  O   LIG A   1      -5.576   5.267 130.885  0.00  0.00    -0.377 OA
ATOM     24  C   LIG A   1      -6.285   5.298 132.114  0.00  0.00    +0.194 C 
ENDBRANCH   8  23
BRANCH   9  25
ATOM     25  O   LIG A   1      -7.042   3.403 129.217  0.00  0.00    -0.386 OA
ATOM     26  H   LIG A   1      -7.030   3.643 128.271  0.00  0.00    +0.210 HD
ENDBRANCH   9  25
BRANCH  10  27
ATOM     27  O   LIG A   1      -3.868   1.780 129.281  0.00  0.00    -0.366 OA
ATOM     28  C   LIG A   1      -4.196   0.565 129.922  0.00  0.00    +0.195 C 
ENDBRANCH  10  27
BRANCH   4  29
ATOM     29  C   LIG A   1      -2.828   5.997 127.868  0.00  0.00    +0.041 C 
BRANCH  29  30
ATOM     30  C   LIG A   1      -2.822   7.017 128.972  0.00  0.00    -0.034 C 
ATOM     31  C   LIG A   1      -3.784   7.907 129.249  0.00  0.00    +0.004 C 
ENDBRANCH  29  30
ENDBRANCH   4  29
TORSDOF 9
ENDMDL
MODEL 3
REMARK VINA RESULT:      -6.5      3.291      7.532
REMARK  Name = NuBBE_2149
REMARK  15 active torsions:
REMARK  status: ('A' for Active; 'I' for Inactive)
REMARK    1  A    between atoms: C_1  and  O_2
REMARK    2  A    between atoms: O_2  and  C_3
REMARK    3  A    between atoms: C_4  and  O_5
REMARK    4  A    between atoms: O_5  and  C_6
REMARK    5  A    between atoms: C_7  and  O_8
REMARK    6  A    between atoms: O_8  and  C_9
REMARK    7  A    between atoms: C_11  and  C_12
REMARK    8  A    between atoms: C_14  and  C_16
REMARK    9  A    between atoms: C_17  and  C_18
REMARK   10  A    between atoms: C_18  and  C_19
REMARK   11  A    between atoms: C_24  and  O_26
REMARK   12  A    between atoms: O_26  and  C_27
REMARK   13  A    between atoms: C_28  and  O_30
REMARK   14  A    between atoms: C_31  and  O_32
REMARK   15  A    between atoms: O_32  and  C_33
REMARK                            x       y       z     vdW  Elec       q    Type
REMARK                         _______ _______ _______ _____ _____    ______ ____
ROOT
ATOM      1  C   LIG A   1      -6.751   1.772 127.158  0.00  0.00    +0.065 C 
ATOM      2  C   LIG A   1      -6.682   0.241 126.520  0.00  0.00    +0.010 C 
ATOM      3  C   LIG A   1      -5.322  -0.450 126.458  0.00  0.00    +0.009 C 
ATOM      4  C   LIG A   1      -7.567   0.212 125.186  0.00  0.00    +0.041 C 
ATOM      5  C   LIG A   1      -8.072   1.426 125.718  0.00  0.00    +0.175 C 
ATOM      6  O   LIG A   1      -9.237   1.519 126.146  0.00  0.00    -0.294 OA
ATOM      7  C   LIG A   1      -7.297   0.934 123.731  0.00  0.00    +0.049 C 
ATOM      8  C   LIG A   1      -8.036   2.407 123.536  0.00  0.00    +0.150 C 
ATOM      9  C   LIG A   1      -7.877   3.370 124.857  0.00  0.00    +0.183 C 
ATOM     10  C   LIG A   1      -6.992   2.567 125.861  0.00  0.00    +0.162 C 
ENDROOT
BRANCH   1  15
ATOM     11  C   LIG A   1      -8.747   1.276 130.467  0.00  0.00    +0.165 A 
ATOM     12  C   LIG A   1      -9.182   2.593 130.768  0.00  0.00    +0.203 A 
ATOM     13  C   LIG A   1      -8.994   3.599 129.805  0.00  0.00    +0.165 A 
ATOM     14  C   LIG A   1      -8.163   3.329 128.684  0.00  0.00    +0.053 A 
ATOM     15  C   LIG A   1      -7.680   2.038 128.380  0.00  0.00    -0.034 A 
ATOM     16  C   LIG A   1      -8.027   1.015 129.276  0.00  0.00    +0.053 A 
BRANCH  11  18
ATOM     17  C   LIG A   1      -8.086  -0.990 130.990  0.00  0.00    +0.277 C 
ATOM     18  O   LIG A   1      -8.908   0.147 131.253  0.00  0.00    -0.491 OA
ENDBRANCH  11  18
BRANCH  12  19
ATOM     19  O   LIG A   1      -9.667   2.759 132.034  0.00  0.00    -0.488 OA
ATOM     20  C   LIG A   1      -8.844   3.135 133.107  0.00  0.00    +0.277 C 
ENDBRANCH  12  19
BRANCH  13  21
ATOM     21  O   LIG A   1      -9.432   4.907 129.870  0.00  0.00    -0.491 OA
ATOM     22  C   LIG A   1      -8.614   5.892 130.524  0.00  0.00    +0.277 C 
ENDBRANCH  13  21
ENDBRANCH   1  15
BRANCH   8  23
ATOM     23  O   LIG A   1      -9.358   2.341 122.964  0.00  0.00    -0.377 OA
ATOM     24  C   LIG A   1      -9.890   1.102 122.519  0.00  0.00    +0.194 C 
ENDBRANCH   8  23
BRANCH   9  25
ATOM     25  O   LIG A   1      -9.072   3.968 125.347  0.00  0.00    -0.386 OA
ATOM     26  H   LIG A   1      -9.196   4.808 124.867  0.00  0.00    +0.210 HD
ENDBRANCH   9  25
BRANCH  10  27
ATOM     27  O   LIG A   1      -5.760   2.670 125.106  0.00  0.00    -0.366 OA
ATOM     28  C   LIG A   1      -4.925   3.808 125.051  0.00  0.00    +0.195 C 
ENDBRANCH  10  27
BRANCH   4  29
ATOM     29  C   LIG A   1      -8.338  -1.100 125.040  0.00  0.00    +0.041 C 
BRANCH  29  30
ATOM     30  C   LIG A   1      -8.647  -1.850 126.305  0.00  0.00    -0.034 C 
ATOM     31  C   LIG A   1      -9.080  -3.114 126.404  0.00  0.00    +0.004 C 
ENDBRANCH  29  30
ENDBRANCH   4  29
TORSDOF 9
ENDMDL
MODEL 4
REMARK VINA RESULT:      -6.4      3.103      4.809
REMARK  Name = NuBBE_2149
REMARK  15 active torsions:
REMARK  status: ('A' for Active; 'I' for Inactive)
REMARK    1  A    between atoms: C_1  and  O_2
REMARK    2  A    between atoms: O_2  and  C_3
REMARK    3  A    between atoms: C_4  and  O_5
REMARK    4  A    between atoms: O_5  and  C_6
REMARK    5  A    between atoms: C_7  and  O_8
REMARK    6  A    between atoms: O_8  and  C_9
REMARK    7  A    between atoms: C_11  and  C_12
REMARK    8  A    between atoms: C_14  and  C_16
REMARK    9  A    between atoms: C_17  and  C_18
REMARK   10  A    between atoms: C_18  and  C_19
REMARK   11  A    between atoms: C_24  and  O_26
REMARK   12  A    between atoms: O_26  and  C_27
REMARK   13  A    between atoms: C_28  and  O_30
REMARK   14  A    between atoms: C_31  and  O_32
REMARK   15  A    between atoms: O_32  and  C_33
REMARK                            x       y       z     vdW  Elec       q    Type
REMARK                         _______ _______ _______ _____ _____    ______ ____
ROOT
ATOM      1  C   LIG A   1      -7.394   3.301 130.016  0.00  0.00    +0.065 C 
ATOM      2  C   LIG A   1      -6.534   3.963 131.271  0.00  0.00    +0.010 C 
ATOM      3  C   LIG A   1      -5.874   3.013 132.269  0.00  0.00    +0.009 C 
ATOM      4  C   LIG A   1      -7.385   5.173 131.883  0.00  0.00    +0.041 C 
ATOM      5  C   LIG A   1      -8.099   5.040 130.664  0.00  0.00    +0.175 C 
ATOM      6  O   LIG A   1      -8.043   5.907 129.774  0.00  0.00    -0.294 OA
ATOM      7  C   LIG A   1      -8.791   5.140 132.738  0.00  0.00    +0.049 C 
ATOM      8  C   LIG A   1     -10.165   5.352 131.831  0.00  0.00    +0.150 C 
ATOM      9  C   LIG A   1     -10.145   4.470 130.445  0.00  0.00    +0.183 C 
ATOM     10  C   LIG A   1      -8.819   3.647 130.488  0.00  0.00    +0.162 C 
ENDROOT
BRANCH   1  15
ATOM     11  C   LIG A   1      -7.586   4.068 126.201  0.00  0.00    +0.165 A 
ATOM     12  C   LIG A   1      -6.283   4.551 125.914  0.00  0.00    +0.203 A 
ATOM     13  C   LIG A   1      -5.295   4.446 126.908  0.00  0.00    +0.165 A 
ATOM     14  C   LIG A   1      -5.685   4.098 128.230  0.00  0.00    +0.053 A 
ATOM     15  C   LIG A   1      -6.985   3.653 128.555  0.00  0.00    -0.034 A 
ATOM     16  C   LIG A   1      -7.910   3.608 127.500  0.00  0.00    +0.053 A 
BRANCH  11  18
ATOM     17  C   LIG A   1      -8.860   2.840 124.554  0.00  0.00    +0.277 C 
ATOM     18  O   LIG A   1      -8.665   4.020 125.333  0.00  0.00    -0.491 OA
ENDBRANCH  11  18
BRANCH  12  19
ATOM     19  O   LIG A   1      -6.155   5.165 124.702  0.00  0.00    -0.488 OA
ATOM     20  C   LIG A   1      -5.612   4.510 123.585  0.00  0.00    +0.277 C 
ENDBRANCH  12  19
BRANCH  13  21
ATOM     21  O   LIG A   1      -3.957   4.766 126.790  0.00  0.00    -0.491 OA
ATOM     22  C   LIG A   1      -3.005   3.723 126.522  0.00  0.00    +0.277 C 
ENDBRANCH  13  21
ENDBRANCH   1  15
BRANCH   8  23
ATOM     23  O   LIG A   1     -10.585   6.725 131.694  0.00  0.00    -0.377 OA
ATOM     24  C   LIG A   1     -11.963   7.050 131.600  0.00  0.00    +0.194 C 
ENDBRANCH   8  23
BRANCH   9  25
ATOM     25  O   LIG A   1     -10.460   5.171 129.249  0.00  0.00    -0.386 OA
ATOM     26  H   LIG A   1     -11.430   5.274 129.216  0.00  0.00    +0.210 HD
ENDBRANCH   9  25
BRANCH  10  27
ATOM     27  O   LIG A   1      -9.218   2.754 131.557  0.00  0.00    -0.366 OA
ATOM     28  C   LIG A   1      -9.219   1.344 131.489  0.00  0.00    +0.195 C 
ENDBRANCH  10  27
BRANCH   4  29
ATOM     29  C   LIG A   1      -6.499   6.351 132.285  0.00  0.00    +0.041 C 
BRANCH  29  30
ATOM     30  C   LIG A   1      -5.174   6.473 131.586  0.00  0.00    -0.034 C 
ATOM     31  C   LIG A   1      -4.869   7.306 130.582  0.00  0.00    +0.004 C 
ENDBRANCH  29  30
ENDBRANCH   4  29
TORSDOF 9
ENDMDL
MODEL 5
REMARK VINA RESULT:      -6.3      4.889      7.348
REMARK  Name = NuBBE_2149
REMARK  15 active torsions:
REMARK  status: ('A' for Active; 'I' for Inactive)
REMARK    1  A    between atoms: C_1  and  O_2
REMARK    2  A    between atoms: O_2  and  C_3
REMARK    3  A    between atoms: C_4  and  O_5
REMARK    4  A    between atoms: O_5  and  C_6
REMARK    5  A    between atoms: C_7  and  O_8
REMARK    6  A    between atoms: O_8  and  C_9
REMARK    7  A    between atoms: C_11  and  C_12
REMARK    8  A    between atoms: C_14  and  C_16
REMARK    9  A    between atoms: C_17  and  C_18
REMARK   10  A    between atoms: C_18  and  C_19
REMARK   11  A    between atoms: C_24  and  O_26
REMARK   12  A    between atoms: O_26  and  C_27
REMARK   13  A    between atoms: C_28  and  O_30
REMARK   14  A    between atoms: C_31  and  O_32
REMARK   15  A    between atoms: O_32  and  C_33
REMARK                            x       y       z     vdW  Elec       q    Type
REMARK                         _______ _______ _______ _____ _____    ______ ____
ROOT
ATOM      1  C   LIG A   1      -7.912  -1.264 131.273  0.00  0.00    +0.065 C 
ATOM      2  C   LIG A   1      -6.819  -1.975 130.246  0.00  0.00    +0.010 C 
ATOM      3  C   LIG A   1      -7.225  -3.273 129.551  0.00  0.00    +0.009 C 
ATOM      4  C   LIG A   1      -5.381  -1.953 130.948  0.00  0.00    +0.041 C 
ATOM      5  C   LIG A   1      -6.014  -1.004 131.791  0.00  0.00    +0.175 C 
ATOM      6  O   LIG A   1      -5.704   0.201 131.770  0.00  0.00    -0.294 OA
ATOM      7  C   LIG A   1      -4.839  -2.791 132.258  0.00  0.00    +0.049 C 
ATOM      8  C   LIG A   1      -4.950  -1.978 133.701  0.00  0.00    +0.150 C 
ATOM      9  C   LIG A   1      -6.393  -1.213 133.882  0.00  0.00    +0.183 C 
ATOM     10  C   LIG A   1      -7.228  -1.583 132.616  0.00  0.00    +0.162 C 
ENDROOT
BRANCH   1  15
ATOM     11  C   LIG A   1      -8.825   2.039 129.418  0.00  0.00    +0.165 A 
ATOM     12  C   LIG A   1      -9.440   2.809 130.439  0.00  0.00    +0.203 A 
ATOM     13  C   LIG A   1      -9.385   2.337 131.761  0.00  0.00    +0.165 A 
ATOM     14  C   LIG A   1      -8.944   1.007 131.998  0.00  0.00    +0.053 A 
ATOM     15  C   LIG A   1      -8.365   0.200 130.994  0.00  0.00    -0.034 A 
ATOM     16  C   LIG A   1      -8.280   0.765 129.712  0.00  0.00    +0.053 A 
BRANCH  11  18
ATOM     17  C   LIG A   1      -8.548   1.320 127.127  0.00  0.00    +0.277 C 
ATOM     18  O   LIG A   1      -8.714   2.371 128.078  0.00  0.00    -0.491 OA
ENDBRANCH  11  18
BRANCH  12  19
ATOM     19  O   LIG A   1     -10.116   3.909 129.996  0.00  0.00    -0.488 OA
ATOM     20  C   LIG A   1      -9.581   5.203 130.088  0.00  0.00    +0.277 C 
ENDBRANCH  12  19
BRANCH  13  21
ATOM     21  O   LIG A   1      -9.834   2.983 132.896  0.00  0.00    -0.491 OA
ATOM     22  C   LIG A   1      -8.887   3.651 133.747  0.00  0.00    +0.277 C 
ENDBRANCH  13  21
ENDBRANCH   1  15
BRANCH   8  23
ATOM     23  O   LIG A   1      -3.784  -1.202 134.041  0.00  0.00    -0.377 OA
ATOM     24  C   LIG A   1      -2.566  -1.384 133.334  0.00  0.00    +0.194 C 
ENDBRANCH   8  23
BRANCH   9  25
ATOM     25  O   LIG A   1      -6.336   0.153 134.272  0.00  0.00    -0.386 OA
ATOM     26  H   LIG A   1      -6.088   0.179 135.215  0.00  0.00    +0.210 HD
ENDBRANCH   9  25
BRANCH  10  27
ATOM     27  O   LIG A   1      -7.436  -2.974 132.960  0.00  0.00    -0.366 OA
ATOM     28  C   LIG A   1      -8.274  -3.446 133.994  0.00  0.00    +0.195 C 
ENDBRANCH  10  27
BRANCH   4  29
ATOM     29  C   LIG A   1      -4.259  -1.667 129.949  0.00  0.00    +0.041 C 
BRANCH  29  30
ATOM     30  C   LIG A   1      -3.169  -2.695 129.842  0.00  0.00    -0.034 C 
ATOM     31  C   LIG A   1      -3.154  -3.771 129.043  0.00  0.00    +0.004 C 
ENDBRANCH  29  30
ENDBRANCH   4  29
TORSDOF 9
ENDMDL
MODEL 6
REMARK VINA RESULT:      -6.1      2.844      5.700
REMARK  Name = NuBBE_2149
REMARK  15 active torsions:
REMARK  status: ('A' for Active; 'I' for Inactive)
REMARK    1  A    between atoms: C_1  and  O_2
REMARK    2  A    between atoms: O_2  and  C_3
REMARK    3  A    between atoms: C_4  and  O_5
REMARK    4  A    between atoms: O_5  and  C_6
REMARK    5  A    between atoms: C_7  and  O_8
REMARK    6  A    between atoms: O_8  and  C_9
REMARK    7  A    between atoms: C_11  and  C_12
REMARK    8  A    between atoms: C_14  and  C_16
REMARK    9  A    between atoms: C_17  and  C_18
REMARK   10  A    between atoms: C_18  and  C_19
REMARK   11  A    between atoms: C_24  and  O_26
REMARK   12  A    between atoms: O_26  and  C_27
REMARK   13  A    between atoms: C_28  and  O_30
REMARK   14  A    between atoms: C_31  and  O_32
REMARK   15  A    between atoms: O_32  and  C_33
REMARK                            x       y       z     vdW  Elec       q    Type
REMARK                         _______ _______ _______ _____ _____    ______ ____
ROOT
ATOM      1  C   LIG A   1      -7.567   0.861 128.733  0.00  0.00    +0.065 C 
ATOM      2  C   LIG A   1      -6.665   0.158 129.936  0.00  0.00    +0.010 C 
ATOM      3  C   LIG A   1      -7.217   0.192 131.360  0.00  0.00    +0.009 C 
ATOM      4  C   LIG A   1      -5.139   0.599 129.744  0.00  0.00    +0.041 C 
ATOM      5  C   LIG A   1      -5.605   0.976 128.459  0.00  0.00    +0.175 C 
ATOM      6  O   LIG A   1      -5.259   0.366 127.431  0.00  0.00    -0.294 OA
ATOM      7  C   LIG A   1      -4.438   2.074 129.949  0.00  0.00    +0.049 C 
ATOM      8  C   LIG A   1      -4.303   2.982 128.566  0.00  0.00    +0.150 C 
ATOM      9  C   LIG A   1      -5.675   2.957 127.662  0.00  0.00    +0.183 C 
ATOM     10  C   LIG A   1      -6.702   2.110 128.478  0.00  0.00    +0.162 C 
ENDROOT
BRANCH   1  15
ATOM     11  C   LIG A   1      -8.493  -2.205 126.514  0.00  0.00    +0.165 A 
ATOM     12  C   LIG A   1      -9.053  -1.596 125.361  0.00  0.00    +0.203 A 
ATOM     13  C   LIG A   1      -8.954  -0.202 125.223  0.00  0.00    +0.165 A 
ATOM     14  C   LIG A   1      -8.528   0.570 126.337  0.00  0.00    +0.053 A 
ATOM     15  C   LIG A   1      -8.005  -0.006 127.515  0.00  0.00    -0.034 A 
ATOM     16  C   LIG A   1      -7.960  -1.408 127.557  0.00  0.00    +0.053 A 
BRANCH  11  18
ATOM     17  C   LIG A   1      -8.878  -4.017 128.068  0.00  0.00    +0.277 C 
ATOM     18  O   LIG A   1      -8.429  -3.561 126.792  0.00  0.00    -0.491 OA
ENDBRANCH  11  18
BRANCH  12  19
ATOM     19  O   LIG A   1      -9.726  -2.450 124.535  0.00  0.00    -0.488 OA
ATOM     20  C   LIG A   1      -9.156  -2.957 123.357  0.00  0.00    +0.277 C 
ENDBRANCH  12  19
BRANCH  13  21
ATOM     21  O   LIG A   1      -9.346   0.558 124.139  0.00  0.00    -0.491 OA
ATOM     22  C   LIG A   1      -9.231   1.990 124.204  0.00  0.00    +0.277 C 
ENDBRANCH  13  21
ENDBRANCH   1  15
BRANCH   8  23
ATOM     23  O   LIG A   1      -3.072   2.788 127.842  0.00  0.00    -0.377 OA
ATOM     24  C   LIG A   1      -2.341   3.902 127.352  0.00  0.00    +0.194 C 
ENDBRANCH   8  23
BRANCH   9  25
ATOM     25  O   LIG A   1      -5.512   2.663 126.280  0.00  0.00    -0.386 OA
ATOM     26  H   LIG A   1      -5.735   1.722 126.152  0.00  0.00    +0.210 HD
ENDBRANCH   9  25
BRANCH  10  27
ATOM     27  O   LIG A   1      -6.905   3.079 129.536  0.00  0.00    -0.366 OA
ATOM     28  C   LIG A   1      -8.088   3.821 129.751  0.00  0.00    +0.195 C 
ENDBRANCH  10  27
BRANCH   4  29
ATOM     29  C   LIG A   1      -4.170  -0.542 130.053  0.00  0.00    +0.041 C 
BRANCH  29  30
ATOM     30  C   LIG A   1      -4.688  -1.941 129.868  0.00  0.00    -0.034 C 
ATOM     31  C   LIG A   1      -4.472  -2.745 128.819  0.00  0.00    +0.004 C 
ENDBRANCH  29  30
ENDBRANCH   4  29
TORSDOF 9
ENDMDL
MODEL 7
REMARK VINA RESULT:      -6.0      2.745      6.855
REMARK  Name = NuBBE_2149
REMARK  15 active torsions:
REMARK  status: ('A' for Active; 'I' for Inactive)
REMARK    1  A    between atoms: C_1  and  O_2
REMARK    2  A    between atoms: O_2  and  C_3
REMARK    3  A    between atoms: C_4  and  O_5
REMARK    4  A    between atoms: O_5  and  C_6
REMARK    5  A    between atoms: C_7  and  O_8
REMARK    6  A    between atoms: O_8  and  C_9
REMARK    7  A    between atoms: C_11  and  C_12
REMARK    8  A    between atoms: C_14  and  C_16
REMARK    9  A    between atoms: C_17  and  C_18
REMARK   10  A    between atoms: C_18  and  C_19
REMARK   11  A    between atoms: C_24  and  O_26
REMARK   12  A    between atoms: O_26  and  C_27
REMARK   13  A    between atoms: C_28  and  O_30
REMARK   14  A    between atoms: C_31  and  O_32
REMARK   15  A    between atoms: O_32  and  C_33
REMARK                            x       y       z     vdW  Elec       q    Type
REMARK                         _______ _______ _______ _____ _____    ______ ____
ROOT
ATOM      1  C   LIG A   1      -6.403   2.268 128.030  0.00  0.00    +0.065 C 
ATOM      2  C   LIG A   1      -6.940   0.802 127.466  0.00  0.00    +0.010 C 
ATOM      3  C   LIG A   1      -6.014  -0.405 127.610  0.00  0.00    +0.009 C 
ATOM      4  C   LIG A   1      -7.610   1.029 126.031  0.00  0.00    +0.041 C 
ATOM      5  C   LIG A   1      -7.591   2.385 126.444  0.00  0.00    +0.175 C 
ATOM      6  O   LIG A   1      -8.637   3.003 126.713  0.00  0.00    -0.294 OA
ATOM      7  C   LIG A   1      -6.909   1.432 124.597  0.00  0.00    +0.049 C 
ATOM      8  C   LIG A   1      -6.914   3.054 124.249  0.00  0.00    +0.150 C 
ATOM      9  C   LIG A   1      -6.488   3.975 125.541  0.00  0.00    +0.183 C 
ATOM     10  C   LIG A   1      -6.144   2.968 126.682  0.00  0.00    +0.162 C 
ENDROOT
BRANCH   1  15
ATOM     11  C   LIG A   1      -7.956   5.101 130.208  0.00  0.00    +0.165 A 
ATOM     12  C   LIG A   1      -8.979   4.422 130.919  0.00  0.00    +0.203 A 
ATOM     13  C   LIG A   1      -9.038   3.021 130.835  0.00  0.00    +0.165 A 
ATOM     14  C   LIG A   1      -8.243   2.357 129.862  0.00  0.00    +0.053 A 
ATOM     15  C   LIG A   1      -7.244   3.013 129.109  0.00  0.00    -0.034 A 
ATOM     16  C   LIG A   1      -7.095   4.390 129.337  0.00  0.00    +0.053 A 
BRANCH  11  18
ATOM     17  C   LIG A   1      -6.725   6.959 131.144  0.00  0.00    +0.277 C 
ATOM     18  O   LIG A   1      -7.695   6.462 130.223  0.00  0.00    -0.491 OA
ENDBRANCH  11  18
BRANCH  12  19
ATOM     19  O   LIG A   1      -9.875   5.238 131.548  0.00  0.00    -0.488 OA
ATOM     20  C   LIG A   1     -11.085   5.622 130.951  0.00  0.00    +0.277 C 
ENDBRANCH  12  19
BRANCH  13  21
ATOM     21  O   LIG A   1      -9.890   2.180 131.523  0.00  0.00    -0.491 OA
ATOM     22  C   LIG A   1      -9.438   0.864 131.886  0.00  0.00    +0.277 C 
ENDBRANCH  13  21
ENDBRANCH   1  15
BRANCH   8  23
ATOM     23  O   LIG A   1      -8.069   3.504 123.512  0.00  0.00    -0.377 OA
ATOM     24  C   LIG A   1      -8.884   2.576 122.814  0.00  0.00    +0.194 C 
ENDBRANCH   8  23
BRANCH   9  25
ATOM     25  O   LIG A   1      -7.349   5.066 125.847  0.00  0.00    -0.386 OA
ATOM     26  H   LIG A   1      -8.174   4.694 126.212  0.00  0.00    +0.210 HD
ENDBRANCH   9  25
BRANCH  10  27
ATOM     27  O   LIG A   1      -4.919   2.468 126.092  0.00  0.00    -0.366 OA
ATOM     28  C   LIG A   1      -3.616   2.714 126.578  0.00  0.00    +0.195 C 
ENDBRANCH  10  27
BRANCH   4  29
ATOM     29  C   LIG A   1      -8.853   0.162 125.835  0.00  0.00    +0.041 C 
BRANCH  29  30
ATOM     30  C   LIG A   1      -8.637  -1.220 125.287  0.00  0.00    -0.034 C 
ATOM     31  C   LIG A   1      -9.034  -2.375 125.838  0.00  0.00    +0.004 C 
ENDBRANCH  29  30
ENDBRANCH   4  29
TORSDOF 9
ENDMDL
MODEL 8
REMARK VINA RESULT:      -5.9      4.373      7.245
REMARK  Name = NuBBE_2149
REMARK  15 active torsions:
REMARK  status: ('A' for Active; 'I' for Inactive)
REMARK    1  A    between atoms: C_1  and  O_2
REMARK    2  A    between atoms: O_2  and  C_3
REMARK    3  A    between atoms: C_4  and  O_5
REMARK    4  A    between atoms: O_5  and  C_6
REMARK    5  A    between atoms: C_7  and  O_8
REMARK    6  A    between atoms: O_8  and  C_9
REMARK    7  A    between atoms: C_11  and  C_12
REMARK    8  A    between atoms: C_14  and  C_16
REMARK    9  A    between atoms: C_17  and  C_18
REMARK   10  A    between atoms: C_18  and  C_19
REMARK   11  A    between atoms: C_24  and  O_26
REMARK   12  A    between atoms: O_26  and  C_27
REMARK   13  A    between atoms: C_28  and  O_30
REMARK   14  A    between atoms: C_31  and  O_32
REMARK   15  A    between atoms: O_32  and  C_33
REMARK                            x       y       z     vdW  Elec       q    Type
REMARK                         _______ _______ _______ _____ _____    ______ ____
ROOT
ATOM      1  C   LIG A   1      -7.976  -1.181 130.685  0.00  0.00    +0.065 C 
ATOM      2  C   LIG A   1      -7.383  -2.165 129.486  0.00  0.00    +0.010 C 
ATOM      3  C   LIG A   1      -8.227  -3.365 129.060  0.00  0.00    +0.009 C 
ATOM      4  C   LIG A   1      -5.835  -2.442 129.782  0.00  0.00    +0.041 C 
ATOM      5  C   LIG A   1      -5.997  -1.339 130.658  0.00  0.00    +0.175 C 
ATOM      6  O   LIG A   1      -5.463  -0.238 130.432  0.00  0.00    -0.294 OA
ATOM      7  C   LIG A   1      -5.137  -3.325 130.983  0.00  0.00    +0.049 C 
ATOM      8  C   LIG A   1      -4.671  -2.447 132.313  0.00  0.00    +0.150 C 
ATOM      9  C   LIG A   1      -5.815  -1.367 132.785  0.00  0.00    +0.183 C 
ATOM     10  C   LIG A   1      -7.027  -1.590 131.827  0.00  0.00    +0.162 C 
ENDROOT
BRANCH   1  15
ATOM     11  C   LIG A   1      -8.266   2.677 131.146  0.00  0.00    +0.165 A 
ATOM     12  C   LIG A   1      -8.282   3.150 129.808  0.00  0.00    +0.203 A 
ATOM     13  C   LIG A   1      -8.393   2.214 128.767  0.00  0.00    +0.165 A 
ATOM     14  C   LIG A   1      -8.234   0.833 129.065  0.00  0.00    +0.053 A 
ATOM     15  C   LIG A   1      -8.174   0.335 130.384  0.00  0.00    -0.034 A 
ATOM     16  C   LIG A   1      -8.236   1.287 131.414  0.00  0.00    +0.053 A 
BRANCH  11  18
ATOM     17  C   LIG A   1      -9.183   3.165 133.329  0.00  0.00    +0.277 C 
ATOM     18  O   LIG A   1      -8.235   3.444 132.299  0.00  0.00    -0.491 OA
ENDBRANCH  11  18
BRANCH  12  19
ATOM     19  O   LIG A   1      -8.090   4.495 129.676  0.00  0.00    -0.488 OA
ATOM     20  C   LIG A   1      -9.157   5.388 129.488  0.00  0.00    +0.277 C 
ENDBRANCH  12  19
BRANCH  13  21
ATOM     21  O   LIG A   1      -8.521   2.479 127.418  0.00  0.00    -0.491 OA
ATOM     22  C   LIG A   1      -8.600   1.383 126.489  0.00  0.00    +0.277 C 
ENDBRANCH  13  21
ENDBRANCH   1  15
BRANCH   8  23
ATOM     23  O   LIG A   1      -3.321  -1.944 132.254  0.00  0.00    -0.377 OA
ATOM     24  C   LIG A   1      -2.530  -1.866 133.430  0.00  0.00    +0.194 C 
ENDBRANCH   8  23
BRANCH   9  25
ATOM     25  O   LIG A   1      -5.369  -0.034 133.004  0.00  0.00    -0.386 OA
ATOM     26  H   LIG A   1      -5.710   0.512 132.271  0.00  0.00    +0.210 HD
ENDBRANCH   9  25
BRANCH  10  27
ATOM     27  O   LIG A   1      -7.415  -2.882 132.355  0.00  0.00    -0.366 OA
ATOM     28  C   LIG A   1      -8.039  -3.102 133.603  0.00  0.00    +0.195 C 
ENDBRANCH  10  27
BRANCH   4  29
ATOM     29  C   LIG A   1      -5.002  -2.462 128.500  0.00  0.00    +0.041 C 
BRANCH  29  30
ATOM     30  C   LIG A   1      -5.520  -1.655 127.343  0.00  0.00    -0.034 C 
ATOM     31  C   LIG A   1      -5.798  -2.104 126.111  0.00  0.00    +0.004 C 
ENDBRANCH  29  30
ENDBRANCH   4  29
TORSDOF 9
ENDMDL
MODEL 9
REMARK VINA RESULT:      -5.8      3.132      6.088
REMARK  Name = NuBBE_2149
REMARK  15 active torsions:
REMARK  status: ('A' for Active; 'I' for Inactive)
REMARK    1  A    between atoms: C_1  and  O_2
REMARK    2  A    between atoms: O_2  and  C_3
REMARK    3  A    between atoms: C_4  and  O_5
REMARK    4  A    between atoms: O_5  and  C_6
REMARK    5  A    between atoms: C_7  and  O_8
REMARK    6  A    between atoms: O_8  and  C_9
REMARK    7  A    between atoms: C_11  and  C_12
REMARK    8  A    between atoms: C_14  and  C_16
REMARK    9  A    between atoms: C_17  and  C_18
REMARK   10  A    between atoms: C_18  and  C_19
REMARK   11  A    between atoms: C_24  and  O_26
REMARK   12  A    between atoms: O_26  and  C_27
REMARK   13  A    between atoms: C_28  and  O_30
REMARK   14  A    between atoms: C_31  and  O_32
REMARK   15  A    between atoms: O_32  and  C_33
REMARK                            x       y       z     vdW  Elec       q    Type
REMARK                         _______ _______ _______ _____ _____    ______ ____
ROOT
ATOM      1  C   LIG A   1      -7.383   1.136 129.641  0.00  0.00    +0.065 C 
ATOM      2  C   LIG A   1      -8.063  -0.111 130.499  0.00  0.00    +0.010 C 
ATOM      3  C   LIG A   1      -9.165   0.224 131.502  0.00  0.00    +0.009 C 
ATOM      4  C   LIG A   1      -6.887  -1.067 131.015  0.00  0.00    +0.041 C 
ATOM      5  C   LIG A   1      -6.136  -0.354 130.046  0.00  0.00    +0.175 C 
ATOM      6  O   LIG A   1      -5.731  -0.895 129.001  0.00  0.00    -0.294 OA
ATOM      7  C   LIG A   1      -5.729  -0.788 132.152  0.00  0.00    +0.049 C 
ATOM      8  C   LIG A   1      -4.281  -0.240 131.554  0.00  0.00    +0.150 C 
ATOM      9  C   LIG A   1      -4.473   0.933 130.420  0.00  0.00    +0.183 C 
ATOM     10  C   LIG A   1      -6.010   1.192 130.337  0.00  0.00    +0.162 C 
ENDROOT
BRANCH   1  15
ATOM     11  C   LIG A   1      -8.472   0.309 125.992  0.00  0.00    +0.165 A 
ATOM     12  C   LIG A   1      -7.688   1.207 125.222  0.00  0.00    +0.203 A 
ATOM     13  C   LIG A   1      -6.676   1.937 125.868  0.00  0.00    +0.165 A 
ATOM     14  C   LIG A   1      -6.634   1.944 127.288  0.00  0.00    +0.053 A 
ATOM     15  C   LIG A   1      -7.431   1.092 128.084  0.00  0.00    -0.034 A 
ATOM     16  C   LIG A   1      -8.318   0.248 127.399  0.00  0.00    +0.053 A 
BRANCH  11  18
ATOM     17  C   LIG A   1      -9.140  -1.921 125.341  0.00  0.00    +0.277 C 
ATOM     18  O   LIG A   1      -9.460  -0.543 125.526  0.00  0.00    -0.491 OA
ENDBRANCH  11  18
BRANCH  12  19
ATOM     19  O   LIG A   1      -8.076   1.331 123.920  0.00  0.00    -0.488 OA
ATOM     20  C   LIG A   1      -8.962   2.335 123.496  0.00  0.00    +0.277 C 
ENDBRANCH  12  19
BRANCH  13  21
ATOM     21  O   LIG A   1      -5.752   2.779 125.281  0.00  0.00    -0.491 OA
ATOM     22  C   LIG A   1      -6.100   4.155 125.051  0.00  0.00    +0.277 C 
ENDBRANCH  13  21
ENDBRANCH   1  15
BRANCH   8  23
ATOM     23  O   LIG A   1      -3.338  -1.281 131.225  0.00  0.00    -0.377 OA
ATOM     24  C   LIG A   1      -3.570  -2.619 131.637  0.00  0.00    +0.194 C 
ENDBRANCH   8  23
BRANCH   9  25
ATOM     25  O   LIG A   1      -3.757   0.755 129.204  0.00  0.00    -0.386 OA
ATOM     26  H   LIG A   1      -3.000   0.170 129.392  0.00  0.00    +0.210 HD
ENDBRANCH   9  25
BRANCH  10  27
ATOM     27  O   LIG A   1      -6.137   1.826 131.633  0.00  0.00    -0.366 OA
ATOM     28  C   LIG A   1      -6.669   3.113 131.867  0.00  0.00    +0.195 C 
ENDBRANCH  10  27
BRANCH   4  29
ATOM     29  C   LIG A   1      -7.277  -2.543 130.947  0.00  0.00    +0.041 C 
BRANCH  29  30
ATOM     30  C   LIG A   1      -8.285  -2.930 129.901  0.00  0.00    -0.034 C 
ATOM     31  C   LIG A   1      -8.035  -3.507 128.718  0.00  0.00    +0.004 C 
ENDBRANCH  29  30
ENDBRANCH   4  29
TORSDOF 9
ENDMDL
