MODEL 1
REMARK VINA RESULT:      -8.8      0.000      0.000
REMARK  Name = NuBBE_584
REMARK  7 active torsions:
REMARK  status: ('A' for Active; 'I' for Inactive)
REMARK    1  A    between atoms: O_1  and  C_2
REMARK    2  A    between atoms: C_5  and  C_21
REMARK    3  A    between atoms: C_8  and  C_10
REMARK    4  A    between atoms: C_11  and  C_12
REMARK    5  A    between atoms: C_18  and  O_20
REMARK    6  A    between atoms: C_21  and  C_22
REMARK    7  A    between atoms: C_23  and  C_24
REMARK                            x       y       z     vdW  Elec       q    Type
REMARK                         _______ _______ _______ _____ _____    ______ ____
ROOT
ATOM      1  C   LIG A   1      -7.560   3.085 127.287  0.00  0.00    +0.148 C 
ATOM      2  C   LIG A   1      -6.429   2.061 127.368  0.00  0.00    +0.066 C 
ATOM      3  C   LIG A   1      -6.409   1.185 126.110  0.00  0.00    +0.125 C 
ATOM      4  O   LIG A   1      -6.252   2.036 124.975  0.00  0.00    -0.366 OA
ATOM      5  C   LIG A   1      -7.366   2.906 124.767  0.00  0.00    +0.172 C 
ATOM      6  C   LIG A   1      -7.532   3.868 125.963  0.00  0.00    +0.175 C 
ENDROOT
BRANCH   1   7
ATOM      7  O   LIG A   1      -8.828   2.415 127.391  0.00  0.00    -0.389 OA
ATOM      8  H   LIG A   1      -9.499   3.010 127.010  0.00  0.00    +0.210 HD
ENDBRANCH   1   7
BRANCH   5   9
ATOM      9  C   LIG A   1      -7.149   3.655 123.473  0.00  0.00    +0.007 C 
ATOM     10  C   LIG A   1      -6.625   3.135 122.349  0.00  0.00    +0.006 C 
BRANCH  10  11
ATOM     11  C   LIG A   1      -6.445   3.868 121.090  0.00  0.00    -0.025 A 
ATOM     12  C   LIG A   1      -5.298   4.624 120.823  0.00  0.00    +0.008 A 
ATOM     13  C   LIG A   1      -5.176   5.336 119.628  0.00  0.00    +0.001 A 
ATOM     14  C   LIG A   1      -6.206   5.307 118.692  0.00  0.00    +0.000 A 
ATOM     15  C   LIG A   1      -7.363   4.574 118.953  0.00  0.00    +0.001 A 
ATOM     16  C   LIG A   1      -7.483   3.862 120.148  0.00  0.00    +0.008 A 
ENDBRANCH  10  11
ENDBRANCH   5   9
BRANCH   6  17
ATOM     17  O   LIG A   1      -8.750   4.621 125.857  0.00  0.00    -0.386 OA
ATOM     18  H   LIG A   1      -9.443   3.956 125.671  0.00  0.00    +0.210 HD
ENDBRANCH   6  17
BRANCH   3  19
ATOM     19  C   LIG A   1      -5.225   0.200 126.125  0.00  0.00    +0.058 C 
BRANCH  19  20
ATOM     20  C   LIG A   1      -5.479  -1.021 125.268  0.00  0.00    -0.025 C 
ATOM     21  C   LIG A   1      -6.368  -1.049 124.258  0.00  0.00    +0.013 C 
BRANCH  21  22
ATOM     22  C   LIG A   1      -6.679  -2.262 123.412  0.00  0.00    +0.203 C 
ATOM     23  O   LIG A   1      -7.926  -2.037 122.715  0.00  0.00    -0.454 OA
ATOM     24  C   LIG A   1      -9.119  -2.329 123.282  0.00  0.00    +0.332 C 
ATOM     25  C   LIG A   1      -9.105  -3.182 124.485  0.00  0.00    +0.087 C 
ATOM     26  C   LIG A   1      -7.988  -3.784 124.912  0.00  0.00    -0.016 C 
ATOM     27  C   LIG A   1      -6.687  -3.572 124.211  0.00  0.00    +0.076 C 
ATOM     28  O   LIG A   1     -10.187  -1.945 122.813  0.00  0.00    -0.246 OA
ENDBRANCH  21  22
ENDBRANCH  19  20
ENDBRANCH   3  19
TORSDOF 7
ENDMDL
MODEL 2
REMARK VINA RESULT:      -8.0      1.747      2.135
REMARK  Name = NuBBE_584
REMARK  7 active torsions:
REMARK  status: ('A' for Active; 'I' for Inactive)
REMARK    1  A    between atoms: O_1  and  C_2
REMARK    2  A    between atoms: C_5  and  C_21
REMARK    3  A    between atoms: C_8  and  C_10
REMARK    4  A    between atoms: C_11  and  C_12
REMARK    5  A    between atoms: C_18  and  O_20
REMARK    6  A    between atoms: C_21  and  C_22
REMARK    7  A    between atoms: C_23  and  C_24
REMARK                            x       y       z     vdW  Elec       q    Type
REMARK                         _______ _______ _______ _____ _____    ______ ____
ROOT
ATOM      1  C   LIG A   1      -4.271   3.863 127.968  0.00  0.00    +0.148 C 
ATOM      2  C   LIG A   1      -4.167   2.339 127.969  0.00  0.00    +0.066 C 
ATOM      3  C   LIG A   1      -5.459   1.713 127.430  0.00  0.00    +0.125 C 
ATOM      4  O   LIG A   1      -5.683   2.212 126.112  0.00  0.00    -0.366 OA
ATOM      5  C   LIG A   1      -5.945   3.617 126.082  0.00  0.00    +0.172 C 
ATOM      6  C   LIG A   1      -4.726   4.407 126.603  0.00  0.00    +0.175 C 
ENDROOT
BRANCH   1   7
ATOM      7  O   LIG A   1      -5.222   4.282 128.963  0.00  0.00    -0.389 OA
ATOM      8  H   LIG A   1      -5.386   3.517 129.543  0.00  0.00    +0.210 HD
ENDBRANCH   1   7
BRANCH   5   9
ATOM      9  C   LIG A   1      -6.298   4.004 124.664  0.00  0.00    +0.007 C 
ATOM     10  C   LIG A   1      -6.384   3.157 123.623  0.00  0.00    +0.006 C 
BRANCH  10  11
ATOM     11  C   LIG A   1      -6.755   3.542 122.256  0.00  0.00    -0.025 A 
ATOM     12  C   LIG A   1      -8.078   3.498 121.801  0.00  0.00    +0.008 A 
ATOM     13  C   LIG A   1      -8.388   3.839 120.483  0.00  0.00    +0.001 A 
ATOM     14  C   LIG A   1      -7.377   4.215 119.603  0.00  0.00    +0.000 A 
ATOM     15  C   LIG A   1      -6.052   4.242 120.037  0.00  0.00    +0.001 A 
ATOM     16  C   LIG A   1      -5.743   3.902 121.356  0.00  0.00    +0.008 A 
ENDBRANCH  10  11
ENDBRANCH   5   9
BRANCH   6  17
ATOM     17  O   LIG A   1      -5.036   5.801 126.752  0.00  0.00    -0.386 OA
ATOM     18  H   LIG A   1      -4.757   6.026 127.663  0.00  0.00    +0.210 HD
ENDBRANCH   6  17
BRANCH   3  19
ATOM     19  C   LIG A   1      -5.349   0.180 127.338  0.00  0.00    +0.058 C 
BRANCH  19  20
ATOM     20  C   LIG A   1      -5.465  -0.323 125.916  0.00  0.00    -0.025 C 
ATOM     21  C   LIG A   1      -6.355  -1.254 125.526  0.00  0.00    +0.013 C 
BRANCH  21  22
ATOM     22  C   LIG A   1      -6.470  -1.812 124.127  0.00  0.00    +0.203 C 
ATOM     23  O   LIG A   1      -7.550  -1.138 123.442  0.00  0.00    -0.454 OA
ATOM     24  C   LIG A   1      -8.830  -1.564 123.541  0.00  0.00    +0.332 C 
ATOM     25  C   LIG A   1      -9.051  -2.915 124.090  0.00  0.00    +0.087 C 
ATOM     26  C   LIG A   1      -8.038  -3.756 124.328  0.00  0.00    -0.016 C 
ATOM     27  C   LIG A   1      -6.624  -3.339 124.095  0.00  0.00    +0.076 C 
ATOM     28  O   LIG A   1      -9.784  -0.891 123.163  0.00  0.00    -0.246 OA
ENDBRANCH  21  22
ENDBRANCH  19  20
ENDBRANCH   3  19
TORSDOF 7
ENDMDL
MODEL 3
REMARK VINA RESULT:      -7.9      5.564      7.341
REMARK  Name = NuBBE_584
REMARK  7 active torsions:
REMARK  status: ('A' for Active; 'I' for Inactive)
REMARK    1  A    between atoms: O_1  and  C_2
REMARK    2  A    between atoms: C_5  and  C_21
REMARK    3  A    between atoms: C_8  and  C_10
REMARK    4  A    between atoms: C_11  and  C_12
REMARK    5  A    between atoms: C_18  and  O_20
REMARK    6  A    between atoms: C_21  and  C_22
REMARK    7  A    between atoms: C_23  and  C_24
REMARK                            x       y       z     vdW  Elec       q    Type
REMARK                         _______ _______ _______ _____ _____    ______ ____
ROOT
ATOM      1  C   LIG A   1      -8.299   3.197 132.288  0.00  0.00    +0.148 C 
ATOM      2  C   LIG A   1      -7.773   2.577 130.994  0.00  0.00    +0.066 C 
ATOM      3  C   LIG A   1      -8.937   2.159 130.089  0.00  0.00    +0.125 C 
ATOM      4  O   LIG A   1      -9.733   3.314 129.820  0.00  0.00    -0.366 OA
ATOM      5  C   LIG A   1     -10.376   3.835 130.985  0.00  0.00    +0.172 C 
ATOM      6  C   LIG A   1      -9.330   4.306 132.017  0.00  0.00    +0.175 C 
ENDROOT
BRANCH   1   7
ATOM      7  O   LIG A   1      -8.927   2.181 133.090  0.00  0.00    -0.389 OA
ATOM      8  H   LIG A   1      -8.291   1.446 133.170  0.00  0.00    +0.210 HD
ENDBRANCH   1   7
BRANCH   5   9
ATOM      9  C   LIG A   1     -11.289   4.961 130.560  0.00  0.00    +0.007 C 
ATOM     10  C   LIG A   1     -11.037   5.839 129.573  0.00  0.00    +0.006 C 
BRANCH  10  11
ATOM     11  C   LIG A   1     -11.945   6.912 129.151  0.00  0.00    -0.025 A 
ATOM     12  C   LIG A   1     -12.990   6.694 128.246  0.00  0.00    +0.008 A 
ATOM     13  C   LIG A   1     -13.813   7.748 127.842  0.00  0.00    +0.001 A 
ATOM     14  C   LIG A   1     -13.591   9.032 128.329  0.00  0.00    +0.000 A 
ATOM     15  C   LIG A   1     -12.542   9.268 129.216  0.00  0.00    +0.001 A 
ATOM     16  C   LIG A   1     -11.720   8.214 129.621  0.00  0.00    +0.008 A 
ENDBRANCH  10  11
ENDBRANCH   5   9
BRANCH   6  17
ATOM     17  O   LIG A   1      -9.951   4.661 133.262  0.00  0.00    -0.386 OA
ATOM     18  H   LIG A   1      -9.392   5.377 133.627  0.00  0.00    +0.210 HD
ENDBRANCH   6  17
BRANCH   3  19
ATOM     19  C   LIG A   1      -8.437   1.612 128.740  0.00  0.00    +0.058 C 
BRANCH  19  20
ATOM     20  C   LIG A   1      -7.783   0.254 128.874  0.00  0.00    -0.025 C 
ATOM     21  C   LIG A   1      -7.271  -0.431 127.834  0.00  0.00    +0.013 C 
BRANCH  21  22
ATOM     22  C   LIG A   1      -6.652  -1.806 127.923  0.00  0.00    +0.203 C 
ATOM     23  O   LIG A   1      -6.758  -2.450 126.632  0.00  0.00    -0.454 OA
ATOM     24  C   LIG A   1      -7.860  -3.148 126.276  0.00  0.00    +0.332 C 
ATOM     25  C   LIG A   1      -8.805  -3.513 127.348  0.00  0.00    +0.087 C 
ATOM     26  C   LIG A   1      -8.519  -3.316 128.640  0.00  0.00    -0.016 C 
ATOM     27  C   LIG A   1      -7.240  -2.664 129.052  0.00  0.00    +0.076 C 
ATOM     28  O   LIG A   1      -8.071  -3.510 125.121  0.00  0.00    -0.246 OA
ENDBRANCH  21  22
ENDBRANCH  19  20
ENDBRANCH   3  19
TORSDOF 7
ENDMDL
MODEL 4
REMARK VINA RESULT:      -7.9      3.042      6.349
REMARK  Name = NuBBE_584
REMARK  7 active torsions:
REMARK  status: ('A' for Active; 'I' for Inactive)
REMARK    1  A    between atoms: O_1  and  C_2
REMARK    2  A    between atoms: C_5  and  C_21
REMARK    3  A    between atoms: C_8  and  C_10
REMARK    4  A    between atoms: C_11  and  C_12
REMARK    5  A    between atoms: C_18  and  O_20
REMARK    6  A    between atoms: C_21  and  C_22
REMARK    7  A    between atoms: C_23  and  C_24
REMARK                            x       y       z     vdW  Elec       q    Type
REMARK                         _______ _______ _______ _____ _____    ______ ____
ROOT
ATOM      1  C   LIG A   1      -9.163   0.288 125.627  0.00  0.00    +0.148 C 
ATOM      2  C   LIG A   1      -8.941   1.225 126.813  0.00  0.00    +0.066 C 
ATOM      3  C   LIG A   1      -7.612   1.975 126.661  0.00  0.00    +0.125 C 
ATOM      4  O   LIG A   1      -7.645   2.700 125.432  0.00  0.00    -0.366 OA
ATOM      5  C   LIG A   1      -7.692   1.852 124.282  0.00  0.00    +0.172 C 
ATOM      6  C   LIG A   1      -8.986   1.012 124.281  0.00  0.00    +0.175 C 
ENDROOT
BRANCH   1   7
ATOM      7  O   LIG A   1      -8.221  -0.797 125.686  0.00  0.00    -0.389 OA
ATOM      8  H   LIG A   1      -8.655  -1.528 126.161  0.00  0.00    +0.210 HD
ENDBRANCH   1   7
BRANCH   5   9
ATOM      9  C   LIG A   1      -7.586   2.718 123.048  0.00  0.00    +0.007 C 
ATOM     10  C   LIG A   1      -6.465   2.929 122.337  0.00  0.00    +0.006 C 
BRANCH  10  11
ATOM     11  C   LIG A   1      -6.383   3.752 121.124  0.00  0.00    -0.025 A 
ATOM     12  C   LIG A   1      -5.270   4.552 120.839  0.00  0.00    +0.008 A 
ATOM     13  C   LIG A   1      -5.241   5.348 119.692  0.00  0.00    +0.001 A 
ATOM     14  C   LIG A   1      -6.330   5.362 118.825  0.00  0.00    +0.000 A 
ATOM     15  C   LIG A   1      -7.453   4.586 119.108  0.00  0.00    +0.001 A 
ATOM     16  C   LIG A   1      -7.481   3.789 120.254  0.00  0.00    +0.008 A 
ENDBRANCH  10  11
ENDBRANCH   5   9
BRANCH   6  17
ATOM     17  O   LIG A   1      -8.965   0.027 123.237  0.00  0.00    -0.386 OA
ATOM     18  H   LIG A   1      -9.888  -0.017 122.913  0.00  0.00    +0.210 HD
ENDBRANCH   6  17
BRANCH   3  19
ATOM     19  C   LIG A   1      -7.403   2.992 127.798  0.00  0.00    +0.058 C 
BRANCH  19  20
ATOM     20  C   LIG A   1      -8.544   2.992 128.791  0.00  0.00    -0.025 C 
ATOM     21  C   LIG A   1      -8.718   3.945 129.725  0.00  0.00    +0.013 C 
BRANCH  21  22
ATOM     22  C   LIG A   1      -9.818   3.954 130.761  0.00  0.00    +0.203 C 
ATOM     23  O   LIG A   1     -11.069   4.273 130.110  0.00  0.00    -0.454 OA
ATOM     24  C   LIG A   1     -11.464   5.552 129.917  0.00  0.00    +0.332 C 
ATOM     25  C   LIG A   1     -10.753   6.600 130.674  0.00  0.00    +0.087 C 
ATOM     26  C   LIG A   1      -9.870   6.302 131.634  0.00  0.00    -0.016 C 
ATOM     27  C   LIG A   1      -9.526   4.884 131.947  0.00  0.00    +0.076 C 
ATOM     28  O   LIG A   1     -12.397   5.854 129.178  0.00  0.00    -0.246 OA
ENDBRANCH  21  22
ENDBRANCH  19  20
ENDBRANCH   3  19
TORSDOF 7
ENDMDL
MODEL 5
REMARK VINA RESULT:      -7.9      4.919      7.626
REMARK  Name = NuBBE_584
REMARK  7 active torsions:
REMARK  status: ('A' for Active; 'I' for Inactive)
REMARK    1  A    between atoms: O_1  and  C_2
REMARK    2  A    between atoms: C_5  and  C_21
REMARK    3  A    between atoms: C_8  and  C_10
REMARK    4  A    between atoms: C_11  and  C_12
REMARK    5  A    between atoms: C_18  and  O_20
REMARK    6  A    between atoms: C_21  and  C_22
REMARK    7  A    between atoms: C_23  and  C_24
REMARK                            x       y       z     vdW  Elec       q    Type
REMARK                         _______ _______ _______ _____ _____    ______ ____
ROOT
ATOM      1  C   LIG A   1      -8.299   3.214 132.647  0.00  0.00    +0.148 C 
ATOM      2  C   LIG A   1      -7.667   2.460 131.480  0.00  0.00    +0.066 C 
ATOM      3  C   LIG A   1      -8.706   2.201 130.383  0.00  0.00    +0.125 C 
ATOM      4  O   LIG A   1      -9.231   3.459 129.958  0.00  0.00    -0.366 OA
ATOM      5  C   LIG A   1      -9.972   4.131 130.979  0.00  0.00    +0.172 C 
ATOM      6  C   LIG A   1      -9.060   4.466 132.178  0.00  0.00    +0.175 C 
ENDROOT
BRANCH   1   7
ATOM      7  O   LIG A   1      -9.224   2.353 133.335  0.00  0.00    -0.389 OA
ATOM      8  H   LIG A   1      -8.695   1.704 133.833  0.00  0.00    +0.210 HD
ENDBRANCH   1   7
BRANCH   5   9
ATOM      9  C   LIG A   1     -10.588   5.373 130.380  0.00  0.00    +0.007 C 
ATOM     10  C   LIG A   1     -11.862   5.491 129.966  0.00  0.00    +0.006 C 
BRANCH  10  11
ATOM     11  C   LIG A   1     -12.455   6.713 129.410  0.00  0.00    -0.025 A 
ATOM     12  C   LIG A   1     -13.316   6.690 128.306  0.00  0.00    +0.008 A 
ATOM     13  C   LIG A   1     -13.834   7.876 127.784  0.00  0.00    +0.001 A 
ATOM     14  C   LIG A   1     -13.487   9.099 128.351  0.00  0.00    +0.000 A 
ATOM     15  C   LIG A   1     -12.615   9.138 129.438  0.00  0.00    +0.001 A 
ATOM     16  C   LIG A   1     -12.098   7.951 129.961  0.00  0.00    +0.008 A 
ENDBRANCH  10  11
ENDBRANCH   5   9
BRANCH   6  17
ATOM     17  O   LIG A   1      -9.822   4.974 133.284  0.00  0.00    -0.386 OA
ATOM     18  H   LIG A   1      -9.633   5.935 133.301  0.00  0.00    +0.210 HD
ENDBRANCH   6  17
BRANCH   3  19
ATOM     19  C   LIG A   1      -8.075   1.519 129.155  0.00  0.00    +0.058 C 
BRANCH  19  20
ATOM     20  C   LIG A   1      -8.376   2.254 127.867  0.00  0.00    -0.025 C 
ATOM     21  C   LIG A   1      -7.690   2.063 126.725  0.00  0.00    +0.013 C 
BRANCH  21  22
ATOM     22  C   LIG A   1      -7.933   2.810 125.434  0.00  0.00    +0.203 C 
ATOM     23  O   LIG A   1      -9.308   2.615 125.033  0.00  0.00    -0.454 OA
ATOM     24  C   LIG A   1      -9.689   1.548 124.296  0.00  0.00    +0.332 C 
ATOM     25  C   LIG A   1      -8.626   0.767 123.637  0.00  0.00    +0.087 C 
ATOM     26  C   LIG A   1      -7.353   1.180 123.621  0.00  0.00    -0.016 C 
ATOM     27  C   LIG A   1      -6.944   2.433 124.322  0.00  0.00    +0.076 C 
ATOM     28  O   LIG A   1     -10.867   1.240 124.135  0.00  0.00    -0.246 OA
ENDBRANCH  21  22
ENDBRANCH  19  20
ENDBRANCH   3  19
TORSDOF 7
ENDMDL
MODEL 6
REMARK VINA RESULT:      -7.8      4.003      7.109
REMARK  Name = NuBBE_584
REMARK  7 active torsions:
REMARK  status: ('A' for Active; 'I' for Inactive)
REMARK    1  A    between atoms: O_1  and  C_2
REMARK    2  A    between atoms: C_5  and  C_21
REMARK    3  A    between atoms: C_8  and  C_10
REMARK    4  A    between atoms: C_11  and  C_12
REMARK    5  A    between atoms: C_18  and  O_20
REMARK    6  A    between atoms: C_21  and  C_22
REMARK    7  A    between atoms: C_23  and  C_24
REMARK                            x       y       z     vdW  Elec       q    Type
REMARK                         _______ _______ _______ _____ _____    ______ ____
ROOT
ATOM      1  C   LIG A   1      -7.642   3.064 127.148  0.00  0.00    +0.148 C 
ATOM      2  C   LIG A   1      -6.285   3.290 127.811  0.00  0.00    +0.066 C 
ATOM      3  C   LIG A   1      -5.155   2.791 126.903  0.00  0.00    +0.125 C 
ATOM      4  O   LIG A   1      -5.241   3.484 125.659  0.00  0.00    -0.366 OA
ATOM      5  C   LIG A   1      -6.429   3.177 124.926  0.00  0.00    +0.172 C 
ATOM      6  C   LIG A   1      -7.680   3.619 125.714  0.00  0.00    +0.175 C 
ENDROOT
BRANCH   1   7
ATOM      7  O   LIG A   1      -7.926   1.655 127.096  0.00  0.00    -0.389 OA
ATOM      8  H   LIG A   1      -8.743   1.546 126.577  0.00  0.00    +0.210 HD
ENDBRANCH   1   7
BRANCH   5   9
ATOM      9  C   LIG A   1      -6.346   3.857 123.579  0.00  0.00    +0.007 C 
ATOM     10  C   LIG A   1      -6.467   3.246 122.388  0.00  0.00    +0.006 C 
BRANCH  10  11
ATOM     11  C   LIG A   1      -6.412   3.923 121.087  0.00  0.00    -0.025 A 
ATOM     12  C   LIG A   1      -5.300   4.670 120.681  0.00  0.00    +0.008 A 
ATOM     13  C   LIG A   1      -5.297   5.329 119.450  0.00  0.00    +0.001 A 
ATOM     14  C   LIG A   1      -6.411   5.259 118.618  0.00  0.00    +0.000 A 
ATOM     15  C   LIG A   1      -7.533   4.536 119.019  0.00  0.00    +0.001 A 
ATOM     16  C   LIG A   1      -7.535   3.875 120.250  0.00  0.00    +0.008 A 
ENDBRANCH  10  11
ENDBRANCH   5   9
BRANCH   6  17
ATOM     17  O   LIG A   1      -8.883   3.155 125.081  0.00  0.00    -0.386 OA
ATOM     18  H   LIG A   1      -9.609   3.608 125.556  0.00  0.00    +0.210 HD
ENDBRANCH   6  17
BRANCH   3  19
ATOM     19  C   LIG A   1      -3.770   3.085 127.509  0.00  0.00    +0.058 C 
BRANCH  19  20
ATOM     20  C   LIG A   1      -3.608   4.537 127.901  0.00  0.00    -0.025 C 
ATOM     21  C   LIG A   1      -2.419   5.104 128.178  0.00  0.00    +0.013 C 
BRANCH  21  22
ATOM     22  C   LIG A   1      -2.223   6.537 128.616  0.00  0.00    +0.203 C 
ATOM     23  O   LIG A   1      -1.565   6.546 129.903  0.00  0.00    -0.454 OA
ATOM     24  C   LIG A   1      -2.263   6.460 131.058  0.00  0.00    +0.332 C 
ATOM     25  C   LIG A   1      -3.718   6.689 130.987  0.00  0.00    +0.087 C 
ATOM     26  C   LIG A   1      -4.311   7.126 129.870  0.00  0.00    -0.016 C 
ATOM     27  C   LIG A   1      -3.524   7.352 128.621  0.00  0.00    +0.076 C 
ATOM     28  O   LIG A   1      -1.728   6.240 132.142  0.00  0.00    -0.246 OA
ENDBRANCH  21  22
ENDBRANCH  19  20
ENDBRANCH   3  19
TORSDOF 7
ENDMDL
MODEL 7
REMARK VINA RESULT:      -7.8      4.165      8.459
REMARK  Name = NuBBE_584
REMARK  7 active torsions:
REMARK  status: ('A' for Active; 'I' for Inactive)
REMARK    1  A    between atoms: O_1  and  C_2
REMARK    2  A    between atoms: C_5  and  C_21
REMARK    3  A    between atoms: C_8  and  C_10
REMARK    4  A    between atoms: C_11  and  C_12
REMARK    5  A    between atoms: C_18  and  O_20
REMARK    6  A    between atoms: C_21  and  C_22
REMARK    7  A    between atoms: C_23  and  C_24
REMARK                            x       y       z     vdW  Elec       q    Type
REMARK                         _______ _______ _______ _____ _____    ______ ____
ROOT
ATOM      1  C   LIG A   1      -6.028   4.670 124.231  0.00  0.00    +0.148 C 
ATOM      2  C   LIG A   1      -4.713   4.338 124.935  0.00  0.00    +0.066 C 
ATOM      3  C   LIG A   1      -4.981   3.576 126.238  0.00  0.00    +0.125 C 
ATOM      4  O   LIG A   1      -5.710   2.391 125.923  0.00  0.00    -0.366 OA
ATOM      5  C   LIG A   1      -7.016   2.655 125.407  0.00  0.00    +0.172 C 
ATOM      6  C   LIG A   1      -6.926   3.431 124.076  0.00  0.00    +0.175 C 
ENDROOT
BRANCH   1   7
ATOM      7  O   LIG A   1      -6.746   5.658 124.990  0.00  0.00    -0.389 OA
ATOM      8  H   LIG A   1      -7.641   5.716 124.611  0.00  0.00    +0.210 HD
ENDBRANCH   1   7
BRANCH   5   9
ATOM      9  C   LIG A   1      -7.737   1.337 125.239  0.00  0.00    +0.007 C 
ATOM     10  C   LIG A   1      -7.261   0.267 124.580  0.00  0.00    +0.006 C 
BRANCH  10  11
ATOM     11  C   LIG A   1      -7.960  -1.017 124.448  0.00  0.00    -0.025 A 
ATOM     12  C   LIG A   1      -8.179  -1.623 123.205  0.00  0.00    +0.008 A 
ATOM     13  C   LIG A   1      -8.878  -2.829 123.115  0.00  0.00    +0.001 A 
ATOM     14  C   LIG A   1      -9.377  -3.433 124.266  0.00  0.00    +0.000 A 
ATOM     15  C   LIG A   1      -9.184  -2.830 125.507  0.00  0.00    +0.001 A 
ATOM     16  C   LIG A   1      -8.483  -1.625 125.597  0.00  0.00    +0.008 A 
ENDBRANCH  10  11
ENDBRANCH   5   9
BRANCH   6  17
ATOM     17  O   LIG A   1      -8.223   3.864 123.639  0.00  0.00    -0.386 OA
ATOM     18  H   LIG A   1      -8.137   4.831 123.512  0.00  0.00    +0.210 HD
ENDBRANCH   6  17
BRANCH   3  19
ATOM     19  C   LIG A   1      -3.670   3.152 126.925  0.00  0.00    +0.058 C 
BRANCH  19  20
ATOM     20  C   LIG A   1      -2.841   4.336 127.370  0.00  0.00    -0.025 C 
ATOM     21  C   LIG A   1      -3.335   5.363 128.086  0.00  0.00    +0.013 C 
BRANCH  21  22
ATOM     22  C   LIG A   1      -2.548   6.582 128.509  0.00  0.00    +0.203 C 
ATOM     23  O   LIG A   1      -1.772   6.252 129.683  0.00  0.00    -0.454 OA
ATOM     24  C   LIG A   1      -2.288   6.355 130.928  0.00  0.00    +0.332 C 
ATOM     25  C   LIG A   1      -3.540   7.119 131.080  0.00  0.00    +0.087 C 
ATOM     26  C   LIG A   1      -4.064   7.824 130.070  0.00  0.00    -0.016 C 
ATOM     27  C   LIG A   1      -3.425   7.824 128.721  0.00  0.00    +0.076 C 
ATOM     28  O   LIG A   1      -1.739   5.874 131.916  0.00  0.00    -0.246 OA
ENDBRANCH  21  22
ENDBRANCH  19  20
ENDBRANCH   3  19
TORSDOF 7
ENDMDL
MODEL 8
REMARK VINA RESULT:      -7.7      3.298      7.720
REMARK  Name = NuBBE_584
REMARK  7 active torsions:
REMARK  status: ('A' for Active; 'I' for Inactive)
REMARK    1  A    between atoms: O_1  and  C_2
REMARK    2  A    between atoms: C_5  and  C_21
REMARK    3  A    between atoms: C_8  and  C_10
REMARK    4  A    between atoms: C_11  and  C_12
REMARK    5  A    between atoms: C_18  and  O_20
REMARK    6  A    between atoms: C_21  and  C_22
REMARK    7  A    between atoms: C_23  and  C_24
REMARK                            x       y       z     vdW  Elec       q    Type
REMARK                         _______ _______ _______ _____ _____    ______ ____
ROOT
ATOM      1  C   LIG A   1      -5.930   4.707 125.032  0.00  0.00    +0.148 C 
ATOM      2  C   LIG A   1      -5.489   4.486 126.478  0.00  0.00    +0.066 C 
ATOM      3  C   LIG A   1      -6.652   3.942 127.315  0.00  0.00    +0.125 C 
ATOM      4  O   LIG A   1      -7.100   2.724 126.722  0.00  0.00    -0.366 OA
ATOM      5  C   LIG A   1      -7.671   2.909 125.424  0.00  0.00    +0.172 C 
ATOM      6  C   LIG A   1      -6.616   3.463 124.444  0.00  0.00    +0.175 C 
ENDROOT
BRANCH   1   7
ATOM      7  O   LIG A   1      -6.855   5.807 124.973  0.00  0.00    -0.389 OA
ATOM      8  H   LIG A   1      -7.752   5.429 125.013  0.00  0.00    +0.210 HD
ENDBRANCH   1   7
BRANCH   5   9
ATOM      9  C   LIG A   1      -8.228   1.584 124.957  0.00  0.00    +0.007 C 
ATOM     10  C   LIG A   1      -7.671   0.381 125.181  0.00  0.00    +0.006 C 
BRANCH  10  11
ATOM     11  C   LIG A   1      -8.237  -0.901 124.745  0.00  0.00    -0.025 A 
ATOM     12  C   LIG A   1      -8.306  -1.266 123.395  0.00  0.00    +0.008 A 
ATOM     13  C   LIG A   1      -8.883  -2.479 123.015  0.00  0.00    +0.001 A 
ATOM     14  C   LIG A   1      -9.408  -3.334 123.980  0.00  0.00    +0.000 A 
ATOM     15  C   LIG A   1      -9.364  -2.974 125.326  0.00  0.00    +0.001 A 
ATOM     16  C   LIG A   1      -8.786  -1.761 125.705  0.00  0.00    +0.008 A 
ENDBRANCH  10  11
ENDBRANCH   5   9
BRANCH   6  17
ATOM     17  O   LIG A   1      -7.214   3.827 123.190  0.00  0.00    -0.386 OA
ATOM     18  H   LIG A   1      -6.460   3.956 122.579  0.00  0.00    +0.210 HD
ENDBRANCH   6  17
BRANCH   3  19
ATOM     19  C   LIG A   1      -6.213   3.626 128.757  0.00  0.00    +0.058 C 
BRANCH  19  20
ATOM     20  C   LIG A   1      -7.177   4.172 129.788  0.00  0.00    -0.025 C 
ATOM     21  C   LIG A   1      -8.512   4.186 129.623  0.00  0.00    +0.013 C 
BRANCH  21  22
ATOM     22  C   LIG A   1      -9.501   4.762 130.609  0.00  0.00    +0.203 C 
ATOM     23  O   LIG A   1     -10.746   5.024 129.922  0.00  0.00    -0.454 OA
ATOM     24  C   LIG A   1     -10.966   6.189 129.271  0.00  0.00    +0.332 C 
ATOM     25  C   LIG A   1     -10.045   7.306 129.554  0.00  0.00    +0.087 C 
ATOM     26  C   LIG A   1      -9.132   7.239 130.529  0.00  0.00    -0.016 C 
ATOM     27  C   LIG A   1      -8.971   6.000 131.346  0.00  0.00    +0.076 C 
ATOM     28  O   LIG A   1     -11.908   6.350 128.500  0.00  0.00    -0.246 OA
ENDBRANCH  21  22
ENDBRANCH  19  20
ENDBRANCH   3  19
TORSDOF 7
ENDMDL
MODEL 9
REMARK VINA RESULT:      -7.7      4.362      7.963
REMARK  Name = NuBBE_584
REMARK  7 active torsions:
REMARK  status: ('A' for Active; 'I' for Inactive)
REMARK    1  A    between atoms: O_1  and  C_2
REMARK    2  A    between atoms: C_5  and  C_21
REMARK    3  A    between atoms: C_8  and  C_10
REMARK    4  A    between atoms: C_11  and  C_12
REMARK    5  A    between atoms: C_18  and  O_20
REMARK    6  A    between atoms: C_21  and  C_22
REMARK    7  A    between atoms: C_23  and  C_24
REMARK                            x       y       z     vdW  Elec       q    Type
REMARK                         _______ _______ _______ _____ _____    ______ ____
ROOT
ATOM      1  C   LIG A   1      -4.278   4.005 131.009  0.00  0.00    +0.148 C 
ATOM      2  C   LIG A   1      -5.355   4.908 131.606  0.00  0.00    +0.066 C 
ATOM      3  C   LIG A   1      -5.725   6.023 130.620  0.00  0.00    +0.125 C 
ATOM      4  O   LIG A   1      -6.174   5.419 129.408  0.00  0.00    -0.366 OA
ATOM      5  C   LIG A   1      -5.148   4.691 128.730  0.00  0.00    +0.172 C 
ATOM      6  C   LIG A   1      -4.653   3.515 129.600  0.00  0.00    +0.175 C 
ENDROOT
BRANCH   1   7
ATOM      7  O   LIG A   1      -3.036   4.725 130.922  0.00  0.00    -0.389 OA
ATOM      8  H   LIG A   1      -2.324   4.063 130.852  0.00  0.00    +0.210 HD
ENDBRANCH   1   7
BRANCH   5   9
ATOM      9  C   LIG A   1      -5.698   4.214 127.406  0.00  0.00    +0.007 C 
ATOM     10  C   LIG A   1      -5.039   4.235 126.234  0.00  0.00    +0.006 C 
BRANCH  10  11
ATOM     11  C   LIG A   1      -5.577   3.744 124.960  0.00  0.00    -0.025 A 
ATOM     12  C   LIG A   1      -5.374   4.423 123.753  0.00  0.00    +0.008 A 
ATOM     13  C   LIG A   1      -5.930   3.943 122.565  0.00  0.00    +0.001 A 
ATOM     14  C   LIG A   1      -6.704   2.787 122.574  0.00  0.00    +0.000 A 
ATOM     15  C   LIG A   1      -6.931   2.112 123.773  0.00  0.00    +0.001 A 
ATOM     16  C   LIG A   1      -6.374   2.592 124.960  0.00  0.00    +0.008 A 
ENDBRANCH  10  11
ENDBRANCH   5   9
BRANCH   6  17
ATOM     17  O   LIG A   1      -3.502   2.887 129.017  0.00  0.00    -0.386 OA
ATOM     18  H   LIG A   1      -2.863   3.615 128.872  0.00  0.00    +0.210 HD
ENDBRANCH   6  17
BRANCH   3  19
ATOM     19  C   LIG A   1      -6.871   6.898 131.160  0.00  0.00    +0.058 C 
BRANCH  19  20
ATOM     20  C   LIG A   1      -8.233   6.386 130.747  0.00  0.00    -0.025 C 
ATOM     21  C   LIG A   1      -9.177   7.158 130.178  0.00  0.00    +0.013 C 
BRANCH  21  22
ATOM     22  C   LIG A   1     -10.562   6.692 129.794  0.00  0.00    +0.203 C 
ATOM     23  O   LIG A   1     -10.531   6.211 128.430  0.00  0.00    -0.454 OA
ATOM     24  C   LIG A   1     -10.698   7.045 127.379  0.00  0.00    +0.332 C 
ATOM     25  C   LIG A   1     -11.236   8.389 127.660  0.00  0.00    +0.087 C 
ATOM     26  C   LIG A   1     -11.699   8.725 128.870  0.00  0.00    -0.016 C 
ATOM     27  C   LIG A   1     -11.642   7.762 130.009  0.00  0.00    +0.076 C 
ATOM     28  O   LIG A   1     -10.455   6.710 126.222  0.00  0.00    -0.246 OA
ENDBRANCH  21  22
ENDBRANCH  19  20
ENDBRANCH   3  19
TORSDOF 7
ENDMDL
