MODEL 1
REMARK VINA RESULT:      -6.4      0.000      0.000
REMARK  Name = NuBBE_1617
REMARK  2 active torsions:
REMARK  status: ('A' for Active; 'I' for Inactive)
REMARK    1  A    between atoms: O_1  and  C_2
REMARK    2  A    between atoms: O_1  and  C_3
REMARK                            x       y       z     vdW  Elec       q    Type
REMARK                         _______ _______ _______ _____ _____    ______ ____
ROOT
ATOM      1  C   LIG A   1      -8.702   5.525 133.077  0.00  0.00    +0.164 A 
ATOM      2  C   LIG A   1      -7.619   6.050 132.357  0.00  0.00    +0.180 A 
ATOM      3  C   LIG A   1      -7.735   6.786 131.183  0.00  0.00    +0.067 A 
ATOM      4  C   LIG A   1      -9.023   7.025 130.681  0.00  0.00    +0.150 A 
ATOM      5  C   LIG A   1     -10.142   6.530 131.365  0.00  0.00    +0.022 A 
ATOM      6  C   LIG A   1      -9.976   5.791 132.547  0.00  0.00    +0.061 A 
ATOM      7  C   LIG A   1     -11.468   6.800 130.826  0.00  0.00    +0.019 A 
ATOM      8  C   LIG A   1     -11.596   7.502 129.696  0.00  0.00    +0.092 A 
ATOM      9  C   LIG A   1     -10.438   8.029 128.956  0.00  0.00    +0.337 A 
ATOM     10  O   LIG A   1     -10.594   8.667 127.922  0.00  0.00    -0.245 OA
ATOM     11  O   LIG A   1      -9.185   7.767 129.489  0.00  0.00    -0.421 OA
ATOM     12  C   LIG A   1      -6.410   7.115 130.790  0.00  0.00    +0.053 A 
ATOM     13  C   LIG A   1      -5.578   6.566 131.738  0.00  0.00    +0.196 A 
ATOM     14  O   LIG A   1      -6.299   5.920 132.690  0.00  0.00    -0.459 OA
ENDROOT
BRANCH   1  15
ATOM     15  O   LIG A   1      -8.441   4.822 134.218  0.00  0.00    -0.491 OA
ATOM     16  C   LIG A   1      -8.262   3.419 134.088  0.00  0.00    +0.277 C 
ENDBRANCH   1  15
TORSDOF 1
ENDMDL
MODEL 2
REMARK VINA RESULT:      -6.3      2.143      3.474
REMARK  Name = NuBBE_1617
REMARK  2 active torsions:
REMARK  status: ('A' for Active; 'I' for Inactive)
REMARK    1  A    between atoms: O_1  and  C_2
REMARK    2  A    between atoms: O_1  and  C_3
REMARK                            x       y       z     vdW  Elec       q    Type
REMARK                         _______ _______ _______ _____ _____    ______ ____
ROOT
ATOM      1  C   LIG A   1      -8.529   6.252 131.051  0.00  0.00    +0.164 A 
ATOM      2  C   LIG A   1      -9.252   5.052 131.007  0.00  0.00    +0.180 A 
ATOM      3  C   LIG A   1     -10.467   4.887 130.351  0.00  0.00    +0.067 A 
ATOM      4  C   LIG A   1     -11.009   5.996 129.683  0.00  0.00    +0.150 A 
ATOM      5  C   LIG A   1     -10.323   7.218 129.687  0.00  0.00    +0.022 A 
ATOM      6  C   LIG A   1      -9.099   7.337 130.364  0.00  0.00    +0.061 A 
ATOM      7  C   LIG A   1     -10.905   8.350 128.979  0.00  0.00    +0.019 A 
ATOM      8  C   LIG A   1     -12.074   8.209 128.347  0.00  0.00    +0.092 A 
ATOM      9  C   LIG A   1     -12.817   6.939 128.330  0.00  0.00    +0.337 A 
ATOM     10  O   LIG A   1     -13.887   6.848 127.742  0.00  0.00    -0.245 OA
ATOM     11  O   LIG A   1     -12.244   5.872 129.006  0.00  0.00    -0.421 OA
ATOM     12  C   LIG A   1     -10.849   3.535 130.560  0.00  0.00    +0.053 A 
ATOM     13  C   LIG A   1      -9.855   2.965 131.320  0.00  0.00    +0.196 A 
ATOM     14  O   LIG A   1      -8.885   3.874 131.596  0.00  0.00    -0.459 OA
ENDROOT
BRANCH   1  15
ATOM     15  O   LIG A   1      -7.345   6.269 131.732  0.00  0.00    -0.491 OA
ATOM     16  C   LIG A   1      -6.236   6.879 131.087  0.00  0.00    +0.277 C 
ENDBRANCH   1  15
TORSDOF 1
ENDMDL
MODEL 3
REMARK VINA RESULT:      -6.3      8.674      9.834
REMARK  Name = NuBBE_1617
REMARK  2 active torsions:
REMARK  status: ('A' for Active; 'I' for Inactive)
REMARK    1  A    between atoms: O_1  and  C_2
REMARK    2  A    between atoms: O_1  and  C_3
REMARK                            x       y       z     vdW  Elec       q    Type
REMARK                         _______ _______ _______ _____ _____    ______ ____
ROOT
ATOM      1  C   LIG A   1      -6.394   3.035 124.749  0.00  0.00    +0.164 A 
ATOM      2  C   LIG A   1      -7.635   2.582 124.279  0.00  0.00    +0.180 A 
ATOM      3  C   LIG A   1      -8.090   2.743 122.974  0.00  0.00    +0.067 A 
ATOM      4  C   LIG A   1      -7.252   3.401 122.062  0.00  0.00    +0.150 A 
ATOM      5  C   LIG A   1      -5.997   3.867 122.477  0.00  0.00    +0.022 A 
ATOM      6  C   LIG A   1      -5.580   3.683 123.804  0.00  0.00    +0.061 A 
ATOM      7  C   LIG A   1      -5.145   4.540 121.507  0.00  0.00    +0.019 A 
ATOM      8  C   LIG A   1      -5.569   4.706 120.250  0.00  0.00    +0.092 A 
ATOM      9  C   LIG A   1      -6.884   4.231 119.789  0.00  0.00    +0.337 A 
ATOM     10  O   LIG A   1      -7.240   4.403 118.631  0.00  0.00    -0.245 OA
ATOM     11  O   LIG A   1      -7.678   3.588 120.727  0.00  0.00    -0.421 OA
ATOM     12  C   LIG A   1      -9.380   2.148 122.930  0.00  0.00    +0.053 A 
ATOM     13  C   LIG A   1      -9.628   1.667 124.194  0.00  0.00    +0.196 A 
ATOM     14  O   LIG A   1      -8.579   1.924 125.017  0.00  0.00    -0.459 OA
ENDROOT
BRANCH   1  15
ATOM     15  O   LIG A   1      -6.075   2.805 126.057  0.00  0.00    -0.491 OA
ATOM     16  C   LIG A   1      -4.917   2.024 126.312  0.00  0.00    +0.277 C 
ENDBRANCH   1  15
TORSDOF 1
ENDMDL
MODEL 4
REMARK VINA RESULT:      -6.1      2.123      2.536
REMARK  Name = NuBBE_1617
REMARK  2 active torsions:
REMARK  status: ('A' for Active; 'I' for Inactive)
REMARK    1  A    between atoms: O_1  and  C_2
REMARK    2  A    between atoms: O_1  and  C_3
REMARK                            x       y       z     vdW  Elec       q    Type
REMARK                         _______ _______ _______ _____ _____    ______ ____
ROOT
ATOM      1  C   LIG A   1      -9.674   5.597 131.628  0.00  0.00    +0.164 A 
ATOM      2  C   LIG A   1      -8.965   4.908 130.633  0.00  0.00    +0.180 A 
ATOM      3  C   LIG A   1      -9.021   5.206 129.276  0.00  0.00    +0.067 A 
ATOM      4  C   LIG A   1      -9.840   6.271 128.870  0.00  0.00    +0.150 A 
ATOM      5  C   LIG A   1     -10.564   6.998 129.824  0.00  0.00    +0.022 A 
ATOM      6  C   LIG A   1     -10.477   6.661 131.184  0.00  0.00    +0.061 A 
ATOM      7  C   LIG A   1     -11.401   8.102 129.375  0.00  0.00    +0.019 A 
ATOM      8  C   LIG A   1     -11.469   8.399 128.074  0.00  0.00    +0.092 A 
ATOM      9  C   LIG A   1     -10.723   7.649 127.050  0.00  0.00    +0.337 A 
ATOM     10  O   LIG A   1     -10.811   7.948 125.866  0.00  0.00    -0.245 OA
ATOM     11  O   LIG A   1      -9.927   6.604 127.499  0.00  0.00    -0.421 OA
ATOM     12  C   LIG A   1      -8.165   4.274 128.631  0.00  0.00    +0.053 A 
ATOM     13  C   LIG A   1      -7.646   3.475 129.623  0.00  0.00    +0.196 A 
ATOM     14  O   LIG A   1      -8.123   3.851 130.837  0.00  0.00    -0.459 OA
ENDROOT
BRANCH   1  15
ATOM     15  O   LIG A   1      -9.521   5.197 132.925  0.00  0.00    -0.491 OA
ATOM     16  C   LIG A   1      -8.469   5.796 133.668  0.00  0.00    +0.277 C 
ENDBRANCH   1  15
TORSDOF 1
ENDMDL
MODEL 5
REMARK VINA RESULT:      -6.1      8.456      9.276
REMARK  Name = NuBBE_1617
REMARK  2 active torsions:
REMARK  status: ('A' for Active; 'I' for Inactive)
REMARK    1  A    between atoms: O_1  and  C_2
REMARK    2  A    between atoms: O_1  and  C_3
REMARK                            x       y       z     vdW  Elec       q    Type
REMARK                         _______ _______ _______ _____ _____    ______ ____
ROOT
ATOM      1  C   LIG A   1      -7.304   1.857 124.177  0.00  0.00    +0.164 A 
ATOM      2  C   LIG A   1      -6.451   2.658 124.951  0.00  0.00    +0.180 A 
ATOM      3  C   LIG A   1      -5.658   3.683 124.446  0.00  0.00    +0.067 A 
ATOM      4  C   LIG A   1      -5.714   3.939 123.067  0.00  0.00    +0.150 A 
ATOM      5  C   LIG A   1      -6.556   3.175 122.248  0.00  0.00    +0.022 A 
ATOM      6  C   LIG A   1      -7.338   2.149 122.803  0.00  0.00    +0.061 A 
ATOM      7  C   LIG A   1      -6.600   3.467 120.823  0.00  0.00    +0.019 A 
ATOM      8  C   LIG A   1      -5.841   4.446 120.321  0.00  0.00    +0.092 A 
ATOM      9  C   LIG A   1      -4.945   5.261 121.157  0.00  0.00    +0.337 A 
ATOM     10  O   LIG A   1      -4.262   6.149 120.662  0.00  0.00    -0.245 OA
ATOM     11  O   LIG A   1      -4.922   4.970 122.513  0.00  0.00    -0.421 OA
ATOM     12  C   LIG A   1      -4.958   4.225 125.557  0.00  0.00    +0.053 A 
ATOM     13  C   LIG A   1      -5.363   3.506 126.657  0.00  0.00    +0.196 A 
ATOM     14  O   LIG A   1      -6.266   2.556 126.301  0.00  0.00    -0.459 OA
ENDROOT
BRANCH   1  15
ATOM     15  O   LIG A   1      -8.029   0.887 124.808  0.00  0.00    -0.491 OA
ATOM     16  C   LIG A   1      -9.387   1.180 125.098  0.00  0.00    +0.277 C 
ENDBRANCH   1  15
TORSDOF 1
ENDMDL
MODEL 6
REMARK VINA RESULT:      -6.0      1.934      3.479
REMARK  Name = NuBBE_1617
REMARK  2 active torsions:
REMARK  status: ('A' for Active; 'I' for Inactive)
REMARK    1  A    between atoms: O_1  and  C_2
REMARK    2  A    between atoms: O_1  and  C_3
REMARK                            x       y       z     vdW  Elec       q    Type
REMARK                         _______ _______ _______ _____ _____    ______ ____
ROOT
ATOM      1  C   LIG A   1      -6.118   6.221 132.066  0.00  0.00    +0.164 A 
ATOM      2  C   LIG A   1      -6.715   5.595 133.170  0.00  0.00    +0.180 A 
ATOM      3  C   LIG A   1      -8.088   5.485 133.366  0.00  0.00    +0.067 A 
ATOM      4  C   LIG A   1      -8.937   6.033 132.392  0.00  0.00    +0.150 A 
ATOM      5  C   LIG A   1      -8.393   6.662 131.265  0.00  0.00    +0.022 A 
ATOM      6  C   LIG A   1      -7.001   6.751 131.109  0.00  0.00    +0.061 A 
ATOM      7  C   LIG A   1      -9.298   7.215 130.267  0.00  0.00    +0.019 A 
ATOM      8  C   LIG A   1     -10.620   7.121 130.442  0.00  0.00    +0.092 A 
ATOM      9  C   LIG A   1     -11.217   6.470 131.620  0.00  0.00    +0.337 A 
ATOM     10  O   LIG A   1     -12.433   6.404 131.748  0.00  0.00    -0.245 OA
ATOM     11  O   LIG A   1     -10.339   5.945 132.556  0.00  0.00    -0.421 OA
ATOM     12  C   LIG A   1      -8.257   4.794 134.595  0.00  0.00    +0.053 A 
ATOM     13  C   LIG A   1      -6.992   4.528 135.066  0.00  0.00    +0.196 A 
ATOM     14  O   LIG A   1      -6.053   5.009 134.211  0.00  0.00    -0.459 OA
ENDROOT
BRANCH   1  15
ATOM     15  O   LIG A   1      -4.754   6.254 132.000  0.00  0.00    -0.491 OA
ATOM     16  C   LIG A   1      -4.168   7.291 131.228  0.00  0.00    +0.277 C 
ENDBRANCH   1  15
TORSDOF 1
ENDMDL
MODEL 7
REMARK VINA RESULT:      -6.0      2.386      5.677
REMARK  Name = NuBBE_1617
REMARK  2 active torsions:
REMARK  status: ('A' for Active; 'I' for Inactive)
REMARK    1  A    between atoms: O_1  and  C_2
REMARK    2  A    between atoms: O_1  and  C_3
REMARK                            x       y       z     vdW  Elec       q    Type
REMARK                         _______ _______ _______ _____ _____    ______ ____
ROOT
ATOM      1  C   LIG A   1     -12.564   8.549 129.316  0.00  0.00    +0.164 A 
ATOM      2  C   LIG A   1     -11.782   8.036 128.271  0.00  0.00    +0.180 A 
ATOM      3  C   LIG A   1     -10.810   7.053 128.424  0.00  0.00    +0.067 A 
ATOM      4  C   LIG A   1     -10.595   6.534 129.710  0.00  0.00    +0.150 A 
ATOM      5  C   LIG A   1     -11.355   7.005 130.788  0.00  0.00    +0.022 A 
ATOM      6  C   LIG A   1     -12.326   7.999 130.587  0.00  0.00    +0.061 A 
ATOM      7  C   LIG A   1     -11.117   6.444 132.111  0.00  0.00    +0.019 A 
ATOM      8  C   LIG A   1     -10.183   5.502 132.275  0.00  0.00    +0.092 A 
ATOM      9  C   LIG A   1      -9.368   4.992 131.160  0.00  0.00    +0.337 A 
ATOM     10  O   LIG A   1      -8.520   4.129 131.348  0.00  0.00    -0.245 OA
ATOM     11  O   LIG A   1      -9.614   5.536 129.908  0.00  0.00    -0.421 OA
ATOM     12  C   LIG A   1     -10.263   6.834 127.131  0.00  0.00    +0.053 A 
ATOM     13  C   LIG A   1     -10.928   7.686 126.280  0.00  0.00    +0.196 A 
ATOM     14  O   LIG A   1     -11.849   8.417 126.960  0.00  0.00    -0.459 OA
ENDROOT
BRANCH   1  15
ATOM     15  O   LIG A   1     -13.486   9.513 129.021  0.00  0.00    -0.491 OA
ATOM     16  C   LIG A   1     -13.444  10.706 129.789  0.00  0.00    +0.277 C 
ENDBRANCH   1  15
TORSDOF 1
ENDMDL
MODEL 8
REMARK VINA RESULT:      -5.9      1.286      5.660
REMARK  Name = NuBBE_1617
REMARK  2 active torsions:
REMARK  status: ('A' for Active; 'I' for Inactive)
REMARK    1  A    between atoms: O_1  and  C_2
REMARK    2  A    between atoms: O_1  and  C_3
REMARK                            x       y       z     vdW  Elec       q    Type
REMARK                         _______ _______ _______ _____ _____    ______ ____
ROOT
ATOM      1  C   LIG A   1     -10.251   7.908 129.038  0.00  0.00    +0.164 A 
ATOM      2  C   LIG A   1     -11.319   7.589 129.889  0.00  0.00    +0.180 A 
ATOM      3  C   LIG A   1     -11.182   6.980 131.132  0.00  0.00    +0.067 A 
ATOM      4  C   LIG A   1      -9.887   6.663 131.570  0.00  0.00    +0.150 A 
ATOM      5  C   LIG A   1      -8.783   6.967 130.762  0.00  0.00    +0.022 A 
ATOM      6  C   LIG A   1      -8.970   7.583 129.515  0.00  0.00    +0.061 A 
ATOM      7  C   LIG A   1      -7.450   6.634 131.245  0.00  0.00    +0.019 A 
ATOM      8  C   LIG A   1      -7.301   6.044 132.435  0.00  0.00    +0.092 A 
ATOM      9  C   LIG A   1      -8.444   5.709 133.301  0.00  0.00    +0.337 A 
ATOM     10  O   LIG A   1      -8.270   5.167 134.384  0.00  0.00    -0.245 OA
ATOM     11  O   LIG A   1      -9.704   6.040 132.826  0.00  0.00    -0.421 OA
ATOM     12  C   LIG A   1     -12.497   6.838 131.650  0.00  0.00    +0.053 A 
ATOM     13  C   LIG A   1     -13.345   7.363 130.703  0.00  0.00    +0.196 A 
ATOM     14  O   LIG A   1     -12.642   7.820 129.635  0.00  0.00    -0.459 OA
ENDROOT
BRANCH   1  15
ATOM     15  O   LIG A   1     -10.533   8.510 127.845  0.00  0.00    -0.491 OA
ATOM     16  C   LIG A   1     -10.853   7.661 126.752  0.00  0.00    +0.277 C 
ENDBRANCH   1  15
TORSDOF 1
ENDMDL
MODEL 9
REMARK VINA RESULT:      -5.7     10.202     10.330
REMARK  Name = NuBBE_1617
REMARK  2 active torsions:
REMARK  status: ('A' for Active; 'I' for Inactive)
REMARK    1  A    between atoms: O_1  and  C_2
REMARK    2  A    between atoms: O_1  and  C_3
REMARK                            x       y       z     vdW  Elec       q    Type
REMARK                         _______ _______ _______ _____ _____    ______ ____
ROOT
ATOM      1  C   LIG A   1      -8.402  -2.618 125.673  0.00  0.00    +0.164 A 
ATOM      2  C   LIG A   1      -7.385  -2.559 124.710  0.00  0.00    +0.180 A 
ATOM      3  C   LIG A   1      -7.132  -1.459 123.897  0.00  0.00    +0.067 A 
ATOM      4  C   LIG A   1      -7.946  -0.326 124.050  0.00  0.00    +0.150 A 
ATOM      5  C   LIG A   1      -8.972  -0.328 125.004  0.00  0.00    +0.022 A 
ATOM      6  C   LIG A   1      -9.192  -1.462 125.802  0.00  0.00    +0.061 A 
ATOM      7  C   LIG A   1      -9.798   0.863 125.147  0.00  0.00    +0.019 A 
ATOM      8  C   LIG A   1      -9.570   1.927 124.370  0.00  0.00    +0.092 A 
ATOM      9  C   LIG A   1      -8.502   1.954 123.358  0.00  0.00    +0.337 A 
ATOM     10  O   LIG A   1      -8.324   2.946 122.663  0.00  0.00    -0.245 OA
ATOM     11  O   LIG A   1      -7.724   0.811 123.241  0.00  0.00    -0.421 OA
ATOM     12  C   LIG A   1      -6.031  -1.821 123.074  0.00  0.00    +0.053 A 
ATOM     13  C   LIG A   1      -5.686  -3.103 123.432  0.00  0.00    +0.196 A 
ATOM     14  O   LIG A   1      -6.498  -3.558 124.421  0.00  0.00    -0.459 OA
ENDROOT
BRANCH   1  15
ATOM     15  O   LIG A   1      -8.535  -3.764 126.404  0.00  0.00    -0.491 OA
ATOM     16  C   LIG A   1      -8.698  -3.620 127.808  0.00  0.00    +0.277 C 
ENDBRANCH   1  15
TORSDOF 1
ENDMDL
