MODEL 1
REMARK VINA RESULT:      -2.9      0.000      0.000
REMARK  Name = NuBBE_1973
REMARK  0 active torsions:
REMARK  status: ('A' for Active; 'I' for Inactive)
REMARK                            x       y       z     vdW  Elec       q    Type
REMARK                         _______ _______ _______ _____ _____    ______ ____
ROOT
ATOM      1  C   LIG A   1     -12.415   7.083 126.568  0.00  0.00    -0.008 C 
ATOM      2  C   LIG A   1     -11.145   7.490 126.675  0.00  0.00    +0.049 C 
ATOM      3  S   LIG A   1     -10.689   8.394 128.077  0.00  0.00    -0.065 S 
ATOM      4  S   LIG A   1     -12.618   8.652 128.725  0.00  0.00    -0.085 S 
ATOM      5  C   LIG A   1     -13.402   7.437 127.632  0.00  0.00    +0.109 C 
ENDROOT
TORSDOF 0
ENDMDL
MODEL 2
REMARK VINA RESULT:      -2.9      0.266      2.029
REMARK  Name = NuBBE_1973
REMARK  0 active torsions:
REMARK  status: ('A' for Active; 'I' for Inactive)
REMARK                            x       y       z     vdW  Elec       q    Type
REMARK                         _______ _______ _______ _____ _____    ______ ____
ROOT
ATOM      1  C   LIG A   1     -12.714   7.090 126.866  0.00  0.00    -0.008 C 
ATOM      2  C   LIG A   1     -13.392   7.661 127.870  0.00  0.00    +0.049 C 
ATOM      3  S   LIG A   1     -12.565   8.801 128.872  0.00  0.00    -0.065 S 
ATOM      4  S   LIG A   1     -10.715   8.374 128.097  0.00  0.00    -0.085 S 
ATOM      5  C   LIG A   1     -11.273   7.425 126.656  0.00  0.00    +0.109 C 
ENDROOT
TORSDOF 0
ENDMDL
MODEL 3
REMARK VINA RESULT:      -2.9      1.138      1.645
REMARK  Name = NuBBE_1973
REMARK  0 active torsions:
REMARK  status: ('A' for Active; 'I' for Inactive)
REMARK                            x       y       z     vdW  Elec       q    Type
REMARK                         _______ _______ _______ _____ _____    ______ ____
ROOT
ATOM      1  C   LIG A   1     -10.992   7.851 126.832  0.00  0.00    -0.008 C 
ATOM      2  C   LIG A   1     -10.775   8.446 128.011  0.00  0.00    +0.049 C 
ATOM      3  S   LIG A   1     -11.988   8.305 129.235  0.00  0.00    -0.065 S 
ATOM      4  S   LIG A   1     -13.384   7.489 127.974  0.00  0.00    -0.085 S 
ATOM      5  C   LIG A   1     -12.269   7.113 126.594  0.00  0.00    +0.109 C 
ENDROOT
TORSDOF 0
ENDMDL
MODEL 4
REMARK VINA RESULT:      -2.8      1.150      1.532
REMARK  Name = NuBBE_1973
REMARK  0 active torsions:
REMARK  status: ('A' for Active; 'I' for Inactive)
REMARK                            x       y       z     vdW  Elec       q    Type
REMARK                         _______ _______ _______ _____ _____    ______ ____
ROOT
ATOM      1  C   LIG A   1     -13.531   6.965 127.913  0.00  0.00    -0.008 C 
ATOM      2  C   LIG A   1     -12.694   7.154 126.884  0.00  0.00    +0.049 C 
ATOM      3  S   LIG A   1     -11.090   7.702 127.224  0.00  0.00    -0.065 S 
ATOM      4  S   LIG A   1     -11.482   8.112 129.194  0.00  0.00    -0.085 S 
ATOM      5  C   LIG A   1     -13.074   7.252 129.306  0.00  0.00    +0.109 C 
ENDROOT
TORSDOF 0
ENDMDL
MODEL 5
REMARK VINA RESULT:      -2.7      1.917      2.846
REMARK  Name = NuBBE_1973
REMARK  0 active torsions:
REMARK  status: ('A' for Active; 'I' for Inactive)
REMARK                            x       y       z     vdW  Elec       q    Type
REMARK                         _______ _______ _______ _____ _____    ______ ____
ROOT
ATOM      1  C   LIG A   1     -11.883   8.690 128.920  0.00  0.00    -0.008 C 
ATOM      2  C   LIG A   1     -13.016   8.130 128.475  0.00  0.00    +0.049 C 
ATOM      3  S   LIG A   1     -12.927   7.080 127.105  0.00  0.00    -0.065 S 
ATOM      4  S   LIG A   1     -10.984   7.566 126.665  0.00  0.00    -0.085 S 
ATOM      5  C   LIG A   1     -10.594   8.420 128.216  0.00  0.00    +0.109 C 
ENDROOT
TORSDOF 0
ENDMDL
MODEL 6
REMARK VINA RESULT:      -2.7      1.773      2.175
REMARK  Name = NuBBE_1973
REMARK  0 active torsions:
REMARK  status: ('A' for Active; 'I' for Inactive)
REMARK                            x       y       z     vdW  Elec       q    Type
REMARK                         _______ _______ _______ _____ _____    ______ ____
ROOT
ATOM      1  C   LIG A   1     -12.964   7.435 129.466  0.00  0.00    -0.008 C 
ATOM      2  C   LIG A   1     -11.759   8.014 129.536  0.00  0.00    +0.049 C 
ATOM      3  S   LIG A   1     -10.909   8.320 128.062  0.00  0.00    -0.065 S 
ATOM      4  S   LIG A   1     -12.204   7.224 126.910  0.00  0.00    -0.085 S 
ATOM      5  C   LIG A   1     -13.526   7.047 128.137  0.00  0.00    +0.109 C 
ENDROOT
TORSDOF 0
ENDMDL
MODEL 7
REMARK VINA RESULT:      -2.7      3.196      3.702
REMARK  Name = NuBBE_1973
REMARK  0 active torsions:
REMARK  status: ('A' for Active; 'I' for Inactive)
REMARK                            x       y       z     vdW  Elec       q    Type
REMARK                         _______ _______ _______ _____ _____    ______ ____
ROOT
ATOM      1  C   LIG A   1     -12.788   7.421 131.098  0.00  0.00    -0.008 C 
ATOM      2  C   LIG A   1     -11.866   6.583 131.587  0.00  0.00    +0.049 C 
ATOM      3  S   LIG A   1     -10.301   6.567 130.851  0.00  0.00    -0.065 S 
ATOM      4  S   LIG A   1     -10.868   7.731 129.261  0.00  0.00    -0.085 S 
ATOM      5  C   LIG A   1     -12.458   8.290 129.929  0.00  0.00    +0.109 C 
ENDROOT
TORSDOF 0
ENDMDL
MODEL 8
REMARK VINA RESULT:      -2.6      2.224      2.775
REMARK  Name = NuBBE_1973
REMARK  0 active torsions:
REMARK  status: ('A' for Active; 'I' for Inactive)
REMARK                            x       y       z     vdW  Elec       q    Type
REMARK                         _______ _______ _______ _____ _____    ______ ____
ROOT
ATOM      1  C   LIG A   1     -10.596   8.377 128.265  0.00  0.00    -0.008 C 
ATOM      2  C   LIG A   1     -11.825   8.205 127.762  0.00  0.00    +0.049 C 
ATOM      3  S   LIG A   1     -12.889   7.099 128.557  0.00  0.00    -0.065 S 
ATOM      4  S   LIG A   1     -11.429   6.333 129.776  0.00  0.00    -0.085 S 
ATOM      5  C   LIG A   1     -10.170   7.600 129.468  0.00  0.00    +0.109 C 
ENDROOT
TORSDOF 0
ENDMDL
MODEL 9
REMARK VINA RESULT:      -2.6      8.395      9.077
REMARK  Name = NuBBE_1973
REMARK  0 active torsions:
REMARK  status: ('A' for Active; 'I' for Inactive)
REMARK                            x       y       z     vdW  Elec       q    Type
REMARK                         _______ _______ _______ _____ _____    ______ ____
ROOT
ATOM      1  C   LIG A   1      -8.336   3.909 120.428  0.00  0.00    -0.008 C 
ATOM      2  C   LIG A   1      -7.078   4.094 120.009  0.00  0.00    +0.049 C 
ATOM      3  S   LIG A   1      -5.791   3.481 120.986  0.00  0.00    -0.065 S 
ATOM      4  S   LIG A   1      -7.005   3.041 122.580  0.00  0.00    -0.085 S 
ATOM      5  C   LIG A   1      -8.594   3.213 121.724  0.00  0.00    +0.109 C 
ENDROOT
TORSDOF 0
ENDMDL
