MODEL 1
REMARK VINA RESULT:      -6.8      0.000      0.000
REMARK  Name = NuBBE_1135
REMARK  4 active torsions:
REMARK  status: ('A' for Active; 'I' for Inactive)
REMARK    1  A    between atoms: C_1  and  O_2
REMARK    2  A    between atoms: O_2  and  C_3
REMARK    3  A    between atoms: C_3  and  C_4
REMARK    4  A    between atoms: C_7  and  C_8
REMARK                            x       y       z     vdW  Elec       q    Type
REMARK                         _______ _______ _______ _____ _____    ______ ____
ROOT
ATOM      1  C   LIG A   1      -7.223   3.186 122.199  0.00  0.00    +0.018 A 
ATOM      2  C   LIG A   1      -5.939   3.638 122.540  0.00  0.00    +0.013 A 
ATOM      3  C   LIG A   1      -5.157   4.397 121.658  0.00  0.00    +0.027 A 
ATOM      4  C   LIG A   1      -5.704   4.696 120.408  0.00  0.00    +0.046 A 
ATOM      5  N   LIG A   1      -5.178   5.410 119.355  0.00  0.00    -0.361 N 
ATOM      6  H   LIG A   1      -4.263   5.839 119.355  0.00  0.00    +0.165 HD
ATOM      7  C   LIG A   1      -6.072   5.452 118.319  0.00  0.00    +0.083 A 
ATOM      8  C   LIG A   1      -7.196   4.756 118.705  0.00  0.00    +0.027 A 
ATOM      9  C   LIG A   1      -6.975   4.273 120.024  0.00  0.00    +0.000 A 
ATOM     10  C   LIG A   1      -7.740   3.511 120.932  0.00  0.00    +0.021 A 
ENDROOT
BRANCH   1  14
ATOM     11  C   LIG A   1      -8.954   1.097 124.738  0.00  0.00    +0.016 A 
ATOM     12  C   LIG A   1      -9.917   1.567 123.870  0.00  0.00    +0.201 A 
ATOM     13  O   LIG A   1      -9.366   2.346 122.908  0.00  0.00    -0.463 OA
ATOM     14  C   LIG A   1      -8.017   2.395 123.138  0.00  0.00    +0.135 A 
ATOM     15  C   LIG A   1      -7.727   1.645 124.262  0.00  0.00    +0.055 A 
BRANCH  11  16
ATOM     16  C   LIG A   1      -9.161   0.219 125.920  0.00  0.00    +0.198 C 
BRANCH  16  18
ATOM     17  C   LIG A   1      -8.892  -2.122 125.951  0.00  0.00    +0.194 C 
ATOM     18  O   LIG A   1      -9.715  -1.042 125.537  0.00  0.00    -0.378 OA
ENDBRANCH  16  18
ENDBRANCH  11  16
ENDBRANCH   1  14
TORSDOF 3
ENDMDL
MODEL 2
REMARK VINA RESULT:      -6.6      9.136     10.419
REMARK  Name = NuBBE_1135
REMARK  4 active torsions:
REMARK  status: ('A' for Active; 'I' for Inactive)
REMARK    1  A    between atoms: C_1  and  O_2
REMARK    2  A    between atoms: O_2  and  C_3
REMARK    3  A    between atoms: C_3  and  C_4
REMARK    4  A    between atoms: C_7  and  C_8
REMARK                            x       y       z     vdW  Elec       q    Type
REMARK                         _______ _______ _______ _____ _____    ______ ____
ROOT
ATOM      1  C   LIG A   1     -11.868   6.921 129.603  0.00  0.00    +0.018 A 
ATOM      2  C   LIG A   1     -12.335   6.941 128.280  0.00  0.00    +0.013 A 
ATOM      3  C   LIG A   1     -13.029   8.038 127.751  0.00  0.00    +0.027 A 
ATOM      4  C   LIG A   1     -13.247   9.130 128.595  0.00  0.00    +0.046 A 
ATOM      5  N   LIG A   1     -13.887  10.325 128.357  0.00  0.00    -0.361 N 
ATOM      6  H   LIG A   1     -14.312  10.581 127.476  0.00  0.00    +0.165 HD
ATOM      7  C   LIG A   1     -13.863  11.107 129.481  0.00  0.00    +0.083 A 
ATOM      8  C   LIG A   1     -13.196  10.410 130.463  0.00  0.00    +0.027 A 
ATOM      9  C   LIG A   1     -12.801   9.158 129.915  0.00  0.00    +0.000 A 
ATOM     10  C   LIG A   1     -12.104   8.041 130.421  0.00  0.00    +0.021 A 
ENDROOT
BRANCH   1  14
ATOM     11  C   LIG A   1      -9.805   4.195 131.057  0.00  0.00    +0.016 A 
ATOM     12  C   LIG A   1     -10.878   3.602 130.426  0.00  0.00    +0.201 A 
ATOM     13  O   LIG A   1     -11.689   4.534 129.868  0.00  0.00    -0.463 OA
ATOM     14  C   LIG A   1     -11.147   5.763 130.130  0.00  0.00    +0.135 A 
ATOM     15  C   LIG A   1      -9.991   5.595 130.868  0.00  0.00    +0.055 A 
BRANCH  11  16
ATOM     16  C   LIG A   1      -8.704   3.512 131.786  0.00  0.00    +0.198 C 
BRANCH  16  18
ATOM     17  C   LIG A   1      -8.833   3.937 134.102  0.00  0.00    +0.194 C 
ATOM     18  O   LIG A   1      -8.229   4.311 132.873  0.00  0.00    -0.378 OA
ENDBRANCH  16  18
ENDBRANCH  11  16
ENDBRANCH   1  14
TORSDOF 3
ENDMDL
MODEL 3
REMARK VINA RESULT:      -6.5      9.672     11.238
REMARK  Name = NuBBE_1135
REMARK  4 active torsions:
REMARK  status: ('A' for Active; 'I' for Inactive)
REMARK    1  A    between atoms: C_1  and  O_2
REMARK    2  A    between atoms: O_2  and  C_3
REMARK    3  A    between atoms: C_3  and  C_4
REMARK    4  A    between atoms: C_7  and  C_8
REMARK                            x       y       z     vdW  Elec       q    Type
REMARK                         _______ _______ _______ _____ _____    ______ ____
ROOT
ATOM      1  C   LIG A   1      -9.216   6.812 131.022  0.00  0.00    +0.018 A 
ATOM      2  C   LIG A   1      -9.611   6.050 132.132  0.00  0.00    +0.013 A 
ATOM      3  C   LIG A   1      -8.683   5.493 133.023  0.00  0.00    +0.027 A 
ATOM      4  C   LIG A   1      -7.329   5.724 132.768  0.00  0.00    +0.046 A 
ATOM      5  N   LIG A   1      -6.211   5.310 133.458  0.00  0.00    -0.361 N 
ATOM      6  H   LIG A   1      -6.232   4.745 134.296  0.00  0.00    +0.165 HD
ATOM      7  C   LIG A   1      -5.078   5.773 132.843  0.00  0.00    +0.083 A 
ATOM      8  C   LIG A   1      -5.466   6.499 131.739  0.00  0.00    +0.027 A 
ATOM      9  C   LIG A   1      -6.887   6.475 131.682  0.00  0.00    +0.000 A 
ATOM     10  C   LIG A   1      -7.843   7.025 130.802  0.00  0.00    +0.021 A 
ENDROOT
BRANCH   1  14
ATOM     11  C   LIG A   1     -11.966   8.154 128.916  0.00  0.00    +0.016 A 
ATOM     12  C   LIG A   1     -10.785   8.395 128.246  0.00  0.00    +0.201 A 
ATOM     13  O   LIG A   1      -9.724   7.936 128.953  0.00  0.00    -0.463 OA
ATOM     14  C   LIG A   1     -10.206   7.381 130.109  0.00  0.00    +0.135 A 
ATOM     15  C   LIG A   1     -11.582   7.505 130.125  0.00  0.00    +0.055 A 
BRANCH  11  16
ATOM     16  C   LIG A   1     -13.339   8.511 128.470  0.00  0.00    +0.198 C 
BRANCH  16  18
ATOM     17  C   LIG A   1     -13.439  10.498 129.735  0.00  0.00    +0.194 C 
ATOM     18  O   LIG A   1     -13.520   9.929 128.436  0.00  0.00    -0.378 OA
ENDBRANCH  16  18
ENDBRANCH  11  16
ENDBRANCH   1  14
TORSDOF 3
ENDMDL
MODEL 4
REMARK VINA RESULT:      -6.5      9.739     11.591
REMARK  Name = NuBBE_1135
REMARK  4 active torsions:
REMARK  status: ('A' for Active; 'I' for Inactive)
REMARK    1  A    between atoms: C_1  and  O_2
REMARK    2  A    between atoms: O_2  and  C_3
REMARK    3  A    between atoms: C_3  and  C_4
REMARK    4  A    between atoms: C_7  and  C_8
REMARK                            x       y       z     vdW  Elec       q    Type
REMARK                         _______ _______ _______ _____ _____    ______ ____
ROOT
ATOM      1  C   LIG A   1      -8.866   6.660 131.248  0.00  0.00    +0.018 A 
ATOM      2  C   LIG A   1      -7.502   6.871 130.997  0.00  0.00    +0.013 A 
ATOM      3  C   LIG A   1      -6.501   6.367 131.840  0.00  0.00    +0.027 A 
ATOM      4  C   LIG A   1      -6.910   5.636 132.957  0.00  0.00    +0.046 A 
ATOM      5  N   LIG A   1      -6.165   5.030 133.945  0.00  0.00    -0.361 N 
ATOM      6  H   LIG A   1      -5.155   5.041 133.988  0.00  0.00    +0.165 HD
ATOM      7  C   LIG A   1      -6.990   4.418 134.851  0.00  0.00    +0.083 A 
ATOM      8  C   LIG A   1      -8.289   4.628 134.445  0.00  0.00    +0.027 A 
ATOM      9  C   LIG A   1      -8.251   5.397 133.249  0.00  0.00    +0.000 A 
ATOM     10  C   LIG A   1      -9.237   5.914 132.383  0.00  0.00    +0.021 A 
ENDROOT
BRANCH   1  14
ATOM     11  C   LIG A   1     -11.694   7.895 129.181  0.00  0.00    +0.016 A 
ATOM     12  C   LIG A   1     -10.530   8.246 128.531  0.00  0.00    +0.201 A 
ATOM     13  O   LIG A   1      -9.442   7.832 129.225  0.00  0.00    -0.463 OA
ATOM     14  C   LIG A   1      -9.889   7.197 130.353  0.00  0.00    +0.135 A 
ATOM     15  C   LIG A   1     -11.270   7.224 130.365  0.00  0.00    +0.055 A 
BRANCH  11  16
ATOM     16  C   LIG A   1     -13.087   8.174 128.741  0.00  0.00    +0.198 C 
BRANCH  16  18
ATOM     17  C   LIG A   1     -13.325  10.306 129.720  0.00  0.00    +0.194 C 
ATOM     18  O   LIG A   1     -13.286   9.570 128.506  0.00  0.00    -0.378 OA
ENDBRANCH  16  18
ENDBRANCH  11  16
ENDBRANCH   1  14
TORSDOF 3
ENDMDL
MODEL 5
REMARK VINA RESULT:      -6.3      9.818     10.922
REMARK  Name = NuBBE_1135
REMARK  4 active torsions:
REMARK  status: ('A' for Active; 'I' for Inactive)
REMARK    1  A    between atoms: C_1  and  O_2
REMARK    2  A    between atoms: O_2  and  C_3
REMARK    3  A    between atoms: C_3  and  C_4
REMARK    4  A    between atoms: C_7  and  C_8
REMARK                            x       y       z     vdW  Elec       q    Type
REMARK                         _______ _______ _______ _____ _____    ______ ____
ROOT
ATOM      1  C   LIG A   1      -9.497   6.747 131.048  0.00  0.00    +0.018 A 
ATOM      2  C   LIG A   1     -10.645   6.304 131.720  0.00  0.00    +0.013 A 
ATOM      3  C   LIG A   1     -11.937   6.549 131.233  0.00  0.00    +0.027 A 
ATOM      4  C   LIG A   1     -12.048   7.261 130.037  0.00  0.00    +0.046 A 
ATOM      5  N   LIG A   1     -13.166   7.644 129.330  0.00  0.00    -0.361 N 
ATOM      6  H   LIG A   1     -14.116   7.444 129.610  0.00  0.00    +0.165 HD
ATOM      7  C   LIG A   1     -12.801   8.331 128.203  0.00  0.00    +0.083 A 
ATOM      8  C   LIG A   1     -11.426   8.393 128.176  0.00  0.00    +0.027 A 
ATOM      9  C   LIG A   1     -10.938   7.720 129.330  0.00  0.00    +0.000 A 
ATOM     10  C   LIG A   1      -9.651   7.458 129.843  0.00  0.00    +0.021 A 
ENDROOT
BRANCH   1  14
ATOM     11  C   LIG A   1      -5.983   6.241 132.141  0.00  0.00    +0.016 A 
ATOM     12  C   LIG A   1      -6.787   5.546 133.019  0.00  0.00    +0.201 A 
ATOM     13  O   LIG A   1      -8.095   5.683 132.691  0.00  0.00    -0.463 OA
ATOM     14  C   LIG A   1      -8.162   6.478 131.579  0.00  0.00    +0.135 A 
ATOM     15  C   LIG A   1      -6.881   6.849 131.216  0.00  0.00    +0.055 A 
BRANCH  11  16
ATOM     16  C   LIG A   1      -4.499   6.340 132.169  0.00  0.00    +0.198 C 
BRANCH  16  18
ATOM     17  C   LIG A   1      -2.896   8.052 131.928  0.00  0.00    +0.194 C 
ATOM     18  O   LIG A   1      -4.038   7.427 131.362  0.00  0.00    -0.378 OA
ENDBRANCH  16  18
ENDBRANCH  11  16
ENDBRANCH   1  14
TORSDOF 3
ENDMDL
MODEL 6
REMARK VINA RESULT:      -6.1     10.130     11.546
REMARK  Name = NuBBE_1135
REMARK  4 active torsions:
REMARK  status: ('A' for Active; 'I' for Inactive)
REMARK    1  A    between atoms: C_1  and  O_2
REMARK    2  A    between atoms: O_2  and  C_3
REMARK    3  A    between atoms: C_3  and  C_4
REMARK    4  A    between atoms: C_7  and  C_8
REMARK                            x       y       z     vdW  Elec       q    Type
REMARK                         _______ _______ _______ _____ _____    ______ ____
ROOT
ATOM      1  C   LIG A   1      -7.889   6.512 131.497  0.00  0.00    +0.018 A 
ATOM      2  C   LIG A   1      -8.412   5.715 132.526  0.00  0.00    +0.013 A 
ATOM      3  C   LIG A   1      -9.790   5.515 132.689  0.00  0.00    +0.027 A 
ATOM      4  C   LIG A   1     -10.642   6.144 131.778  0.00  0.00    +0.046 A 
ATOM      5  N   LIG A   1     -12.016   6.131 131.691  0.00  0.00    -0.361 N 
ATOM      6  H   LIG A   1     -12.625   5.627 132.322  0.00  0.00    +0.165 HD
ATOM      7  C   LIG A   1     -12.430   6.895 130.633  0.00  0.00    +0.083 A 
ATOM      8  C   LIG A   1     -11.309   7.411 130.023  0.00  0.00    +0.027 A 
ATOM      9  C   LIG A   1     -10.172   6.943 130.738  0.00  0.00    +0.000 A 
ATOM     10  C   LIG A   1      -8.781   7.126 130.598  0.00  0.00    +0.021 A 
ENDROOT
BRANCH   1  14
ATOM     11  C   LIG A   1      -4.190   6.849 131.423  0.00  0.00    +0.016 A 
ATOM     12  C   LIG A   1      -4.678   7.456 130.285  0.00  0.00    +0.201 A 
ATOM     13  O   LIG A   1      -6.029   7.374 130.233  0.00  0.00    -0.463 OA
ATOM     14  C   LIG A   1      -6.447   6.705 131.351  0.00  0.00    +0.135 A 
ATOM     15  C   LIG A   1      -5.342   6.357 132.104  0.00  0.00    +0.055 A 
BRANCH  11  16
ATOM     16  C   LIG A   1      -2.766   6.727 131.836  0.00  0.00    +0.198 C 
BRANCH  16  18
ATOM     17  C   LIG A   1      -2.620   7.633 134.007  0.00  0.00    +0.194 C 
ATOM     18  O   LIG A   1      -2.360   7.846 132.628  0.00  0.00    -0.378 OA
ENDBRANCH  16  18
ENDBRANCH  11  16
ENDBRANCH   1  14
TORSDOF 3
ENDMDL
MODEL 7
REMARK VINA RESULT:      -6.0      9.689     11.264
REMARK  Name = NuBBE_1135
REMARK  4 active torsions:
REMARK  status: ('A' for Active; 'I' for Inactive)
REMARK    1  A    between atoms: C_1  and  O_2
REMARK    2  A    between atoms: O_2  and  C_3
REMARK    3  A    between atoms: C_3  and  C_4
REMARK    4  A    between atoms: C_7  and  C_8
REMARK                            x       y       z     vdW  Elec       q    Type
REMARK                         _______ _______ _______ _____ _____    ______ ____
ROOT
ATOM      1  C   LIG A   1     -10.307   6.283 131.794  0.00  0.00    +0.018 A 
ATOM      2  C   LIG A   1     -11.674   6.464 132.055  0.00  0.00    +0.013 A 
ATOM      3  C   LIG A   1     -12.519   7.146 131.168  0.00  0.00    +0.027 A 
ATOM      4  C   LIG A   1     -11.950   7.649 129.996  0.00  0.00    +0.046 A 
ATOM      5  N   LIG A   1     -12.523   8.349 128.958  0.00  0.00    -0.361 N 
ATOM      6  H   LIG A   1     -13.499   8.607 128.912  0.00  0.00    +0.165 HD
ATOM      7  C   LIG A   1     -11.580   8.642 128.008  0.00  0.00    +0.083 A 
ATOM      8  C   LIG A   1     -10.379   8.123 128.434  0.00  0.00    +0.027 A 
ATOM      9  C   LIG A   1     -10.599   7.493 129.690  0.00  0.00    +0.000 A 
ATOM     10  C   LIG A   1      -9.772   6.801 130.600  0.00  0.00    +0.021 A 
ENDROOT
BRANCH   1  14
ATOM     11  C   LIG A   1      -7.978   4.760 134.254  0.00  0.00    +0.016 A 
ATOM     12  C   LIG A   1      -8.743   3.739 133.730  0.00  0.00    +0.201 A 
ATOM     13  O   LIG A   1      -9.628   4.213 132.820  0.00  0.00    -0.463 OA
ATOM     14  C   LIG A   1      -9.448   5.568 132.736  0.00  0.00    +0.135 A 
ATOM     15  C   LIG A   1      -8.447   5.942 133.611  0.00  0.00    +0.055 A 
BRANCH  11  16
ATOM     16  C   LIG A   1      -6.906   4.643 135.279  0.00  0.00    +0.198 C 
BRANCH  16  18
ATOM     17  C   LIG A   1      -7.118   6.196 137.039  0.00  0.00    +0.194 C 
ATOM     18  O   LIG A   1      -6.526   5.928 135.777  0.00  0.00    -0.378 OA
ENDBRANCH  16  18
ENDBRANCH  11  16
ENDBRANCH   1  14
TORSDOF 3
ENDMDL
MODEL 8
REMARK VINA RESULT:      -6.0      1.598      2.206
REMARK  Name = NuBBE_1135
REMARK  4 active torsions:
REMARK  status: ('A' for Active; 'I' for Inactive)
REMARK    1  A    between atoms: C_1  and  O_2
REMARK    2  A    between atoms: O_2  and  C_3
REMARK    3  A    between atoms: C_3  and  C_4
REMARK    4  A    between atoms: C_7  and  C_8
REMARK                            x       y       z     vdW  Elec       q    Type
REMARK                         _______ _______ _______ _____ _____    ______ ____
ROOT
ATOM      1  C   LIG A   1      -6.871   2.222 123.945  0.00  0.00    +0.018 A 
ATOM      2  C   LIG A   1      -6.078   3.136 124.654  0.00  0.00    +0.013 A 
ATOM      3  C   LIG A   1      -5.334   4.135 124.011  0.00  0.00    +0.027 A 
ATOM      4  C   LIG A   1      -5.410   4.196 122.618  0.00  0.00    +0.046 A 
ATOM      5  N   LIG A   1      -4.800   5.055 121.731  0.00  0.00    -0.361 N 
ATOM      6  H   LIG A   1      -4.176   5.805 121.997  0.00  0.00    +0.165 HD
ATOM      7  C   LIG A   1      -5.163   4.746 120.447  0.00  0.00    +0.083 A 
ATOM      8  C   LIG A   1      -6.022   3.671 120.501  0.00  0.00    +0.027 A 
ATOM      9  C   LIG A   1      -6.185   3.314 121.869  0.00  0.00    +0.000 A 
ATOM     10  C   LIG A   1      -6.924   2.319 122.542  0.00  0.00    +0.021 A 
ENDROOT
BRANCH   1  14
ATOM     11  C   LIG A   1      -8.589  -0.625 125.602  0.00  0.00    +0.016 A 
ATOM     12  C   LIG A   1      -9.341   0.505 125.848  0.00  0.00    +0.201 A 
ATOM     13  O   LIG A   1      -8.778   1.597 125.277  0.00  0.00    -0.463 OA
ATOM     14  C   LIG A   1      -7.636   1.189 124.641  0.00  0.00    +0.135 A 
ATOM     15  C   LIG A   1      -7.482  -0.171 124.827  0.00  0.00    +0.055 A 
BRANCH  11  16
ATOM     16  C   LIG A   1      -8.873  -2.010 126.062  0.00  0.00    +0.198 C 
BRANCH  16  18
ATOM     17  C   LIG A   1      -9.272  -3.243 124.093  0.00  0.00    +0.194 C 
ATOM     18  O   LIG A   1      -9.857  -2.638 125.236  0.00  0.00    -0.378 OA
ENDBRANCH  16  18
ENDBRANCH  11  16
ENDBRANCH   1  14
TORSDOF 3
ENDMDL
MODEL 9
REMARK VINA RESULT:      -5.9      7.859     11.454
REMARK  Name = NuBBE_1135
REMARK  4 active torsions:
REMARK  status: ('A' for Active; 'I' for Inactive)
REMARK    1  A    between atoms: C_1  and  O_2
REMARK    2  A    between atoms: O_2  and  C_3
REMARK    3  A    between atoms: C_3  and  C_4
REMARK    4  A    between atoms: C_7  and  C_8
REMARK                            x       y       z     vdW  Elec       q    Type
REMARK                         _______ _______ _______ _____ _____    ______ ____
ROOT
ATOM      1  C   LIG A   1      -6.926  -3.584 130.259  0.00  0.00    +0.018 A 
ATOM      2  C   LIG A   1      -5.927  -4.553 130.439  0.00  0.00    +0.013 A 
ATOM      3  C   LIG A   1      -5.423  -4.877 131.706  0.00  0.00    +0.027 A 
ATOM      4  C   LIG A   1      -5.953  -4.195 132.804  0.00  0.00    +0.046 A 
ATOM      5  N   LIG A   1      -5.658  -4.301 134.144  0.00  0.00    -0.361 N 
ATOM      6  H   LIG A   1      -4.969  -4.931 134.531  0.00  0.00    +0.165 HD
ATOM      7  C   LIG A   1      -6.430  -3.432 134.868  0.00  0.00    +0.083 A 
ATOM      8  C   LIG A   1      -7.240  -2.753 133.985  0.00  0.00    +0.027 A 
ATOM      9  C   LIG A   1      -6.947  -3.227 132.677  0.00  0.00    +0.000 A 
ATOM     10  C   LIG A   1      -7.437  -2.921 131.390  0.00  0.00    +0.021 A 
ENDROOT
BRANCH   1  14
ATOM     11  C   LIG A   1      -8.480  -2.966 126.942  0.00  0.00    +0.016 A 
ATOM     12  C   LIG A   1      -7.273  -2.301 126.957  0.00  0.00    +0.201 A 
ATOM     13  O   LIG A   1      -6.638  -2.473 128.142  0.00  0.00    -0.463 OA
ATOM     14  C   LIG A   1      -7.433  -3.265 128.925  0.00  0.00    +0.135 A 
ATOM     15  C   LIG A   1      -8.581  -3.581 128.224  0.00  0.00    +0.055 A 
BRANCH  11  16
ATOM     16  C   LIG A   1      -9.465  -3.015 125.828  0.00  0.00    +0.198 C 
BRANCH  16  18
ATOM     17  C   LIG A   1      -9.285  -3.069 123.478  0.00  0.00    +0.194 C 
ATOM     18  O   LIG A   1      -8.932  -3.707 124.697  0.00  0.00    -0.378 OA
ENDBRANCH  16  18
ENDBRANCH  11  16
ENDBRANCH   1  14
TORSDOF 3
ENDMDL
