MODEL 1
REMARK VINA RESULT:      -6.0      0.000      0.000
REMARK  Name = NuBBE_597
REMARK  4 active torsions:
REMARK  status: ('A' for Active; 'I' for Inactive)
REMARK    1  A    between atoms: C_4  and  C_5
REMARK    2  A    between atoms: C_5  and  C_6
REMARK    3  A    between atoms: C_6  and  C_7
REMARK    4  A    between atoms: N_8  and  C_9
REMARK                            x       y       z     vdW  Elec       q    Type
REMARK                         _______ _______ _______ _____ _____    ______ ____
ROOT
ATOM      1  O   LIG A   1      -5.120  -0.700 127.858  0.00  0.00    -0.287 OA
ATOM      2  C   LIG A   1      -5.812  -1.428 127.151  0.00  0.00    +0.190 A 
ATOM      3  C   LIG A   1      -5.554  -1.518 125.708  0.00  0.00    +0.072 A 
ATOM      4  C   LIG A   1      -6.285  -2.342 124.937  0.00  0.00    +0.022 A 
ATOM      5  N   LIG A   1      -7.331  -3.132 125.444  0.00  0.00    -0.347 N 
ATOM      6  C   LIG A   1      -8.156  -4.029 124.628  0.00  0.00    +0.149 C 
ATOM      7  C   LIG A   1      -7.674  -3.050 126.828  0.00  0.00    +0.053 A 
ATOM      8  C   LIG A   1      -8.742  -3.759 127.409  0.00  0.00    +0.026 A 
ATOM      9  C   LIG A   1      -9.029  -3.671 128.779  0.00  0.00    +0.002 A 
ATOM     10  C   LIG A   1      -8.258  -2.866 129.609  0.00  0.00    +0.001 A 
ATOM     11  C   LIG A   1      -7.205  -2.139 129.067  0.00  0.00    +0.013 A 
ATOM     12  C   LIG A   1      -6.924  -2.229 127.694  0.00  0.00    +0.045 A 
ENDROOT
BRANCH   4  13
ATOM     13  C   LIG A   1      -5.924  -2.379 123.460  0.00  0.00    +0.053 C 
BRANCH  13  14
ATOM     14  C   LIG A   1      -4.568  -3.055 123.231  0.00  0.00    +0.003 C 
ATOM     15  C   LIG A   1      -4.583  -4.509 123.676  0.00  0.00    +0.004 C 
ENDBRANCH  13  14
ENDBRANCH   4  13
TORSDOF 2
ENDMDL
MODEL 2
REMARK VINA RESULT:      -6.0     10.029     11.773
REMARK  Name = NuBBE_597
REMARK  4 active torsions:
REMARK  status: ('A' for Active; 'I' for Inactive)
REMARK    1  A    between atoms: C_4  and  C_5
REMARK    2  A    between atoms: C_5  and  C_6
REMARK    3  A    between atoms: C_6  and  C_7
REMARK    4  A    between atoms: N_8  and  C_9
REMARK                            x       y       z     vdW  Elec       q    Type
REMARK                         _______ _______ _______ _____ _____    ______ ____
ROOT
ATOM      1  O   LIG A   1     -13.172   7.529 131.916  0.00  0.00    -0.287 OA
ATOM      2  C   LIG A   1     -12.193   7.044 131.356  0.00  0.00    +0.190 A 
ATOM      3  C   LIG A   1     -11.308   6.124 132.083  0.00  0.00    +0.072 A 
ATOM      4  C   LIG A   1     -10.255   5.561 131.462  0.00  0.00    +0.022 A 
ATOM      5  N   LIG A   1      -9.930   5.829 130.122  0.00  0.00    -0.347 N 
ATOM      6  C   LIG A   1      -8.781   5.243 129.421  0.00  0.00    +0.149 C 
ATOM      7  C   LIG A   1     -10.713   6.758 129.373  0.00  0.00    +0.053 A 
ATOM      8  C   LIG A   1     -10.425   7.130 128.047  0.00  0.00    +0.026 A 
ATOM      9  C   LIG A   1     -11.236   8.028 127.338  0.00  0.00    +0.002 A 
ATOM     10  C   LIG A   1     -12.359   8.585 127.937  0.00  0.00    +0.001 A 
ATOM     11  C   LIG A   1     -12.666   8.254 129.252  0.00  0.00    +0.013 A 
ATOM     12  C   LIG A   1     -11.848   7.356 129.957  0.00  0.00    +0.045 A 
ENDROOT
BRANCH   4  13
ATOM     13  C   LIG A   1      -9.415   4.605 132.295  0.00  0.00    +0.053 C 
BRANCH  13  14
ATOM     14  C   LIG A   1      -8.693   5.337 133.431  0.00  0.00    +0.003 C 
ATOM     15  C   LIG A   1      -8.281   4.383 134.541  0.00  0.00    +0.004 C 
ENDBRANCH  13  14
ENDBRANCH   4  13
TORSDOF 2
ENDMDL
MODEL 3
REMARK VINA RESULT:      -6.0      6.919      9.015
REMARK  Name = NuBBE_597
REMARK  4 active torsions:
REMARK  status: ('A' for Active; 'I' for Inactive)
REMARK    1  A    between atoms: C_4  and  C_5
REMARK    2  A    between atoms: C_5  and  C_6
REMARK    3  A    between atoms: C_6  and  C_7
REMARK    4  A    between atoms: N_8  and  C_9
REMARK                            x       y       z     vdW  Elec       q    Type
REMARK                         _______ _______ _______ _____ _____    ______ ____
ROOT
ATOM      1  O   LIG A   1      -3.884   5.003 121.967  0.00  0.00    -0.287 OA
ATOM      2  C   LIG A   1      -5.004   4.502 121.933  0.00  0.00    +0.190 A 
ATOM      3  C   LIG A   1      -5.531   3.792 123.107  0.00  0.00    +0.072 A 
ATOM      4  C   LIG A   1      -6.773   3.275 123.088  0.00  0.00    +0.022 A 
ATOM      5  N   LIG A   1      -7.615   3.358 121.966  0.00  0.00    -0.347 N 
ATOM      6  C   LIG A   1      -8.967   2.791 121.908  0.00  0.00    +0.149 C 
ATOM      7  C   LIG A   1      -7.146   3.983 120.771  0.00  0.00    +0.053 A 
ATOM      8  C   LIG A   1      -7.898   4.058 119.584  0.00  0.00    +0.026 A 
ATOM      9  C   LIG A   1      -7.409   4.705 118.440  0.00  0.00    +0.002 A 
ATOM     10  C   LIG A   1      -6.150   5.293 118.447  0.00  0.00    +0.001 A 
ATOM     11  C   LIG A   1      -5.373   5.224 119.597  0.00  0.00    +0.013 A 
ATOM     12  C   LIG A   1      -5.866   4.572 120.739  0.00  0.00    +0.045 A 
ENDROOT
BRANCH   4  13
ATOM     13  C   LIG A   1      -7.232   2.579 124.360  0.00  0.00    +0.053 C 
BRANCH  13  14
ATOM     14  C   LIG A   1      -6.589   1.196 124.507  0.00  0.00    +0.003 C 
ATOM     15  C   LIG A   1      -7.421   0.116 123.834  0.00  0.00    +0.004 C 
ENDBRANCH  13  14
ENDBRANCH   4  13
TORSDOF 2
ENDMDL
MODEL 4
REMARK VINA RESULT:      -6.0      7.056      9.166
REMARK  Name = NuBBE_597
REMARK  4 active torsions:
REMARK  status: ('A' for Active; 'I' for Inactive)
REMARK    1  A    between atoms: C_4  and  C_5
REMARK    2  A    between atoms: C_5  and  C_6
REMARK    3  A    between atoms: C_6  and  C_7
REMARK    4  A    between atoms: N_8  and  C_9
REMARK                            x       y       z     vdW  Elec       q    Type
REMARK                         _______ _______ _______ _____ _____    ______ ____
ROOT
ATOM      1  O   LIG A   1      -9.269   4.106 119.120  0.00  0.00    -0.287 OA
ATOM      2  C   LIG A   1      -8.663   3.809 120.145  0.00  0.00    +0.190 A 
ATOM      3  C   LIG A   1      -9.341   3.064 121.215  0.00  0.00    +0.072 A 
ATOM      4  C   LIG A   1      -8.670   2.703 122.323  0.00  0.00    +0.022 A 
ATOM      5  N   LIG A   1      -7.319   3.027 122.534  0.00  0.00    -0.347 N 
ATOM      6  C   LIG A   1      -6.563   2.661 123.738  0.00  0.00    +0.149 C 
ATOM      7  C   LIG A   1      -6.614   3.799 121.562  0.00  0.00    +0.053 A 
ATOM      8  C   LIG A   1      -5.279   4.217 121.718  0.00  0.00    +0.026 A 
ATOM      9  C   LIG A   1      -4.615   4.953 120.725  0.00  0.00    +0.002 A 
ATOM     10  C   LIG A   1      -5.268   5.296 119.548  0.00  0.00    +0.001 A 
ATOM     11  C   LIG A   1      -6.592   4.913 119.366  0.00  0.00    +0.013 A 
ATOM     12  C   LIG A   1      -7.253   4.179 120.365  0.00  0.00    +0.045 A 
ENDROOT
BRANCH   4  13
ATOM     13  C   LIG A   1      -9.457   1.916 123.360  0.00  0.00    +0.053 C 
BRANCH  13  14
ATOM     14  C   LIG A   1     -10.079   0.654 122.754  0.00  0.00    +0.003 C 
ATOM     15  C   LIG A   1      -9.216  -0.573 123.004  0.00  0.00    +0.004 C 
ENDBRANCH  13  14
ENDBRANCH   4  13
TORSDOF 2
ENDMDL
MODEL 5
REMARK VINA RESULT:      -5.8      3.097      4.159
REMARK  Name = NuBBE_597
REMARK  4 active torsions:
REMARK  status: ('A' for Active; 'I' for Inactive)
REMARK    1  A    between atoms: C_4  and  C_5
REMARK    2  A    between atoms: C_5  and  C_6
REMARK    3  A    between atoms: C_6  and  C_7
REMARK    4  A    between atoms: N_8  and  C_9
REMARK                            x       y       z     vdW  Elec       q    Type
REMARK                         _______ _______ _______ _____ _____    ______ ____
ROOT
ATOM      1  O   LIG A   1      -5.349   1.003 126.195  0.00  0.00    -0.287 OA
ATOM      2  C   LIG A   1      -6.041   0.335 125.433  0.00  0.00    +0.190 A 
ATOM      3  C   LIG A   1      -5.702  -1.070 125.169  0.00  0.00    +0.072 A 
ATOM      4  C   LIG A   1      -6.479  -1.817 124.365  0.00  0.00    +0.022 A 
ATOM      5  N   LIG A   1      -7.622  -1.309 123.724  0.00  0.00    -0.347 N 
ATOM      6  C   LIG A   1      -8.482  -2.093 122.829  0.00  0.00    +0.149 C 
ATOM      7  C   LIG A   1      -7.977   0.064 123.890  0.00  0.00    +0.053 A 
ATOM      8  C   LIG A   1      -9.069   0.670 123.241  0.00  0.00    +0.026 A 
ATOM      9  C   LIG A   1      -9.399   2.017 123.452  0.00  0.00    +0.002 A 
ATOM     10  C   LIG A   1      -8.644   2.799 124.318  0.00  0.00    +0.001 A 
ATOM     11  C   LIG A   1      -7.549   2.238 124.964  0.00  0.00    +0.013 A 
ATOM     12  C   LIG A   1      -7.221   0.890 124.746  0.00  0.00    +0.045 A 
ENDROOT
BRANCH   4  13
ATOM     13  C   LIG A   1      -6.055  -3.265 124.173  0.00  0.00    +0.053 C 
BRANCH  13  14
ATOM     14  C   LIG A   1      -4.709  -3.365 123.449  0.00  0.00    +0.003 C 
ATOM     15  C   LIG A   1      -4.132  -4.770 123.525  0.00  0.00    +0.004 C 
ENDBRANCH  13  14
ENDBRANCH   4  13
TORSDOF 2
ENDMDL
MODEL 6
REMARK VINA RESULT:      -5.7      3.600      4.950
REMARK  Name = NuBBE_597
REMARK  4 active torsions:
REMARK  status: ('A' for Active; 'I' for Inactive)
REMARK    1  A    between atoms: C_4  and  C_5
REMARK    2  A    between atoms: C_5  and  C_6
REMARK    3  A    between atoms: C_6  and  C_7
REMARK    4  A    between atoms: N_8  and  C_9
REMARK                            x       y       z     vdW  Elec       q    Type
REMARK                         _______ _______ _______ _____ _____    ______ ____
ROOT
ATOM      1  O   LIG A   1      -9.938  -1.039 122.476  0.00  0.00    -0.287 OA
ATOM      2  C   LIG A   1      -8.927  -0.936 123.165  0.00  0.00    +0.190 A 
ATOM      3  C   LIG A   1      -8.090  -2.115 123.429  0.00  0.00    +0.072 A 
ATOM      4  C   LIG A   1      -6.962  -2.000 124.151  0.00  0.00    +0.022 A 
ATOM      5  N   LIG A   1      -6.533  -0.782 124.705  0.00  0.00    -0.347 N 
ATOM      6  C   LIG A   1      -5.316  -0.626 125.509  0.00  0.00    +0.149 C 
ATOM      7  C   LIG A   1      -7.328   0.392 124.537  0.00  0.00    +0.053 A 
ATOM      8  C   LIG A   1      -7.006   1.639 125.106  0.00  0.00    +0.026 A 
ATOM      9  C   LIG A   1      -7.801   2.774 124.894  0.00  0.00    +0.002 A 
ATOM     10  C   LIG A   1      -8.945   2.696 124.110  0.00  0.00    +0.001 A 
ATOM     11  C   LIG A   1      -9.303   1.478 123.546  0.00  0.00    +0.013 A 
ATOM     12  C   LIG A   1      -8.504   0.343 123.763  0.00  0.00    +0.045 A 
ENDROOT
BRANCH   4  13
ATOM     13  C   LIG A   1      -6.155  -3.275 124.348  0.00  0.00    +0.053 C 
BRANCH  13  14
ATOM     14  C   LIG A   1      -4.971  -3.345 123.378  0.00  0.00    +0.003 C 
ATOM     15  C   LIG A   1      -4.139  -4.598 123.597  0.00  0.00    +0.004 C 
ENDBRANCH  13  14
ENDBRANCH   4  13
TORSDOF 2
ENDMDL
MODEL 7
REMARK VINA RESULT:      -5.7      4.004      5.461
REMARK  Name = NuBBE_597
REMARK  4 active torsions:
REMARK  status: ('A' for Active; 'I' for Inactive)
REMARK    1  A    between atoms: C_4  and  C_5
REMARK    2  A    between atoms: C_5  and  C_6
REMARK    3  A    between atoms: C_6  and  C_7
REMARK    4  A    between atoms: N_8  and  C_9
REMARK                            x       y       z     vdW  Elec       q    Type
REMARK                         _______ _______ _______ _____ _____    ______ ____
ROOT
ATOM      1  O   LIG A   1     -10.440   0.145 122.371  0.00  0.00    -0.287 OA
ATOM      2  C   LIG A   1      -9.406   0.070 123.029  0.00  0.00    +0.190 A 
ATOM      3  C   LIG A   1      -8.616   1.278 123.306  0.00  0.00    +0.072 A 
ATOM      4  C   LIG A   1      -7.504   1.205 124.058  0.00  0.00    +0.022 A 
ATOM      5  N   LIG A   1      -7.025  -0.002 124.595  0.00  0.00    -0.347 N 
ATOM      6  C   LIG A   1      -5.808  -0.117 125.407  0.00  0.00    +0.149 C 
ATOM      7  C   LIG A   1      -7.711  -1.223 124.318  0.00  0.00    +0.053 A 
ATOM      8  C   LIG A   1      -7.271  -2.483 124.765  0.00  0.00    +0.026 A 
ATOM      9  C   LIG A   1      -7.989  -3.656 124.492  0.00  0.00    +0.002 A 
ATOM     10  C   LIG A   1      -9.169  -3.604 123.760  0.00  0.00    +0.001 A 
ATOM     11  C   LIG A   1      -9.626  -2.380 123.290  0.00  0.00    +0.013 A 
ATOM     12  C   LIG A   1      -8.901  -1.209 123.563  0.00  0.00    +0.045 A 
ENDROOT
BRANCH   4  13
ATOM     13  C   LIG A   1      -6.771   2.515 124.304  0.00  0.00    +0.053 C 
BRANCH  13  14
ATOM     14  C   LIG A   1      -6.673   3.352 123.025  0.00  0.00    +0.003 C 
ATOM     15  C   LIG A   1      -5.475   4.288 123.056  0.00  0.00    +0.004 C 
ENDBRANCH  13  14
ENDBRANCH   4  13
TORSDOF 2
ENDMDL
MODEL 8
REMARK VINA RESULT:      -5.7      3.656      4.843
REMARK  Name = NuBBE_597
REMARK  4 active torsions:
REMARK  status: ('A' for Active; 'I' for Inactive)
REMARK    1  A    between atoms: C_4  and  C_5
REMARK    2  A    between atoms: C_5  and  C_6
REMARK    3  A    between atoms: C_6  and  C_7
REMARK    4  A    between atoms: N_8  and  C_9
REMARK                            x       y       z     vdW  Elec       q    Type
REMARK                         _______ _______ _______ _____ _____    ______ ____
ROOT
ATOM      1  O   LIG A   1      -5.429  -0.682 125.425  0.00  0.00    -0.287 OA
ATOM      2  C   LIG A   1      -6.449  -0.418 124.795  0.00  0.00    +0.190 A 
ATOM      3  C   LIG A   1      -6.744   0.969 124.413  0.00  0.00    +0.072 A 
ATOM      4  C   LIG A   1      -7.841   1.257 123.690  0.00  0.00    +0.022 A 
ATOM      5  N   LIG A   1      -8.763   0.278 123.284  0.00  0.00    -0.347 N 
ATOM      6  C   LIG A   1      -9.976   0.561 122.508  0.00  0.00    +0.149 C 
ATOM      7  C   LIG A   1      -8.569  -1.083 123.669  0.00  0.00    +0.053 A 
ATOM      8  C   LIG A   1      -9.472  -2.117 123.357  0.00  0.00    +0.026 A 
ATOM      9  C   LIG A   1      -9.230  -3.446 123.732  0.00  0.00    +0.002 A 
ATOM     10  C   LIG A   1      -8.079  -3.781 124.436  0.00  0.00    +0.001 A 
ATOM     11  C   LIG A   1      -7.174  -2.783 124.775  0.00  0.00    +0.013 A 
ATOM     12  C   LIG A   1      -7.423  -1.453 124.399  0.00  0.00    +0.045 A 
ENDROOT
BRANCH   4  13
ATOM     13  C   LIG A   1      -8.044   2.721 123.328  0.00  0.00    +0.053 C 
BRANCH  13  14
ATOM     14  C   LIG A   1      -6.709   3.420 123.050  0.00  0.00    +0.003 C 
ATOM     15  C   LIG A   1      -6.369   3.412 121.568  0.00  0.00    +0.004 C 
ENDBRANCH  13  14
ENDBRANCH   4  13
TORSDOF 2
ENDMDL
MODEL 9
REMARK VINA RESULT:      -5.7      1.972      2.890
REMARK  Name = NuBBE_597
REMARK  4 active torsions:
REMARK  status: ('A' for Active; 'I' for Inactive)
REMARK    1  A    between atoms: C_4  and  C_5
REMARK    2  A    between atoms: C_5  and  C_6
REMARK    3  A    between atoms: C_6  and  C_7
REMARK    4  A    between atoms: N_8  and  C_9
REMARK                            x       y       z     vdW  Elec       q    Type
REMARK                         _______ _______ _______ _____ _____    ______ ____
ROOT
ATOM      1  O   LIG A   1     -10.130  -3.307 125.891  0.00  0.00    -0.287 OA
ATOM      2  C   LIG A   1      -9.038  -2.748 125.951  0.00  0.00    +0.190 A 
ATOM      3  C   LIG A   1      -8.489  -2.073 124.767  0.00  0.00    +0.072 A 
ATOM      4  C   LIG A   1      -7.311  -1.427 124.839  0.00  0.00    +0.022 A 
ATOM      5  N   LIG A   1      -6.541  -1.377 126.013  0.00  0.00    -0.347 N 
ATOM      6  C   LIG A   1      -5.247  -0.693 126.120  0.00  0.00    +0.149 C 
ATOM      7  C   LIG A   1      -6.987  -2.060 127.184  0.00  0.00    +0.053 A 
ATOM      8  C   LIG A   1      -6.252  -2.112 128.384  0.00  0.00    +0.026 A 
ATOM      9  C   LIG A   1      -6.740  -2.772 129.521  0.00  0.00    +0.002 A 
ATOM     10  C   LIG A   1      -7.976  -3.405 129.491  0.00  0.00    +0.001 A 
ATOM     11  C   LIG A   1      -8.722  -3.388 128.319  0.00  0.00    +0.013 A 
ATOM     12  C   LIG A   1      -8.228  -2.728 127.182  0.00  0.00    +0.045 A 
ENDROOT
BRANCH   4  13
ATOM     13  C   LIG A   1      -6.841  -0.742 123.565  0.00  0.00    +0.053 C 
BRANCH  13  14
ATOM     14  C   LIG A   1      -6.411  -1.762 122.506  0.00  0.00    +0.003 C 
ATOM     15  C   LIG A   1      -5.349  -2.711 123.038  0.00  0.00    +0.004 C 
ENDBRANCH  13  14
ENDBRANCH   4  13
TORSDOF 2
ENDMDL
