MODEL 1
REMARK VINA RESULT:      -8.2      0.000      0.000
REMARK  Name = NuBBE_997
REMARK  13 active torsions:
REMARK  status: ('A' for Active; 'I' for Inactive)
REMARK    1  A    between atoms: C_1  and  C_2
REMARK    2  A    between atoms: C_6  and  C_8
REMARK    3  A    between atoms: C_8  and  C_9
REMARK    4  A    between atoms: C_15  and  O_17
REMARK    5  A    between atoms: O_17  and  C_18
REMARK    6  A    between atoms: C_18  and  C_19
REMARK    7  A    between atoms: C_21  and  O_23
REMARK    8  A    between atoms: O_23  and  C_24
REMARK    9  A    between atoms: C_24  and  C_25
REMARK   10  A    between atoms: C_27  and  O_29
REMARK   11  A    between atoms: O_29  and  C_30
REMARK   12  A    between atoms: C_30  and  C_31
REMARK   13  A    between atoms: C_34  and  C_35
REMARK                            x       y       z     vdW  Elec       q    Type
REMARK                         _______ _______ _______ _____ _____    ______ ____
ROOT
ATOM      1  C   LIG A   1      -3.873   5.598 127.713  0.00  0.00    +0.012 C 
ATOM      2  C   LIG A   1      -4.071   4.330 128.573  0.00  0.00    -0.019 C 
ATOM      3  C   LIG A   1      -5.584   3.945 128.519  0.00  0.00    +0.006 C 
ATOM      4  C   LIG A   1      -6.244   4.827 129.588  0.00  0.00    +0.079 C 
ATOM      5  C   LIG A   1      -5.154   5.004 130.606  0.00  0.00    +0.137 C 
ATOM      6  C   LIG A   1      -3.795   4.553 130.095  0.00  0.00    +0.061 C 
ATOM      7  O   LIG A   1      -5.356   5.463 131.724  0.00  0.00    -0.297 OA
ATOM      8  C   LIG A   1      -5.847   2.422 128.686  0.00  0.00    -0.003 C 
ATOM      9  C   LIG A   1      -7.382   2.148 128.739  0.00  0.00    +0.004 C 
ATOM     10  C   LIG A   1      -7.895   0.781 128.282  0.00  0.00    +0.008 C 
ATOM     11  C   LIG A   1      -6.780  -0.093 127.745  0.00  0.00    +0.040 C 
ATOM     12  C   LIG A   1      -7.248  -1.495 127.322  0.00  0.00    +0.224 C 
ATOM     13  C   LIG A   1      -7.406  -1.592 125.815  0.00  0.00    +0.257 C 
ATOM     14  C   LIG A   1      -6.054  -1.322 125.077  0.00  0.00    +0.221 C 
ATOM     15  C   LIG A   1      -5.127  -0.337 125.860  0.00  0.00    +0.055 C 
ATOM     16  C   LIG A   1      -5.910   0.697 126.710  0.00  0.00    -0.019 C 
ATOM     17  C   LIG A   1      -6.667   1.617 125.714  0.00  0.00    +0.012 C 
ATOM     18  C   LIG A   1      -5.014   1.574 127.643  0.00  0.00    -0.001 C 
ATOM     19  C   LIG A   1      -3.906   2.379 126.954  0.00  0.00    +0.005 C 
ATOM     20  C   LIG A   1      -3.172   3.210 128.004  0.00  0.00    +0.008 C 
ENDROOT
BRANCH   6  21
ATOM     21  C   LIG A   1      -2.708   5.553 130.506  0.00  0.00    +0.008 C 
ATOM     22  C   LIG A   1      -1.906   5.167 131.739  0.00  0.00    +0.004 C 
ENDBRANCH   6  21
BRANCH  12  23
ATOM     23  O   LIG A   1      -6.221  -2.450 127.699  0.00  0.00    -0.457 OA
BRANCH  23  24
ATOM     24  C   LIG A   1      -6.343  -3.032 128.917  0.00  0.00    +0.304 C 
ATOM     25  C   LIG A   1      -7.770  -3.376 129.174  0.00  0.00    +0.136 C 
ATOM     26  O   LIG A   1      -5.408  -3.323 129.669  0.00  0.00    -0.251 OA
ENDBRANCH  23  24
ENDBRANCH  12  23
BRANCH  13  27
ATOM     27  O   LIG A   1      -7.934  -2.884 125.449  0.00  0.00    -0.454 OA
BRANCH  27  28
ATOM     28  C   LIG A   1      -9.225  -2.940 125.068  0.00  0.00    +0.304 C 
ATOM     29  C   LIG A   1      -9.323  -3.206 123.599  0.00  0.00    +0.136 C 
ATOM     30  O   LIG A   1     -10.184  -2.720 125.805  0.00  0.00    -0.251 OA
ENDBRANCH  27  28
ENDBRANCH  13  27
BRANCH  14  31
ATOM     31  O   LIG A   1      -5.278  -2.532 124.873  0.00  0.00    -0.458 OA
BRANCH  31  32
ATOM     32  C   LIG A   1      -5.143  -2.992 123.597  0.00  0.00    +0.304 C 
ATOM     33  C   LIG A   1      -4.375  -4.270 123.590  0.00  0.00    +0.136 C 
ATOM     34  O   LIG A   1      -5.564  -2.456 122.578  0.00  0.00    -0.251 OA
ENDBRANCH  31  32
ENDBRANCH  14  31
TORSDOF 7
ENDMDL
MODEL 2
REMARK VINA RESULT:      -8.1      2.718      8.356
REMARK  Name = NuBBE_997
REMARK  13 active torsions:
REMARK  status: ('A' for Active; 'I' for Inactive)
REMARK    1  A    between atoms: C_1  and  C_2
REMARK    2  A    between atoms: C_6  and  C_8
REMARK    3  A    between atoms: C_8  and  C_9
REMARK    4  A    between atoms: C_15  and  O_17
REMARK    5  A    between atoms: O_17  and  C_18
REMARK    6  A    between atoms: C_18  and  C_19
REMARK    7  A    between atoms: C_21  and  O_23
REMARK    8  A    between atoms: O_23  and  C_24
REMARK    9  A    between atoms: C_24  and  C_25
REMARK   10  A    between atoms: C_27  and  O_29
REMARK   11  A    between atoms: O_29  and  C_30
REMARK   12  A    between atoms: C_30  and  C_31
REMARK   13  A    between atoms: C_34  and  C_35
REMARK                            x       y       z     vdW  Elec       q    Type
REMARK                         _______ _______ _______ _____ _____    ______ ____
ROOT
ATOM      1  C   LIG A   1      -7.977  -3.429 125.253  0.00  0.00    +0.012 C 
ATOM      2  C   LIG A   1      -6.868  -2.354 125.231  0.00  0.00    -0.019 C 
ATOM      3  C   LIG A   1      -7.503  -1.021 124.723  0.00  0.00    +0.006 C 
ATOM      4  C   LIG A   1      -7.479  -1.140 123.193  0.00  0.00    +0.079 C 
ATOM      5  C   LIG A   1      -6.268  -1.990 122.936  0.00  0.00    +0.137 C 
ATOM      6  C   LIG A   1      -5.731  -2.645 124.199  0.00  0.00    +0.061 C 
ATOM      7  O   LIG A   1      -5.777  -2.130 121.822  0.00  0.00    -0.297 OA
ATOM      8  C   LIG A   1      -6.810   0.253 125.282  0.00  0.00    -0.003 C 
ATOM      9  C   LIG A   1      -7.430   1.529 124.630  0.00  0.00    +0.004 C 
ATOM     10  C   LIG A   1      -7.387   2.842 125.414  0.00  0.00    +0.008 C 
ATOM     11  C   LIG A   1      -6.798   2.659 126.797  0.00  0.00    +0.040 C 
ATOM     12  C   LIG A   1      -6.692   3.966 127.599  0.00  0.00    +0.224 C 
ATOM     13  C   LIG A   1      -7.816   4.085 128.612  0.00  0.00    +0.257 C 
ATOM     14  C   LIG A   1      -7.781   2.915 129.648  0.00  0.00    +0.221 C 
ATOM     15  C   LIG A   1      -7.199   1.595 129.046  0.00  0.00    +0.055 C 
ATOM     16  C   LIG A   1      -7.467   1.444 127.526  0.00  0.00    -0.019 C 
ATOM     17  C   LIG A   1      -9.002   1.281 127.353  0.00  0.00    +0.012 C 
ATOM     18  C   LIG A   1      -6.741   0.230 126.862  0.00  0.00    -0.001 C 
ATOM     19  C   LIG A   1      -7.046  -1.149 127.461  0.00  0.00    +0.005 C 
ATOM     20  C   LIG A   1      -6.297  -2.212 126.660  0.00  0.00    +0.008 C 
ENDROOT
BRANCH   6  21
ATOM     21  C   LIG A   1      -5.342  -4.102 123.925  0.00  0.00    +0.008 C 
ATOM     22  C   LIG A   1      -3.876  -4.329 123.591  0.00  0.00    +0.004 C 
ENDBRANCH   6  21
BRANCH  12  23
ATOM     23  O   LIG A   1      -5.449   3.940 128.350  0.00  0.00    -0.457 OA
BRANCH  23  24
ATOM     24  C   LIG A   1      -4.422   4.676 127.862  0.00  0.00    +0.304 C 
ATOM     25  C   LIG A   1      -3.208   3.824 127.722  0.00  0.00    +0.136 C 
ATOM     26  O   LIG A   1      -4.494   5.854 127.497  0.00  0.00    -0.251 OA
ENDBRANCH  23  24
ENDBRANCH  12  23
BRANCH  13  27
ATOM     27  O   LIG A   1      -7.750   5.360 129.286  0.00  0.00    -0.454 OA
BRANCH  27  28
ATOM     28  C   LIG A   1      -8.911   5.901 129.702  0.00  0.00    +0.304 C 
ATOM     29  C   LIG A   1      -8.670   6.830 130.850  0.00  0.00    +0.136 C 
ATOM     30  O   LIG A   1     -10.020   5.609 129.260  0.00  0.00    -0.251 OA
ENDBRANCH  27  28
ENDBRANCH  13  27
BRANCH  14  31
ATOM     31  O   LIG A   1      -6.969   3.221 130.812  0.00  0.00    -0.458 OA
BRANCH  31  32
ATOM     32  C   LIG A   1      -7.538   3.069 132.041  0.00  0.00    +0.304 C 
ATOM     33  C   LIG A   1      -9.017   2.936 131.909  0.00  0.00    +0.136 C 
ATOM     34  O   LIG A   1      -6.955   3.052 133.119  0.00  0.00    -0.251 OA
ENDBRANCH  31  32
ENDBRANCH  14  31
TORSDOF 7
ENDMDL
MODEL 3
REMARK VINA RESULT:      -7.8      3.575      7.846
REMARK  Name = NuBBE_997
REMARK  13 active torsions:
REMARK  status: ('A' for Active; 'I' for Inactive)
REMARK    1  A    between atoms: C_1  and  C_2
REMARK    2  A    between atoms: C_6  and  C_8
REMARK    3  A    between atoms: C_8  and  C_9
REMARK    4  A    between atoms: C_15  and  O_17
REMARK    5  A    between atoms: O_17  and  C_18
REMARK    6  A    between atoms: C_18  and  C_19
REMARK    7  A    between atoms: C_21  and  O_23
REMARK    8  A    between atoms: O_23  and  C_24
REMARK    9  A    between atoms: C_24  and  C_25
REMARK   10  A    between atoms: C_27  and  O_29
REMARK   11  A    between atoms: O_29  and  C_30
REMARK   12  A    between atoms: C_30  and  C_31
REMARK   13  A    between atoms: C_34  and  C_35
REMARK                            x       y       z     vdW  Elec       q    Type
REMARK                         _______ _______ _______ _____ _____    ______ ____
ROOT
ATOM      1  C   LIG A   1      -5.522  -2.569 124.320  0.00  0.00    +0.012 C 
ATOM      2  C   LIG A   1      -6.518  -1.795 125.213  0.00  0.00    -0.019 C 
ATOM      3  C   LIG A   1      -7.216  -2.825 126.157  0.00  0.00    +0.006 C 
ATOM      4  C   LIG A   1      -8.356  -3.411 125.314  0.00  0.00    +0.079 C 
ATOM      5  C   LIG A   1      -8.726  -2.275 124.404  0.00  0.00    +0.137 C 
ATOM      6  C   LIG A   1      -7.702  -1.152 124.421  0.00  0.00    +0.061 C 
ATOM      7  O   LIG A   1      -9.748  -2.271 123.727  0.00  0.00    -0.297 OA
ATOM      8  C   LIG A   1      -7.663  -2.221 127.517  0.00  0.00    -0.003 C 
ATOM      9  C   LIG A   1      -8.452  -3.286 128.342  0.00  0.00    +0.004 C 
ATOM     10  C   LIG A   1      -8.449  -3.177 129.868  0.00  0.00    +0.008 C 
ATOM     11  C   LIG A   1      -7.564  -2.047 130.353  0.00  0.00    +0.040 C 
ATOM     12  C   LIG A   1      -7.574  -1.872 131.880  0.00  0.00    +0.224 C 
ATOM     13  C   LIG A   1      -6.334  -2.479 132.513  0.00  0.00    +0.257 C 
ATOM     14  C   LIG A   1      -5.028  -1.798 131.986  0.00  0.00    +0.221 C 
ATOM     15  C   LIG A   1      -5.172  -1.274 130.520  0.00  0.00    +0.055 C 
ATOM     16  C   LIG A   1      -6.159  -2.110 129.665  0.00  0.00    -0.019 C 
ATOM     17  C   LIG A   1      -5.525  -3.518 129.493  0.00  0.00    +0.012 C 
ATOM     18  C   LIG A   1      -6.462  -1.505 128.256  0.00  0.00    -0.001 C 
ATOM     19  C   LIG A   1      -5.249  -1.266 127.348  0.00  0.00    +0.005 C 
ATOM     20  C   LIG A   1      -5.735  -0.725 126.006  0.00  0.00    +0.008 C 
ENDROOT
BRANCH   6  21
ATOM     21  C   LIG A   1      -7.443  -0.639 122.999  0.00  0.00    +0.008 C 
ATOM     22  C   LIG A   1      -7.061   0.829 122.900  0.00  0.00    +0.004 C 
ENDBRANCH   6  21
BRANCH  12  23
ATOM     23  O   LIG A   1      -7.543  -0.451 132.176  0.00  0.00    -0.457 OA
BRANCH  23  24
ATOM     24  C   LIG A   1      -8.549   0.302 131.670  0.00  0.00    +0.304 C 
ATOM     25  C   LIG A   1      -8.008   1.262 130.666  0.00  0.00    +0.136 C 
ATOM     26  O   LIG A   1      -9.749   0.160 131.924  0.00  0.00    -0.251 OA
ENDBRANCH  23  24
ENDBRANCH  12  23
BRANCH  13  27
ATOM     27  O   LIG A   1      -6.408  -2.387 133.950  0.00  0.00    -0.454 OA
BRANCH  27  28
ATOM     28  C   LIG A   1      -7.274  -3.205 134.580  0.00  0.00    +0.304 C 
ATOM     29  C   LIG A   1      -6.858  -4.632 134.412  0.00  0.00    +0.136 C 
ATOM     30  O   LIG A   1      -8.305  -2.838 135.139  0.00  0.00    -0.251 OA
ENDBRANCH  27  28
ENDBRANCH  13  27
BRANCH  14  31
ATOM     31  O   LIG A   1      -4.633  -0.653 132.787  0.00  0.00    -0.458 OA
BRANCH  31  32
ATOM     32  C   LIG A   1      -3.311  -0.519 133.093  0.00  0.00    +0.304 C 
ATOM     33  C   LIG A   1      -3.002   0.903 133.421  0.00  0.00    +0.136 C 
ATOM     34  O   LIG A   1      -2.468  -1.408 133.095  0.00  0.00    -0.251 OA
ENDBRANCH  31  32
ENDBRANCH  14  31
TORSDOF 7
ENDMDL
MODEL 4
REMARK VINA RESULT:      -7.8      2.193      8.478
REMARK  Name = NuBBE_997
REMARK  13 active torsions:
REMARK  status: ('A' for Active; 'I' for Inactive)
REMARK    1  A    between atoms: C_1  and  C_2
REMARK    2  A    between atoms: C_6  and  C_8
REMARK    3  A    between atoms: C_8  and  C_9
REMARK    4  A    between atoms: C_15  and  O_17
REMARK    5  A    between atoms: O_17  and  C_18
REMARK    6  A    between atoms: C_18  and  C_19
REMARK    7  A    between atoms: C_21  and  O_23
REMARK    8  A    between atoms: O_23  and  C_24
REMARK    9  A    between atoms: C_24  and  C_25
REMARK   10  A    between atoms: C_27  and  O_29
REMARK   11  A    between atoms: O_29  and  C_30
REMARK   12  A    between atoms: C_30  and  C_31
REMARK   13  A    between atoms: C_34  and  C_35
REMARK                            x       y       z     vdW  Elec       q    Type
REMARK                         _______ _______ _______ _____ _____    ______ ____
ROOT
ATOM      1  C   LIG A   1      -5.501  -2.693 125.738  0.00  0.00    +0.012 C 
ATOM      2  C   LIG A   1      -6.657  -1.696 125.974  0.00  0.00    -0.019 C 
ATOM      3  C   LIG A   1      -6.796  -1.478 127.515  0.00  0.00    +0.006 C 
ATOM      4  C   LIG A   1      -7.655  -2.656 127.995  0.00  0.00    +0.079 C 
ATOM      5  C   LIG A   1      -8.526  -2.949 126.808  0.00  0.00    +0.137 C 
ATOM      6  C   LIG A   1      -8.057  -2.243 125.546  0.00  0.00    +0.061 C 
ATOM      7  O   LIG A   1      -9.507  -3.681 126.868  0.00  0.00    -0.297 OA
ATOM      8  C   LIG A   1      -7.348  -0.077 127.900  0.00  0.00    -0.003 C 
ATOM      9  C   LIG A   1      -7.565   0.006 129.443  0.00  0.00    +0.004 C 
ATOM     10  C   LIG A   1      -7.491   1.378 130.117  0.00  0.00    +0.008 C 
ATOM     11  C   LIG A   1      -7.116   2.471 129.138  0.00  0.00    +0.040 C 
ATOM     12  C   LIG A   1      -7.082   3.874 129.767  0.00  0.00    +0.224 C 
ATOM     13  C   LIG A   1      -5.658   4.309 130.065  0.00  0.00    +0.257 C 
ATOM     14  C   LIG A   1      -4.793   4.374 128.765  0.00  0.00    +0.221 C 
ATOM     15  C   LIG A   1      -5.249   3.338 127.687  0.00  0.00    +0.055 C 
ATOM     16  C   LIG A   1      -5.866   2.052 128.294  0.00  0.00    -0.019 C 
ATOM     17  C   LIG A   1      -4.724   1.318 129.049  0.00  0.00    +0.012 C 
ATOM     18  C   LIG A   1      -6.496   1.082 127.243  0.00  0.00    -0.001 C 
ATOM     19  C   LIG A   1      -5.561   0.591 126.131  0.00  0.00    +0.005 C 
ATOM     20  C   LIG A   1      -6.326  -0.380 125.234  0.00  0.00    +0.008 C 
ENDROOT
BRANCH   6  21
ATOM     21  C   LIG A   1      -8.140  -3.186 124.340  0.00  0.00    +0.008 C 
ATOM     22  C   LIG A   1      -9.292  -2.917 123.385  0.00  0.00    +0.004 C 
ENDBRANCH   6  21
BRANCH  12  23
ATOM     23  O   LIG A   1      -7.617   4.818 128.803  0.00  0.00    -0.457 OA
BRANCH  23  24
ATOM     24  C   LIG A   1      -8.842   5.333 129.064  0.00  0.00    +0.304 C 
ATOM     25  C   LIG A   1      -9.197   5.099 130.493  0.00  0.00    +0.136 C 
ATOM     26  O   LIG A   1      -9.532   5.981 128.271  0.00  0.00    -0.251 OA
ENDBRANCH  23  24
ENDBRANCH  12  23
BRANCH  13  27
ATOM     27  O   LIG A   1      -5.655   5.585 130.740  0.00  0.00    -0.454 OA
BRANCH  27  28
ATOM     28  C   LIG A   1      -4.850   5.718 131.812  0.00  0.00    +0.304 C 
ATOM     29  C   LIG A   1      -5.647   5.629 133.075  0.00  0.00    +0.136 C 
ATOM     30  O   LIG A   1      -3.647   5.962 131.760  0.00  0.00    -0.251 OA
ENDBRANCH  27  28
ENDBRANCH  13  27
BRANCH  14  31
ATOM     31  O   LIG A   1      -4.843   5.675 128.123  0.00  0.00    -0.458 OA
BRANCH  31  32
ATOM     32  C   LIG A   1      -3.789   6.518 128.314  0.00  0.00    +0.304 C 
ATOM     33  C   LIG A   1      -2.507   5.762 128.236  0.00  0.00    +0.136 C 
ATOM     34  O   LIG A   1      -3.848   7.723 128.532  0.00  0.00    -0.251 OA
ENDBRANCH  31  32
ENDBRANCH  14  31
TORSDOF 7
ENDMDL
MODEL 5
REMARK VINA RESULT:      -7.7      3.561      6.734
REMARK  Name = NuBBE_997
REMARK  13 active torsions:
REMARK  status: ('A' for Active; 'I' for Inactive)
REMARK    1  A    between atoms: C_1  and  C_2
REMARK    2  A    between atoms: C_6  and  C_8
REMARK    3  A    between atoms: C_8  and  C_9
REMARK    4  A    between atoms: C_15  and  O_17
REMARK    5  A    between atoms: O_17  and  C_18
REMARK    6  A    between atoms: C_18  and  C_19
REMARK    7  A    between atoms: C_21  and  O_23
REMARK    8  A    between atoms: O_23  and  C_24
REMARK    9  A    between atoms: C_24  and  C_25
REMARK   10  A    between atoms: C_27  and  O_29
REMARK   11  A    between atoms: O_29  and  C_30
REMARK   12  A    between atoms: C_30  and  C_31
REMARK   13  A    between atoms: C_34  and  C_35
REMARK                            x       y       z     vdW  Elec       q    Type
REMARK                         _______ _______ _______ _____ _____    ______ ____
ROOT
ATOM      1  C   LIG A   1      -5.618  -4.073 130.135  0.00  0.00    +0.012 C 
ATOM      2  C   LIG A   1      -6.162  -2.716 130.635  0.00  0.00    -0.019 C 
ATOM      3  C   LIG A   1      -5.167  -1.603 130.178  0.00  0.00    +0.006 C 
ATOM      4  C   LIG A   1      -4.066  -1.606 131.247  0.00  0.00    +0.079 C 
ATOM      5  C   LIG A   1      -4.796  -2.035 132.487  0.00  0.00    +0.137 C 
ATOM      6  C   LIG A   1      -6.184  -2.583 132.192  0.00  0.00    +0.061 C 
ATOM      7  O   LIG A   1      -4.312  -1.946 133.609  0.00  0.00    -0.297 OA
ATOM      8  C   LIG A   1      -5.839  -0.221 129.948  0.00  0.00    -0.003 C 
ATOM      9  C   LIG A   1      -4.756   0.851 129.611  0.00  0.00    +0.004 C 
ATOM     10  C   LIG A   1      -5.164   2.061 128.768  0.00  0.00    +0.008 C 
ATOM     11  C   LIG A   1      -6.603   1.969 128.304  0.00  0.00    +0.040 C 
ATOM     12  C   LIG A   1      -7.067   3.192 127.495  0.00  0.00    +0.224 C 
ATOM     13  C   LIG A   1      -7.066   2.900 126.005  0.00  0.00    +0.257 C 
ATOM     14  C   LIG A   1      -8.036   1.726 125.649  0.00  0.00    +0.221 C 
ATOM     15  C   LIG A   1      -8.171   0.686 126.808  0.00  0.00    +0.055 C 
ATOM     16  C   LIG A   1      -6.892   0.564 127.676  0.00  0.00    -0.019 C 
ATOM     17  C   LIG A   1      -5.786  -0.039 126.767  0.00  0.00    +0.012 C 
ATOM     18  C   LIG A   1      -7.059  -0.329 128.947  0.00  0.00    -0.001 C 
ATOM     19  C   LIG A   1      -7.515  -1.773 128.703  0.00  0.00    +0.005 C 
ATOM     20  C   LIG A   1      -7.573  -2.507 130.041  0.00  0.00    +0.008 C 
ENDROOT
BRANCH   6  21
ATOM     21  C   LIG A   1      -6.457  -3.834 133.034  0.00  0.00    +0.008 C 
ATOM     22  C   LIG A   1      -7.544  -3.682 134.086  0.00  0.00    +0.004 C 
ENDBRANCH   6  21
BRANCH  12  23
ATOM     23  O   LIG A   1      -8.439   3.488 127.865  0.00  0.00    -0.457 OA
BRANCH  23  24
ATOM     24  C   LIG A   1      -8.629   4.177 129.015  0.00  0.00    +0.304 C 
ATOM     25  C   LIG A   1      -9.361   3.331 130.000  0.00  0.00    +0.136 C 
ATOM     26  O   LIG A   1      -8.185   5.305 129.257  0.00  0.00    -0.251 OA
ENDBRANCH  23  24
ENDBRANCH  12  23
BRANCH  13  27
ATOM     27  O   LIG A   1      -7.413   4.087 125.262  0.00  0.00    -0.454 OA
BRANCH  27  28
ATOM     28  C   LIG A   1      -6.402   4.818 124.754  0.00  0.00    +0.304 C 
ATOM     29  C   LIG A   1      -5.632   4.018 123.752  0.00  0.00    +0.136 C 
ATOM     30  O   LIG A   1      -6.102   5.951 125.124  0.00  0.00    -0.251 OA
ENDBRANCH  27  28
ENDBRANCH  13  27
BRANCH  14  31
ATOM     31  O   LIG A   1      -9.382   2.183 125.356  0.00  0.00    -0.458 OA
BRANCH  31  32
ATOM     32  C   LIG A   1      -9.983   1.705 124.230  0.00  0.00    +0.304 C 
ATOM     33  C   LIG A   1      -9.126   1.970 123.039  0.00  0.00    +0.136 C 
ATOM     34  O   LIG A   1     -11.072   1.147 124.163  0.00  0.00    -0.251 OA
ENDBRANCH  31  32
ENDBRANCH  14  31
TORSDOF 7
ENDMDL
MODEL 6
REMARK VINA RESULT:      -7.6      2.579      4.836
REMARK  Name = NuBBE_997
REMARK  13 active torsions:
REMARK  status: ('A' for Active; 'I' for Inactive)
REMARK    1  A    between atoms: C_1  and  C_2
REMARK    2  A    between atoms: C_6  and  C_8
REMARK    3  A    between atoms: C_8  and  C_9
REMARK    4  A    between atoms: C_15  and  O_17
REMARK    5  A    between atoms: O_17  and  C_18
REMARK    6  A    between atoms: C_18  and  C_19
REMARK    7  A    between atoms: C_21  and  O_23
REMARK    8  A    between atoms: O_23  and  C_24
REMARK    9  A    between atoms: C_24  and  C_25
REMARK   10  A    between atoms: C_27  and  O_29
REMARK   11  A    between atoms: O_29  and  C_30
REMARK   12  A    between atoms: C_30  and  C_31
REMARK   13  A    between atoms: C_34  and  C_35
REMARK                            x       y       z     vdW  Elec       q    Type
REMARK                         _______ _______ _______ _____ _____    ______ ____
ROOT
ATOM      1  C   LIG A   1      -7.432   3.568 132.464  0.00  0.00    +0.012 C 
ATOM      2  C   LIG A   1      -7.947   4.063 131.093  0.00  0.00    -0.019 C 
ATOM      3  C   LIG A   1      -6.767   3.967 130.075  0.00  0.00    +0.006 C 
ATOM      4  C   LIG A   1      -5.966   5.258 130.290  0.00  0.00    +0.079 C 
ATOM      5  C   LIG A   1      -7.013   6.243 130.721  0.00  0.00    +0.137 C 
ATOM      6  C   LIG A   1      -8.334   5.578 131.077  0.00  0.00    +0.061 C 
ATOM      7  O   LIG A   1      -6.810   7.450 130.776  0.00  0.00    -0.297 OA
ATOM      8  C   LIG A   1      -7.226   3.729 128.609  0.00  0.00    -0.003 C 
ATOM      9  C   LIG A   1      -5.995   3.766 127.650  0.00  0.00    +0.004 C 
ATOM     10  C   LIG A   1      -6.066   2.980 126.340  0.00  0.00    +0.008 C 
ATOM     11  C   LIG A   1      -7.350   2.185 126.225  0.00  0.00    +0.040 C 
ATOM     12  C   LIG A   1      -7.483   1.419 124.899  0.00  0.00    +0.224 C 
ATOM     13  C   LIG A   1      -7.148  -0.051 125.075  0.00  0.00    +0.257 C 
ATOM     14  C   LIG A   1      -8.111  -0.741 126.095  0.00  0.00    +0.221 C 
ATOM     15  C   LIG A   1      -8.625   0.241 127.197  0.00  0.00    +0.055 C 
ATOM     16  C   LIG A   1      -7.613   1.367 127.534  0.00  0.00    -0.019 C 
ATOM     17  C   LIG A   1      -6.383   0.684 128.194  0.00  0.00    +0.012 C 
ATOM     18  C   LIG A   1      -8.170   2.466 128.496  0.00  0.00    -0.001 C 
ATOM     19  C   LIG A   1      -8.691   1.975 129.853  0.00  0.00    +0.005 C 
ATOM     20  C   LIG A   1      -9.143   3.181 130.674  0.00  0.00    +0.008 C 
ENDROOT
BRANCH   6  21
ATOM     21  C   LIG A   1      -8.924   6.200 132.348  0.00  0.00    +0.008 C 
ATOM     22  C   LIG A   1     -10.441   6.167 132.440  0.00  0.00    +0.004 C 
ENDBRANCH   6  21
BRANCH  12  23
ATOM     23  O   LIG A   1      -8.869   1.486 124.470  0.00  0.00    -0.457 OA
BRANCH  23  24
ATOM     24  C   LIG A   1      -9.106   2.008 123.243  0.00  0.00    +0.304 C 
ATOM     25  C   LIG A   1      -9.979   1.088 122.460  0.00  0.00    +0.136 C 
ATOM     26  O   LIG A   1      -8.738   3.121 122.853  0.00  0.00    -0.251 OA
ENDBRANCH  23  24
ENDBRANCH  12  23
BRANCH  13  27
ATOM     27  O   LIG A   1      -7.187  -0.730 123.802  0.00  0.00    -0.454 OA
BRANCH  27  28
ATOM     28  C   LIG A   1      -6.229  -1.645 123.558  0.00  0.00    +0.304 C 
ATOM     29  C   LIG A   1      -6.284  -2.087 122.129  0.00  0.00    +0.136 C 
ATOM     30  O   LIG A   1      -5.474  -2.113 124.406  0.00  0.00    -0.251 OA
ENDBRANCH  27  28
ENDBRANCH  13  27
BRANCH  14  31
ATOM     31  O   LIG A   1      -9.295  -1.293 125.460  0.00  0.00    -0.458 OA
BRANCH  31  32
ATOM     32  C   LIG A   1      -9.356  -2.645 125.297  0.00  0.00    +0.304 C 
ATOM     33  C   LIG A   1      -8.955  -3.333 126.558  0.00  0.00    +0.136 C 
ATOM     34  O   LIG A   1      -9.675  -3.244 124.276  0.00  0.00    -0.251 OA
ENDBRANCH  31  32
ENDBRANCH  14  31
TORSDOF 7
ENDMDL
MODEL 7
REMARK VINA RESULT:      -7.6      3.711      8.276
REMARK  Name = NuBBE_997
REMARK  13 active torsions:
REMARK  status: ('A' for Active; 'I' for Inactive)
REMARK    1  A    between atoms: C_1  and  C_2
REMARK    2  A    between atoms: C_6  and  C_8
REMARK    3  A    between atoms: C_8  and  C_9
REMARK    4  A    between atoms: C_15  and  O_17
REMARK    5  A    between atoms: O_17  and  C_18
REMARK    6  A    between atoms: C_18  and  C_19
REMARK    7  A    between atoms: C_21  and  O_23
REMARK    8  A    between atoms: O_23  and  C_24
REMARK    9  A    between atoms: C_24  and  C_25
REMARK   10  A    between atoms: C_27  and  O_29
REMARK   11  A    between atoms: O_29  and  C_30
REMARK   12  A    between atoms: C_30  and  C_31
REMARK   13  A    between atoms: C_34  and  C_35
REMARK                            x       y       z     vdW  Elec       q    Type
REMARK                         _______ _______ _______ _____ _____    ______ ____
ROOT
ATOM      1  C   LIG A   1      -4.445  -1.972 132.359  0.00  0.00    +0.012 C 
ATOM      2  C   LIG A   1      -4.970  -1.457 131.000  0.00  0.00    -0.019 C 
ATOM      3  C   LIG A   1      -6.419  -0.918 131.218  0.00  0.00    +0.006 C 
ATOM      4  C   LIG A   1      -7.310  -2.166 131.139  0.00  0.00    +0.079 C 
ATOM      5  C   LIG A   1      -6.563  -3.060 130.192  0.00  0.00    +0.137 C 
ATOM      6  C   LIG A   1      -5.144  -2.580 129.927  0.00  0.00    +0.061 C 
ATOM      7  O   LIG A   1      -7.058  -4.064 129.694  0.00  0.00    -0.297 OA
ATOM      8  C   LIG A   1      -6.816   0.221 130.238  0.00  0.00    -0.003 C 
ATOM      9  C   LIG A   1      -8.312   0.611 130.449  0.00  0.00    +0.004 C 
ATOM     10  C   LIG A   1      -8.752   2.034 130.097  0.00  0.00    +0.008 C 
ATOM     11  C   LIG A   1      -7.585   2.896 129.660  0.00  0.00    +0.040 C 
ATOM     12  C   LIG A   1      -7.994   4.320 129.249  0.00  0.00    +0.224 C 
ATOM     13  C   LIG A   1      -7.703   5.318 130.355  0.00  0.00    +0.257 C 
ATOM     14  C   LIG A   1      -6.179   5.366 130.700  0.00  0.00    +0.221 C 
ATOM     15  C   LIG A   1      -5.466   3.995 130.464  0.00  0.00    +0.055 C 
ATOM     16  C   LIG A   1      -6.399   2.774 130.675  0.00  0.00    -0.019 C 
ATOM     17  C   LIG A   1      -6.766   2.743 132.184  0.00  0.00    +0.012 C 
ATOM     18  C   LIG A   1      -5.767   1.404 130.270  0.00  0.00    -0.001 C 
ATOM     19  C   LIG A   1      -4.455   1.031 130.972  0.00  0.00    +0.005 C 
ATOM     20  C   LIG A   1      -4.015  -0.352 130.496  0.00  0.00    +0.008 C 
ENDROOT
BRANCH   6  21
ATOM     21  C   LIG A   1      -4.167  -3.761 129.933  0.00  0.00    +0.008 C 
ATOM     22  C   LIG A   1      -2.929  -3.583 129.070  0.00  0.00    +0.004 C 
ENDBRANCH   6  21
BRANCH  12  23
ATOM     23  O   LIG A   1      -7.188   4.712 128.106  0.00  0.00    -0.457 OA
BRANCH  23  24
ATOM     24  C   LIG A   1      -7.331   3.980 126.975  0.00  0.00    +0.304 C 
ATOM     25  C   LIG A   1      -6.011   3.434 126.553  0.00  0.00    +0.136 C 
ATOM     26  O   LIG A   1      -8.404   3.720 126.420  0.00  0.00    -0.251 OA
ENDBRANCH  23  24
ENDBRANCH  12  23
BRANCH  13  27
ATOM     27  O   LIG A   1      -8.179   6.629 129.984  0.00  0.00    -0.454 OA
BRANCH  27  28
ATOM     28  C   LIG A   1      -9.396   6.996 130.432  0.00  0.00    +0.304 C 
ATOM     29  C   LIG A   1     -10.146   7.725 129.362  0.00  0.00    +0.136 C 
ATOM     30  O   LIG A   1      -9.800   6.830 131.580  0.00  0.00    -0.251 OA
ENDBRANCH  27  28
ENDBRANCH  13  27
BRANCH  14  31
ATOM     31  O   LIG A   1      -5.455   6.341 129.903  0.00  0.00    -0.458 OA
BRANCH  31  32
ATOM     32  C   LIG A   1      -4.551   7.137 130.542  0.00  0.00    +0.304 C 
ATOM     33  C   LIG A   1      -3.890   8.048 129.564  0.00  0.00    +0.136 C 
ATOM     34  O   LIG A   1      -4.284   7.126 131.738  0.00  0.00    -0.251 OA
ENDBRANCH  31  32
ENDBRANCH  14  31
TORSDOF 7
ENDMDL
MODEL 8
REMARK VINA RESULT:      -7.6      3.620      6.527
REMARK  Name = NuBBE_997
REMARK  13 active torsions:
REMARK  status: ('A' for Active; 'I' for Inactive)
REMARK    1  A    between atoms: C_1  and  C_2
REMARK    2  A    between atoms: C_6  and  C_8
REMARK    3  A    between atoms: C_8  and  C_9
REMARK    4  A    between atoms: C_15  and  O_17
REMARK    5  A    between atoms: O_17  and  C_18
REMARK    6  A    between atoms: C_18  and  C_19
REMARK    7  A    between atoms: C_21  and  O_23
REMARK    8  A    between atoms: O_23  and  C_24
REMARK    9  A    between atoms: C_24  and  C_25
REMARK   10  A    between atoms: C_27  and  O_29
REMARK   11  A    between atoms: O_29  and  C_30
REMARK   12  A    between atoms: C_30  and  C_31
REMARK   13  A    between atoms: C_34  and  C_35
REMARK                            x       y       z     vdW  Elec       q    Type
REMARK                         _______ _______ _______ _____ _____    ______ ____
ROOT
ATOM      1  C   LIG A   1     -11.223   6.089 131.960  0.00  0.00    +0.012 C 
ATOM      2  C   LIG A   1     -10.747   5.620 130.566  0.00  0.00    -0.019 C 
ATOM      3  C   LIG A   1      -9.187   5.679 130.547  0.00  0.00    +0.006 C 
ATOM      4  C   LIG A   1      -8.861   7.141 130.215  0.00  0.00    +0.079 C 
ATOM      5  C   LIG A   1     -10.022   7.566 129.364  0.00  0.00    +0.137 C 
ATOM      6  C   LIG A   1     -11.173   6.574 129.404  0.00  0.00    +0.061 C 
ATOM      7  O   LIG A   1     -10.025   8.605 128.713  0.00  0.00    -0.297 OA
ATOM      8  C   LIG A   1      -8.535   4.640 129.593  0.00  0.00    -0.003 C 
ATOM      9  C   LIG A   1      -6.989   4.851 129.548  0.00  0.00    +0.004 C 
ATOM     10  C   LIG A   1      -6.098   3.651 129.220  0.00  0.00    +0.008 C 
ATOM     11  C   LIG A   1      -6.899   2.374 129.071  0.00  0.00    +0.040 C 
ATOM     12  C   LIG A   1      -6.045   1.154 128.692  0.00  0.00    +0.224 C 
ATOM     13  C   LIG A   1      -5.768   0.277 129.900  0.00  0.00    +0.257 C 
ATOM     14  C   LIG A   1      -7.091  -0.273 130.526  0.00  0.00    +0.221 C 
ATOM     15  C   LIG A   1      -8.298   0.701 130.332  0.00  0.00    +0.055 C 
ATOM     16  C   LIG A   1      -7.880   2.193 130.278  0.00  0.00    -0.019 C 
ATOM     17  C   LIG A   1      -7.335   2.559 131.686  0.00  0.00    +0.012 C 
ATOM     18  C   LIG A   1      -9.038   3.173 129.903  0.00  0.00    -0.001 C 
ATOM     19  C   LIG A   1     -10.275   3.136 130.810  0.00  0.00    +0.005 C 
ATOM     20  C   LIG A   1     -11.273   4.187 130.328  0.00  0.00    +0.008 C 
ENDROOT
BRANCH   6  21
ATOM     21  C   LIG A   1     -12.514   7.310 129.509  0.00  0.00    +0.008 C 
ATOM     22  C   LIG A   1     -13.512   6.999 128.406  0.00  0.00    +0.004 C 
ENDBRANCH   6  21
BRANCH  12  23
ATOM     23  O   LIG A   1      -6.799   0.345 127.750  0.00  0.00    -0.457 OA
BRANCH  23  24
ATOM     24  C   LIG A   1      -7.204   0.952 126.609  0.00  0.00    +0.304 C 
ATOM     25  C   LIG A   1      -8.693   0.944 126.531  0.00  0.00    +0.136 C 
ATOM     26  O   LIG A   1      -6.465   1.513 125.793  0.00  0.00    -0.251 OA
ENDBRANCH  23  24
ENDBRANCH  12  23
BRANCH  13  27
ATOM     27  O   LIG A   1      -4.888  -0.809 129.540  0.00  0.00    -0.454 OA
BRANCH  27  28
ATOM     28  C   LIG A   1      -3.962  -1.182 130.444  0.00  0.00    +0.304 C 
ATOM     29  C   LIG A   1      -3.304  -2.457 130.020  0.00  0.00    +0.136 C 
ATOM     30  O   LIG A   1      -3.746  -0.604 131.507  0.00  0.00    -0.251 OA
ENDBRANCH  27  28
ENDBRANCH  13  27
BRANCH  14  31
ATOM     31  O   LIG A   1      -7.497  -1.542 129.949  0.00  0.00    -0.458 OA
BRANCH  31  32
ATOM     32  C   LIG A   1      -7.354  -2.661 130.714  0.00  0.00    +0.304 C 
ATOM     33  C   LIG A   1      -6.863  -3.794 129.878  0.00  0.00    +0.136 C 
ATOM     34  O   LIG A   1      -7.596  -2.764 131.911  0.00  0.00    -0.251 OA
ENDBRANCH  31  32
ENDBRANCH  14  31
TORSDOF 7
ENDMDL
MODEL 9
REMARK VINA RESULT:      -7.3      4.151      8.827
REMARK  Name = NuBBE_997
REMARK  13 active torsions:
REMARK  status: ('A' for Active; 'I' for Inactive)
REMARK    1  A    between atoms: C_1  and  C_2
REMARK    2  A    between atoms: C_6  and  C_8
REMARK    3  A    between atoms: C_8  and  C_9
REMARK    4  A    between atoms: C_15  and  O_17
REMARK    5  A    between atoms: O_17  and  C_18
REMARK    6  A    between atoms: C_18  and  C_19
REMARK    7  A    between atoms: C_21  and  O_23
REMARK    8  A    between atoms: O_23  and  C_24
REMARK    9  A    between atoms: C_24  and  C_25
REMARK   10  A    between atoms: C_27  and  O_29
REMARK   11  A    between atoms: O_29  and  C_30
REMARK   12  A    between atoms: C_30  and  C_31
REMARK   13  A    between atoms: C_34  and  C_35
REMARK                            x       y       z     vdW  Elec       q    Type
REMARK                         _______ _______ _______ _____ _____    ______ ____
ROOT
ATOM      1  C   LIG A   1      -9.208  -1.632 126.104  0.00  0.00    +0.012 C 
ATOM      2  C   LIG A   1      -8.061  -2.574 126.532  0.00  0.00    -0.019 C 
ATOM      3  C   LIG A   1      -6.921  -1.697 127.139  0.00  0.00    +0.006 C 
ATOM      4  C   LIG A   1      -6.123  -1.206 125.922  0.00  0.00    +0.079 C 
ATOM      5  C   LIG A   1      -6.291  -2.322 124.931  0.00  0.00    +0.137 C 
ATOM      6  C   LIG A   1      -7.373  -3.310 125.337  0.00  0.00    +0.061 C 
ATOM      7  O   LIG A   1      -5.619  -2.411 123.911  0.00  0.00    -0.297 OA
ATOM      8  C   LIG A   1      -6.072  -2.433 128.213  0.00  0.00    -0.003 C 
ATOM      9  C   LIG A   1      -4.889  -1.525 128.673  0.00  0.00    +0.004 C 
ATOM     10  C   LIG A   1      -4.320  -1.725 130.079  0.00  0.00    +0.008 C 
ATOM     11  C   LIG A   1      -5.095  -2.764 130.862  0.00  0.00    +0.040 C 
ATOM     12  C   LIG A   1      -4.524  -3.031 132.264  0.00  0.00    +0.224 C 
ATOM     13  C   LIG A   1      -5.330  -2.316 133.333  0.00  0.00    +0.257 C 
ATOM     14  C   LIG A   1      -6.817  -2.798 133.351  0.00  0.00    +0.221 C 
ATOM     15  C   LIG A   1      -7.320  -3.245 131.941  0.00  0.00    +0.055 C 
ATOM     16  C   LIG A   1      -6.634  -2.487 130.775  0.00  0.00    -0.019 C 
ATOM     17  C   LIG A   1      -7.087  -1.005 130.874  0.00  0.00    +0.012 C 
ATOM     18  C   LIG A   1      -6.982  -3.039 129.355  0.00  0.00    -0.001 C 
ATOM     19  C   LIG A   1      -8.472  -3.071 128.989  0.00  0.00    +0.005 C 
ATOM     20  C   LIG A   1      -8.618  -3.586 127.559  0.00  0.00    +0.008 C 
ENDROOT
BRANCH   6  21
ATOM     21  C   LIG A   1      -8.226  -3.700 124.124  0.00  0.00    +0.008 C 
ATOM     22  C   LIG A   1      -8.535  -2.568 123.158  0.00  0.00    +0.004 C 
ENDBRANCH   6  21
BRANCH  12  23
ATOM     23  O   LIG A   1      -4.632  -4.453 132.537  0.00  0.00    -0.457 OA
BRANCH  23  24
ATOM     24  C   LIG A   1      -3.614  -5.024 133.224  0.00  0.00    +0.304 C 
ATOM     25  C   LIG A   1      -4.142  -6.087 134.125  0.00  0.00    +0.136 C 
ATOM     26  O   LIG A   1      -2.414  -4.775 133.067  0.00  0.00    -0.251 OA
ENDBRANCH  23  24
ENDBRANCH  12  23
BRANCH  13  27
ATOM     27  O   LIG A   1      -4.721  -2.503 134.628  0.00  0.00    -0.454 OA
BRANCH  27  28
ATOM     28  C   LIG A   1      -3.694  -1.694 134.953  0.00  0.00    +0.304 C 
ATOM     29  C   LIG A   1      -2.728  -2.410 135.844  0.00  0.00    +0.136 C 
ATOM     30  O   LIG A   1      -3.605  -0.510 134.635  0.00  0.00    -0.251 OA
ENDBRANCH  27  28
ENDBRANCH  13  27
BRANCH  14  31
ATOM     31  O   LIG A   1      -7.027  -3.931 134.234  0.00  0.00    -0.458 OA
BRANCH  31  32
ATOM     32  C   LIG A   1      -8.009  -3.831 135.173  0.00  0.00    +0.304 C 
ATOM     33  C   LIG A   1      -8.363  -5.183 135.692  0.00  0.00    +0.136 C 
ATOM     34  O   LIG A   1      -8.555  -2.801 135.552  0.00  0.00    -0.251 OA
ENDBRANCH  31  32
ENDBRANCH  14  31
TORSDOF 7
ENDMDL
