MODEL 1
REMARK VINA RESULT:      -5.7      0.000      0.000
REMARK  Name = NuBBE_305
REMARK  15 active torsions:
REMARK  status: ('A' for Active; 'I' for Inactive)
REMARK    1  A    between atoms: CA_3  and  C_4
REMARK    2  A    between atoms: C_4  and  O_5
REMARK    3  A    between atoms: C_6  and  O_7
REMARK    4  A    between atoms: C_10  and  C_11
REMARK    5  A    between atoms: C_11  and  C_12
REMARK    6  A    between atoms: C_12  and  C_13
REMARK    7  A    between atoms: C_13  and  C_14
REMARK    8  A    between atoms: C_14  and  C_15
REMARK    9  A    between atoms: C_15  and  C_16
REMARK   10  A    between atoms: C_16  and  C_17
REMARK   11  A    between atoms: C_17  and  C_18
REMARK   12  A    between atoms: C_18  and  C_19
REMARK   13  A    between atoms: C_19  and  C_20
REMARK   14  A    between atoms: C_20  and  C_21
REMARK   15  A    between atoms: C_21  and  C_22
REMARK                            x       y       z     vdW  Elec       q    Type
REMARK                         _______ _______ _______ _____ _____    ______ ____
ROOT
ATOM      1  C   LIG A   1      -7.738  -1.257 122.971  0.00  0.00    +0.019 C 
ENDROOT
BRANCH   1   8
ATOM      2  H   LIG A   1      -6.816   0.900 122.793  0.00  0.00    +0.123 HD
ATOM      3  N   LIG A   1      -6.990   0.907 123.779  0.00  0.00    -0.306 NA
ATOM      4  CA  LIG A   1      -7.273   2.259 124.277  0.00  0.00    +0.108 C 
ATOM      5  C   LIG A   1      -8.773   2.644 124.277  0.00  0.00    +0.134 C 
ATOM      6  C   LIG A   1      -9.617   1.529 124.874  0.00  0.00    +0.034 C 
ATOM      7  C   LIG A   1      -9.427   0.289 124.033  0.00  0.00    +0.021 C 
ATOM      8  C   LIG A   1      -7.959  -0.150 124.029  0.00  0.00    +0.054 C 
BRANCH   5   9
ATOM      9  O   LIG A   1      -8.987   3.840 125.028  0.00  0.00    -0.390 OA
ATOM     10  H   LIG A   1      -9.580   3.612 125.769  0.00  0.00    +0.210 HD
ENDBRANCH   5   9
BRANCH   4  11
ATOM     11  C   LIG A   1      -6.461   3.361 123.525  0.00  0.00    +0.177 C 
BRANCH  11  12
ATOM     12  O   LIG A   1      -6.541   4.631 124.167  0.00  0.00    -0.393 OA
ATOM     13  H   LIG A   1      -7.488   4.774 124.384  0.00  0.00    +0.209 HD
ENDBRANCH  11  12
ENDBRANCH   4  11
ENDBRANCH   1   8
BRANCH   1  14
ATOM     14  C   LIG A   1      -8.787  -2.405 122.892  0.00  0.00    +0.002 C 
BRANCH  14  15
ATOM     15  C   LIG A   1      -9.026  -3.502 124.000  0.00  0.00    +0.000 C 
BRANCH  15  16
ATOM     16  C   LIG A   1      -8.227  -3.661 125.344  0.00  0.00    -0.000 C 
BRANCH  16  17
ATOM     17  C   LIG A   1      -8.962  -3.116 126.602  0.00  0.00    -0.000 C 
BRANCH  17  18
ATOM     18  C   LIG A   1      -8.938  -3.959 127.931  0.00  0.00    -0.000 C 
BRANCH  18  19
ATOM     19  C   LIG A   1      -8.258  -3.119 129.044  0.00  0.00    +0.000 C 
BRANCH  19  20
ATOM     20  C   LIG A   1      -6.788  -3.389 129.431  0.00  0.00    +0.000 C 
BRANCH  20  21
ATOM     21  C   LIG A   1      -5.766  -2.299 129.091  0.00  0.00    +0.007 C 
BRANCH  21  22
ATOM     22  C   LIG A   1      -5.494  -2.215 127.582  0.00  0.00    +0.074 C 
BRANCH  22  23
ATOM     23  C   LIG A   1      -5.768  -0.889 126.947  0.00  0.00    +0.130 C 
ATOM     24  C   LIG A   1      -6.860  -0.037 127.465  0.00  0.00    +0.086 C 
ATOM     25  O   LIG A   1      -5.115  -0.529 125.925  0.00  0.00    -0.298 OA
ENDBRANCH  22  23
ENDBRANCH  21  22
ENDBRANCH  20  21
ENDBRANCH  19  20
ENDBRANCH  18  19
ENDBRANCH  17  18
ENDBRANCH  16  17
ENDBRANCH  15  16
ENDBRANCH  14  15
ENDBRANCH   1  14
TORSDOF 14
ENDMDL
MODEL 2
REMARK VINA RESULT:      -5.4      1.812      3.189
REMARK  Name = NuBBE_305
REMARK  15 active torsions:
REMARK  status: ('A' for Active; 'I' for Inactive)
REMARK    1  A    between atoms: CA_3  and  C_4
REMARK    2  A    between atoms: C_4  and  O_5
REMARK    3  A    between atoms: C_6  and  O_7
REMARK    4  A    between atoms: C_10  and  C_11
REMARK    5  A    between atoms: C_11  and  C_12
REMARK    6  A    between atoms: C_12  and  C_13
REMARK    7  A    between atoms: C_13  and  C_14
REMARK    8  A    between atoms: C_14  and  C_15
REMARK    9  A    between atoms: C_15  and  C_16
REMARK   10  A    between atoms: C_16  and  C_17
REMARK   11  A    between atoms: C_17  and  C_18
REMARK   12  A    between atoms: C_18  and  C_19
REMARK   13  A    between atoms: C_19  and  C_20
REMARK   14  A    between atoms: C_20  and  C_21
REMARK   15  A    between atoms: C_21  and  C_22
REMARK                            x       y       z     vdW  Elec       q    Type
REMARK                         _______ _______ _______ _____ _____    ______ ____
ROOT
ATOM      1  C   LIG A   1      -9.941   0.471 125.324  0.00  0.00    +0.019 C 
ENDROOT
BRANCH   1   8
ATOM      2  H   LIG A   1      -9.127   2.548 126.070  0.00  0.00    +0.123 HD
ATOM      3  N   LIG A   1      -9.258   2.790 125.107  0.00  0.00    -0.306 NA
ATOM      4  CA  LIG A   1      -8.299   3.810 124.662  0.00  0.00    +0.108 C 
ATOM      5  C   LIG A   1      -6.986   3.243 124.068  0.00  0.00    +0.134 C 
ATOM      6  C   LIG A   1      -7.280   2.132 123.071  0.00  0.00    +0.034 C 
ATOM      7  C   LIG A   1      -8.010   1.026 123.796  0.00  0.00    +0.021 C 
ATOM      8  C   LIG A   1      -9.334   1.533 124.377  0.00  0.00    +0.054 C 
BRANCH   5   9
ATOM      9  O   LIG A   1      -6.245   4.272 123.410  0.00  0.00    -0.390 OA
ATOM     10  H   LIG A   1      -5.913   4.876 124.102  0.00  0.00    +0.210 HD
ENDBRANCH   5   9
BRANCH   4  11
ATOM     11  C   LIG A   1      -7.950   4.839 125.784  0.00  0.00    +0.177 C 
BRANCH  11  12
ATOM     12  O   LIG A   1      -9.024   5.739 126.052  0.00  0.00    -0.393 OA
ATOM     13  H   LIG A   1      -9.751   5.198 126.429  0.00  0.00    +0.209 HD
ENDBRANCH  11  12
ENDBRANCH   4  11
ENDBRANCH   1   8
BRANCH   1  14
ATOM     14  C   LIG A   1      -8.993  -0.633 125.879  0.00  0.00    +0.002 C 
BRANCH  14  15
ATOM     15  C   LIG A   1      -9.279  -2.183 125.846  0.00  0.00    +0.000 C 
BRANCH  15  16
ATOM     16  C   LIG A   1      -9.129  -3.135 124.604  0.00  0.00    -0.000 C 
BRANCH  16  17
ATOM     17  C   LIG A   1      -7.673  -3.606 124.322  0.00  0.00    -0.000 C 
BRANCH  17  18
ATOM     18  C   LIG A   1      -6.632  -2.575 123.744  0.00  0.00    -0.000 C 
BRANCH  18  19
ATOM     19  C   LIG A   1      -5.516  -2.348 124.798  0.00  0.00    +0.000 C 
BRANCH  19  20
ATOM     20  C   LIG A   1      -5.373  -0.977 125.491  0.00  0.00    +0.000 C 
BRANCH  20  21
ATOM     21  C   LIG A   1      -5.635  -0.926 127.000  0.00  0.00    +0.007 C 
BRANCH  21  22
ATOM     22  C   LIG A   1      -5.375  -2.281 127.675  0.00  0.00    +0.074 C 
BRANCH  22  23
ATOM     23  C   LIG A   1      -6.160  -2.546 128.920  0.00  0.00    +0.130 C 
ATOM     24  C   LIG A   1      -7.520  -3.120 128.824  0.00  0.00    +0.086 C 
ATOM     25  O   LIG A   1      -5.694  -2.213 130.047  0.00  0.00    -0.298 OA
ENDBRANCH  22  23
ENDBRANCH  21  22
ENDBRANCH  20  21
ENDBRANCH  19  20
ENDBRANCH  18  19
ENDBRANCH  17  18
ENDBRANCH  16  17
ENDBRANCH  15  16
ENDBRANCH  14  15
ENDBRANCH   1  14
TORSDOF 14
ENDMDL
MODEL 3
REMARK VINA RESULT:      -5.4      6.655      8.552
REMARK  Name = NuBBE_305
REMARK  15 active torsions:
REMARK  status: ('A' for Active; 'I' for Inactive)
REMARK    1  A    between atoms: CA_3  and  C_4
REMARK    2  A    between atoms: C_4  and  O_5
REMARK    3  A    between atoms: C_6  and  O_7
REMARK    4  A    between atoms: C_10  and  C_11
REMARK    5  A    between atoms: C_11  and  C_12
REMARK    6  A    between atoms: C_12  and  C_13
REMARK    7  A    between atoms: C_13  and  C_14
REMARK    8  A    between atoms: C_14  and  C_15
REMARK    9  A    between atoms: C_15  and  C_16
REMARK   10  A    between atoms: C_16  and  C_17
REMARK   11  A    between atoms: C_17  and  C_18
REMARK   12  A    between atoms: C_18  and  C_19
REMARK   13  A    between atoms: C_19  and  C_20
REMARK   14  A    between atoms: C_20  and  C_21
REMARK   15  A    between atoms: C_21  and  C_22
REMARK                            x       y       z     vdW  Elec       q    Type
REMARK                         _______ _______ _______ _____ _____    ______ ____
ROOT
ATOM      1  C   LIG A   1      -9.359   5.950 130.952  0.00  0.00    +0.019 C 
ENDROOT
BRANCH   1   8
ATOM      2  H   LIG A   1      -9.767   6.470 128.694  0.00  0.00    +0.123 HD
ATOM      3  N   LIG A   1      -9.969   7.371 129.081  0.00  0.00    -0.306 NA
ATOM      4  CA  LIG A   1     -10.975   8.094 128.292  0.00  0.00    +0.108 C 
ATOM      5  C   LIG A   1     -12.437   7.862 128.746  0.00  0.00    +0.134 C 
ATOM      6  C   LIG A   1     -12.561   7.994 130.256  0.00  0.00    +0.034 C 
ATOM      7  C   LIG A   1     -11.675   6.952 130.898  0.00  0.00    +0.021 C 
ATOM      8  C   LIG A   1     -10.210   7.160 130.501  0.00  0.00    +0.054 C 
BRANCH   5   9
ATOM      9  O   LIG A   1     -13.313   8.803 128.125  0.00  0.00    -0.390 OA
ATOM     10  H   LIG A   1     -14.204   8.659 128.500  0.00  0.00    +0.210 HD
ENDBRANCH   5   9
BRANCH   4  11
ATOM     11  C   LIG A   1     -10.862   7.803 126.761  0.00  0.00    +0.177 C 
BRANCH  11  12
ATOM     12  O   LIG A   1     -10.291   6.526 126.489  0.00  0.00    -0.393 OA
ATOM     13  H   LIG A   1     -10.017   6.539 125.546  0.00  0.00    +0.209 HD
ENDBRANCH  11  12
ENDBRANCH   4  11
ENDBRANCH   1   8
BRANCH   1  14
ATOM     14  C   LIG A   1      -7.914   6.228 131.462  0.00  0.00    +0.002 C 
BRANCH  14  15
ATOM     15  C   LIG A   1      -7.337   5.780 132.859  0.00  0.00    +0.000 C 
BRANCH  15  16
ATOM     16  C   LIG A   1      -8.170   5.355 134.122  0.00  0.00    -0.000 C 
BRANCH  16  17
ATOM     17  C   LIG A   1      -8.966   4.029 133.956  0.00  0.00    -0.000 C 
BRANCH  17  18
ATOM     18  C   LIG A   1      -8.276   2.802 133.250  0.00  0.00    -0.000 C 
BRANCH  18  19
ATOM     19  C   LIG A   1      -9.294   2.144 132.282  0.00  0.00    +0.000 C 
BRANCH  19  20
ATOM     20  C   LIG A   1      -8.856   1.733 130.860  0.00  0.00    +0.000 C 
BRANCH  20  21
ATOM     21  C   LIG A   1      -8.986   2.789 129.757  0.00  0.00    +0.007 C 
BRANCH  21  22
ATOM     22  C   LIG A   1      -7.739   2.842 128.863  0.00  0.00    +0.074 C 
BRANCH  22  23
ATOM     23  C   LIG A   1      -7.691   3.972 127.884  0.00  0.00    +0.130 C 
ATOM     24  C   LIG A   1      -6.550   4.091 126.952  0.00  0.00    +0.086 C 
ATOM     25  O   LIG A   1      -8.587   4.865 127.902  0.00  0.00    -0.298 OA
ENDBRANCH  22  23
ENDBRANCH  21  22
ENDBRANCH  20  21
ENDBRANCH  19  20
ENDBRANCH  18  19
ENDBRANCH  17  18
ENDBRANCH  16  17
ENDBRANCH  15  16
ENDBRANCH  14  15
ENDBRANCH   1  14
TORSDOF 14
ENDMDL
MODEL 4
REMARK VINA RESULT:      -5.3      1.535      3.539
REMARK  Name = NuBBE_305
REMARK  15 active torsions:
REMARK  status: ('A' for Active; 'I' for Inactive)
REMARK    1  A    between atoms: CA_3  and  C_4
REMARK    2  A    between atoms: C_4  and  O_5
REMARK    3  A    between atoms: C_6  and  O_7
REMARK    4  A    between atoms: C_10  and  C_11
REMARK    5  A    between atoms: C_11  and  C_12
REMARK    6  A    between atoms: C_12  and  C_13
REMARK    7  A    between atoms: C_13  and  C_14
REMARK    8  A    between atoms: C_14  and  C_15
REMARK    9  A    between atoms: C_15  and  C_16
REMARK   10  A    between atoms: C_16  and  C_17
REMARK   11  A    between atoms: C_17  and  C_18
REMARK   12  A    between atoms: C_18  and  C_19
REMARK   13  A    between atoms: C_19  and  C_20
REMARK   14  A    between atoms: C_20  and  C_21
REMARK   15  A    between atoms: C_21  and  C_22
REMARK                            x       y       z     vdW  Elec       q    Type
REMARK                         _______ _______ _______ _____ _____    ______ ____
ROOT
ATOM      1  C   LIG A   1      -5.268   0.019 126.458  0.00  0.00    +0.019 C 
ENDROOT
BRANCH   1   8
ATOM      2  H   LIG A   1      -5.662   1.500 124.674  0.00  0.00    +0.123 HD
ATOM      3  N   LIG A   1      -6.173   1.995 125.379  0.00  0.00    -0.306 NA
ATOM      4  CA  LIG A   1      -7.301   2.747 124.812  0.00  0.00    +0.108 C 
ATOM      5  C   LIG A   1      -8.636   1.964 124.765  0.00  0.00    +0.134 C 
ATOM      6  C   LIG A   1      -8.903   1.271 126.093  0.00  0.00    +0.034 C 
ATOM      7  C   LIG A   1      -7.775   0.303 126.357  0.00  0.00    +0.021 C 
ATOM      8  C   LIG A   1      -6.432   1.037 126.444  0.00  0.00    +0.054 C 
BRANCH   5   9
ATOM      9  O   LIG A   1      -9.725   2.842 124.474  0.00  0.00    -0.390 OA
ATOM     10  H   LIG A   1      -9.677   3.582 125.109  0.00  0.00    +0.210 HD
ENDBRANCH   5   9
BRANCH   4  11
ATOM     11  C   LIG A   1      -6.992   3.317 123.392  0.00  0.00    +0.177 C 
BRANCH  11  12
ATOM     12  O   LIG A   1      -6.243   4.530 123.442  0.00  0.00    -0.393 OA
ATOM     13  H   LIG A   1      -6.227   4.884 122.526  0.00  0.00    +0.209 HD
ENDBRANCH  11  12
ENDBRANCH   4  11
ENDBRANCH   1   8
BRANCH   1  14
ATOM     14  C   LIG A   1      -5.623  -1.485 126.659  0.00  0.00    +0.002 C 
BRANCH  14  15
ATOM     15  C   LIG A   1      -5.622  -2.247 128.039  0.00  0.00    +0.000 C 
BRANCH  15  16
ATOM     16  C   LIG A   1      -6.536  -1.937 129.280  0.00  0.00    -0.000 C 
BRANCH  16  17
ATOM     17  C   LIG A   1      -7.920  -2.646 129.257  0.00  0.00    -0.000 C 
BRANCH  17  18
ATOM     18  C   LIG A   1      -8.119  -3.912 128.342  0.00  0.00    -0.000 C 
BRANCH  18  19
ATOM     19  C   LIG A   1      -9.402  -3.718 127.492  0.00  0.00    +0.000 C 
BRANCH  19  20
ATOM     20  C   LIG A   1      -9.324  -3.014 126.121  0.00  0.00    +0.000 C 
BRANCH  20  21
ATOM     21  C   LIG A   1      -8.318  -3.569 125.107  0.00  0.00    +0.007 C 
BRANCH  21  22
ATOM     22  C   LIG A   1      -8.704  -3.218 123.663  0.00  0.00    +0.074 C 
BRANCH  22  23
ATOM     23  C   LIG A   1      -8.568  -1.776 123.289  0.00  0.00    +0.130 C 
ATOM     24  C   LIG A   1      -7.224  -1.181 123.129  0.00  0.00    +0.086 C 
ATOM     25  O   LIG A   1      -9.598  -1.049 123.181  0.00  0.00    -0.298 OA
ENDBRANCH  22  23
ENDBRANCH  21  22
ENDBRANCH  20  21
ENDBRANCH  19  20
ENDBRANCH  18  19
ENDBRANCH  17  18
ENDBRANCH  16  17
ENDBRANCH  15  16
ENDBRANCH  14  15
ENDBRANCH   1  14
TORSDOF 14
ENDMDL
MODEL 5
REMARK VINA RESULT:      -5.2      6.371      8.102
REMARK  Name = NuBBE_305
REMARK  15 active torsions:
REMARK  status: ('A' for Active; 'I' for Inactive)
REMARK    1  A    between atoms: CA_3  and  C_4
REMARK    2  A    between atoms: C_4  and  O_5
REMARK    3  A    between atoms: C_6  and  O_7
REMARK    4  A    between atoms: C_10  and  C_11
REMARK    5  A    between atoms: C_11  and  C_12
REMARK    6  A    between atoms: C_12  and  C_13
REMARK    7  A    between atoms: C_13  and  C_14
REMARK    8  A    between atoms: C_14  and  C_15
REMARK    9  A    between atoms: C_15  and  C_16
REMARK   10  A    between atoms: C_16  and  C_17
REMARK   11  A    between atoms: C_17  and  C_18
REMARK   12  A    between atoms: C_18  and  C_19
REMARK   13  A    between atoms: C_19  and  C_20
REMARK   14  A    between atoms: C_20  and  C_21
REMARK   15  A    between atoms: C_21  and  C_22
REMARK                            x       y       z     vdW  Elec       q    Type
REMARK                         _______ _______ _______ _____ _____    ______ ____
ROOT
ATOM      1  C   LIG A   1      -8.741   6.096 130.630  0.00  0.00    +0.019 C 
ENDROOT
BRANCH   1   8
ATOM      2  H   LIG A   1      -9.439   6.544 128.429  0.00  0.00    +0.123 HD
ATOM      3  N   LIG A   1      -9.743   7.402 128.847  0.00  0.00    -0.306 NA
ATOM      4  CA  LIG A   1     -10.922   7.955 128.167  0.00  0.00    +0.108 C 
ATOM      5  C   LIG A   1     -12.279   7.493 128.752  0.00  0.00    +0.134 C 
ATOM      6  C   LIG A   1     -12.278   7.604 130.269  0.00  0.00    +0.034 C 
ATOM      7  C   LIG A   1     -11.181   6.717 130.809  0.00  0.00    +0.021 C 
ATOM      8  C   LIG A   1      -9.812   7.155 130.280  0.00  0.00    +0.054 C 
BRANCH   5   9
ATOM      9  O   LIG A   1     -13.348   8.283 128.231  0.00  0.00    -0.390 OA
ATOM     10  H   LIG A   1     -13.222   8.337 127.264  0.00  0.00    +0.210 HD
ENDBRANCH   5   9
BRANCH   4  11
ATOM     11  C   LIG A   1     -10.911   7.687 126.628  0.00  0.00    +0.177 C 
BRANCH  11  12
ATOM     12  O   LIG A   1     -11.851   6.686 126.242  0.00  0.00    -0.393 OA
ATOM     13  H   LIG A   1     -11.952   6.761 125.268  0.00  0.00    +0.209 HD
ENDBRANCH  11  12
ENDBRANCH   4  11
ENDBRANCH   1   8
BRANCH   1  14
ATOM     14  C   LIG A   1      -8.081   6.170 132.039  0.00  0.00    +0.002 C 
BRANCH  14  15
ATOM     15  C   LIG A   1      -8.681   5.556 133.362  0.00  0.00    +0.000 C 
BRANCH  15  16
ATOM     16  C   LIG A   1      -8.100   4.346 134.179  0.00  0.00    -0.000 C 
BRANCH  16  17
ATOM     17  C   LIG A   1      -8.368   2.950 133.546  0.00  0.00    -0.000 C 
BRANCH  17  18
ATOM     18  C   LIG A   1      -9.705   2.713 132.748  0.00  0.00    -0.000 C 
BRANCH  18  19
ATOM     19  C   LIG A   1      -9.423   1.733 131.579  0.00  0.00    +0.000 C 
BRANCH  19  20
ATOM     20  C   LIG A   1      -8.877   0.319 131.868  0.00  0.00    +0.000 C 
BRANCH  20  21
ATOM     21  C   LIG A   1      -7.690  -0.157 131.025  0.00  0.00    +0.007 C 
BRANCH  21  22
ATOM     22  C   LIG A   1      -7.760  -1.662 130.729  0.00  0.00    +0.074 C 
BRANCH  22  23
ATOM     23  C   LIG A   1      -7.882  -2.033 129.285  0.00  0.00    +0.130 C 
ATOM     24  C   LIG A   1      -8.413  -3.360 128.909  0.00  0.00    +0.086 C 
ATOM     25  O   LIG A   1      -7.464  -1.243 128.390  0.00  0.00    -0.298 OA
ENDBRANCH  22  23
ENDBRANCH  21  22
ENDBRANCH  20  21
ENDBRANCH  19  20
ENDBRANCH  18  19
ENDBRANCH  17  18
ENDBRANCH  16  17
ENDBRANCH  15  16
ENDBRANCH  14  15
ENDBRANCH   1  14
TORSDOF 14
ENDMDL
MODEL 6
REMARK VINA RESULT:      -5.2      1.919      2.490
REMARK  Name = NuBBE_305
REMARK  15 active torsions:
REMARK  status: ('A' for Active; 'I' for Inactive)
REMARK    1  A    between atoms: CA_3  and  C_4
REMARK    2  A    between atoms: C_4  and  O_5
REMARK    3  A    between atoms: C_6  and  O_7
REMARK    4  A    between atoms: C_10  and  C_11
REMARK    5  A    between atoms: C_11  and  C_12
REMARK    6  A    between atoms: C_12  and  C_13
REMARK    7  A    between atoms: C_13  and  C_14
REMARK    8  A    between atoms: C_14  and  C_15
REMARK    9  A    between atoms: C_15  and  C_16
REMARK   10  A    between atoms: C_16  and  C_17
REMARK   11  A    between atoms: C_17  and  C_18
REMARK   12  A    between atoms: C_18  and  C_19
REMARK   13  A    between atoms: C_19  and  C_20
REMARK   14  A    between atoms: C_20  and  C_21
REMARK   15  A    between atoms: C_21  and  C_22
REMARK                            x       y       z     vdW  Elec       q    Type
REMARK                         _______ _______ _______ _____ _____    ______ ____
ROOT
ATOM      1  C   LIG A   1      -7.551  -1.438 123.147  0.00  0.00    +0.019 C 
ENDROOT
BRANCH   1   8
ATOM      2  H   LIG A   1      -7.355   0.738 122.274  0.00  0.00    +0.123 HD
ATOM      3  N   LIG A   1      -7.080   0.942 123.215  0.00  0.00    -0.306 NA
ATOM      4  CA  LIG A   1      -7.439   2.311 123.606  0.00  0.00    +0.108 C 
ATOM      5  C   LIG A   1      -8.835   2.448 124.263  0.00  0.00    +0.134 C 
ATOM      6  C   LIG A   1      -9.036   1.381 125.329  0.00  0.00    +0.034 C 
ATOM      7  C   LIG A   1      -8.933   0.027 124.668  0.00  0.00    +0.021 C 
ATOM      8  C   LIG A   1      -7.555  -0.167 124.029  0.00  0.00    +0.054 C 
BRANCH   5   9
ATOM      9  O   LIG A   1      -8.987   3.735 124.863  0.00  0.00    -0.390 OA
ATOM     10  H   LIG A   1      -9.841   4.096 124.558  0.00  0.00    +0.210 HD
ENDBRANCH   5   9
BRANCH   4  11
ATOM     11  C   LIG A   1      -7.330   3.325 122.423  0.00  0.00    +0.177 C 
BRANCH  11  12
ATOM     12  O   LIG A   1      -8.602   3.665 121.877  0.00  0.00    -0.393 OA
ATOM     13  H   LIG A   1      -8.484   4.520 121.409  0.00  0.00    +0.209 HD
ENDBRANCH  11  12
ENDBRANCH   4  11
ENDBRANCH   1   8
BRANCH   1  14
ATOM     14  C   LIG A   1      -7.647  -2.818 123.863  0.00  0.00    +0.002 C 
BRANCH  14  15
ATOM     15  C   LIG A   1      -8.965  -3.451 124.453  0.00  0.00    +0.000 C 
BRANCH  15  16
ATOM     16  C   LIG A   1      -9.447  -3.384 125.947  0.00  0.00    -0.000 C 
BRANCH  16  17
ATOM     17  C   LIG A   1      -8.318  -3.090 126.978  0.00  0.00    -0.000 C 
BRANCH  17  18
ATOM     18  C   LIG A   1      -8.547  -3.458 128.492  0.00  0.00    -0.000 C 
BRANCH  18  19
ATOM     19  C   LIG A   1      -7.386  -2.863 129.331  0.00  0.00    +0.000 C 
BRANCH  19  20
ATOM     20  C   LIG A   1      -7.033  -3.469 130.706  0.00  0.00    +0.000 C 
BRANCH  20  21
ATOM     21  C   LIG A   1      -5.887  -4.486 130.746  0.00  0.00    +0.007 C 
BRANCH  21  22
ATOM     22  C   LIG A   1      -4.647  -3.985 129.992  0.00  0.00    +0.074 C 
BRANCH  22  23
ATOM     23  C   LIG A   1      -3.661  -3.211 130.808  0.00  0.00    +0.130 C 
ATOM     24  C   LIG A   1      -3.700  -3.297 132.284  0.00  0.00    +0.086 C 
ATOM     25  O   LIG A   1      -2.844  -2.429 130.242  0.00  0.00    -0.298 OA
ENDBRANCH  22  23
ENDBRANCH  21  22
ENDBRANCH  20  21
ENDBRANCH  19  20
ENDBRANCH  18  19
ENDBRANCH  17  18
ENDBRANCH  16  17
ENDBRANCH  15  16
ENDBRANCH  14  15
ENDBRANCH   1  14
TORSDOF 14
ENDMDL
MODEL 7
REMARK VINA RESULT:      -5.2      2.746      4.700
REMARK  Name = NuBBE_305
REMARK  15 active torsions:
REMARK  status: ('A' for Active; 'I' for Inactive)
REMARK    1  A    between atoms: CA_3  and  C_4
REMARK    2  A    between atoms: C_4  and  O_5
REMARK    3  A    between atoms: C_6  and  O_7
REMARK    4  A    between atoms: C_10  and  C_11
REMARK    5  A    between atoms: C_11  and  C_12
REMARK    6  A    between atoms: C_12  and  C_13
REMARK    7  A    between atoms: C_13  and  C_14
REMARK    8  A    between atoms: C_14  and  C_15
REMARK    9  A    between atoms: C_15  and  C_16
REMARK   10  A    between atoms: C_16  and  C_17
REMARK   11  A    between atoms: C_17  and  C_18
REMARK   12  A    between atoms: C_18  and  C_19
REMARK   13  A    between atoms: C_19  and  C_20
REMARK   14  A    between atoms: C_20  and  C_21
REMARK   15  A    between atoms: C_21  and  C_22
REMARK                            x       y       z     vdW  Elec       q    Type
REMARK                         _______ _______ _______ _____ _____    ______ ____
ROOT
ATOM      1  C   LIG A   1      -5.389  -0.341 125.958  0.00  0.00    +0.019 C 
ENDROOT
BRANCH   1   8
ATOM      2  H   LIG A   1      -3.527   0.933 126.623  0.00  0.00    +0.123 HD
ATOM      3  N   LIG A   1      -4.226   1.432 127.138  0.00  0.00    -0.306 NA
ATOM      4  CA  LIG A   1      -3.877   2.849 127.305  0.00  0.00    +0.108 C 
ATOM      5  C   LIG A   1      -4.410   3.780 126.188  0.00  0.00    +0.134 C 
ATOM      6  C   LIG A   1      -5.874   3.490 125.897  0.00  0.00    +0.034 C 
ATOM      7  C   LIG A   1      -5.992   2.055 125.440  0.00  0.00    +0.021 C 
ATOM      8  C   LIG A   1      -5.503   1.092 126.528  0.00  0.00    +0.054 C 
BRANCH   5   9
ATOM      9  O   LIG A   1      -4.276   5.150 126.566  0.00  0.00    -0.390 OA
ATOM     10  H   LIG A   1      -3.336   5.298 126.787  0.00  0.00    +0.210 HD
ENDBRANCH   5   9
BRANCH   4  11
ATOM     11  C   LIG A   1      -2.340   3.076 127.469  0.00  0.00    +0.177 C 
BRANCH  11  12
ATOM     12  O   LIG A   1      -1.766   3.750 126.352  0.00  0.00    -0.393 OA
ATOM     13  H   LIG A   1      -1.176   3.101 125.909  0.00  0.00    +0.209 HD
ENDBRANCH  11  12
ENDBRANCH   4  11
ENDBRANCH   1   8
BRANCH   1  14
ATOM     14  C   LIG A   1      -5.688  -1.530 126.920  0.00  0.00    +0.002 C 
BRANCH  14  15
ATOM     15  C   LIG A   1      -6.985  -1.684 127.805  0.00  0.00    +0.000 C 
BRANCH  15  16
ATOM     16  C   LIG A   1      -7.602  -3.030 128.332  0.00  0.00    -0.000 C 
BRANCH  16  17
ATOM     17  C   LIG A   1      -8.731  -3.618 127.438  0.00  0.00    -0.000 C 
BRANCH  17  18
ATOM     18  C   LIG A   1      -9.187  -2.824 126.156  0.00  0.00    -0.000 C 
BRANCH  18  19
ATOM     19  C   LIG A   1      -8.683  -3.576 124.897  0.00  0.00    +0.000 C 
BRANCH  19  20
ATOM     20  C   LIG A   1      -7.344  -3.179 124.241  0.00  0.00    +0.000 C 
BRANCH  20  21
ATOM     21  C   LIG A   1      -7.390  -2.087 123.167  0.00  0.00    +0.007 C 
BRANCH  21  22
ATOM     22  C   LIG A   1      -8.812  -1.864 122.633  0.00  0.00    +0.074 C 
BRANCH  22  23
ATOM     23  C   LIG A   1      -9.409  -0.524 122.922  0.00  0.00    +0.130 C 
ATOM     24  C   LIG A   1      -8.797   0.349 123.946  0.00  0.00    +0.086 C 
ATOM     25  O   LIG A   1     -10.478  -0.168 122.345  0.00  0.00    -0.298 OA
ENDBRANCH  22  23
ENDBRANCH  21  22
ENDBRANCH  20  21
ENDBRANCH  19  20
ENDBRANCH  18  19
ENDBRANCH  17  18
ENDBRANCH  16  17
ENDBRANCH  15  16
ENDBRANCH  14  15
ENDBRANCH   1  14
TORSDOF 14
ENDMDL
MODEL 8
REMARK VINA RESULT:      -5.2      2.159      3.335
REMARK  Name = NuBBE_305
REMARK  15 active torsions:
REMARK  status: ('A' for Active; 'I' for Inactive)
REMARK    1  A    between atoms: CA_3  and  C_4
REMARK    2  A    between atoms: C_4  and  O_5
REMARK    3  A    between atoms: C_6  and  O_7
REMARK    4  A    between atoms: C_10  and  C_11
REMARK    5  A    between atoms: C_11  and  C_12
REMARK    6  A    between atoms: C_12  and  C_13
REMARK    7  A    between atoms: C_13  and  C_14
REMARK    8  A    between atoms: C_14  and  C_15
REMARK    9  A    between atoms: C_15  and  C_16
REMARK   10  A    between atoms: C_16  and  C_17
REMARK   11  A    between atoms: C_17  and  C_18
REMARK   12  A    between atoms: C_18  and  C_19
REMARK   13  A    between atoms: C_19  and  C_20
REMARK   14  A    between atoms: C_20  and  C_21
REMARK   15  A    between atoms: C_21  and  C_22
REMARK                            x       y       z     vdW  Elec       q    Type
REMARK                         _______ _______ _______ _____ _____    ______ ____
ROOT
ATOM      1  C   LIG A   1      -9.268  -3.290 123.726  0.00  0.00    +0.019 C 
ENDROOT
BRANCH   1   8
ATOM      2  H   LIG A   1      -9.708  -1.208 124.727  0.00  0.00    +0.123 HD
ATOM      3  N   LIG A   1      -9.486  -0.874 123.810  0.00  0.00    -0.306 NA
ATOM      4  CA  LIG A   1      -8.891   0.468 123.842  0.00  0.00    +0.108 C 
ATOM      5  C   LIG A   1      -7.345   0.485 123.937  0.00  0.00    +0.134 C 
ATOM      6  C   LIG A   1      -6.732  -0.485 122.939  0.00  0.00    +0.034 C 
ATOM      7  C   LIG A   1      -7.230  -1.874 123.262  0.00  0.00    +0.021 C 
ATOM      8  C   LIG A   1      -8.757  -1.949 123.151  0.00  0.00    +0.054 C 
BRANCH   5   9
ATOM      9  O   LIG A   1      -6.838   1.795 123.680  0.00  0.00    -0.390 OA
ATOM     10  H   LIG A   1      -6.153   1.709 122.989  0.00  0.00    +0.210 HD
ENDBRANCH   5   9
BRANCH   4  11
ATOM     11  C   LIG A   1      -9.483   1.362 124.978  0.00  0.00    +0.177 C 
BRANCH  11  12
ATOM     12  O   LIG A   1      -9.459   2.749 124.649  0.00  0.00    -0.393 OA
ATOM     13  H   LIG A   1      -8.725   3.145 125.169  0.00  0.00    +0.209 HD
ENDBRANCH  11  12
ENDBRANCH   4  11
ENDBRANCH   1   8
BRANCH   1  14
ATOM     14  C   LIG A   1      -8.392  -3.998 124.803  0.00  0.00    +0.002 C 
BRANCH  14  15
ATOM     15  C   LIG A   1      -8.365  -3.638 126.338  0.00  0.00    +0.000 C 
BRANCH  15  16
ATOM     16  C   LIG A   1      -8.525  -2.206 126.965  0.00  0.00    -0.000 C 
BRANCH  16  17
ATOM     17  C   LIG A   1      -7.233  -1.339 126.938  0.00  0.00    -0.000 C 
BRANCH  17  18
ATOM     18  C   LIG A   1      -5.835  -2.050 126.809  0.00  0.00    -0.000 C 
BRANCH  18  19
ATOM     19  C   LIG A   1      -5.206  -2.177 128.221  0.00  0.00    +0.000 C 
BRANCH  19  20
ATOM     20  C   LIG A   1      -5.790  -3.175 129.243  0.00  0.00    +0.000 C 
BRANCH  20  21
ATOM     21  C   LIG A   1      -6.203  -2.615 130.609  0.00  0.00    +0.007 C 
BRANCH  21  22
ATOM     22  C   LIG A   1      -7.700  -2.282 130.664  0.00  0.00    +0.074 C 
BRANCH  22  23
ATOM     23  C   LIG A   1      -8.036  -0.869 131.020  0.00  0.00    +0.130 C 
ATOM     24  C   LIG A   1      -7.792   0.214 130.043  0.00  0.00    +0.086 C 
ATOM     25  O   LIG A   1      -8.460  -0.590 132.179  0.00  0.00    -0.298 OA
ENDBRANCH  22  23
ENDBRANCH  21  22
ENDBRANCH  20  21
ENDBRANCH  19  20
ENDBRANCH  18  19
ENDBRANCH  17  18
ENDBRANCH  16  17
ENDBRANCH  15  16
ENDBRANCH  14  15
ENDBRANCH   1  14
TORSDOF 14
ENDMDL
MODEL 9
REMARK VINA RESULT:      -5.2      7.348      9.407
REMARK  Name = NuBBE_305
REMARK  15 active torsions:
REMARK  status: ('A' for Active; 'I' for Inactive)
REMARK    1  A    between atoms: CA_3  and  C_4
REMARK    2  A    between atoms: C_4  and  O_5
REMARK    3  A    between atoms: C_6  and  O_7
REMARK    4  A    between atoms: C_10  and  C_11
REMARK    5  A    between atoms: C_11  and  C_12
REMARK    6  A    between atoms: C_12  and  C_13
REMARK    7  A    between atoms: C_13  and  C_14
REMARK    8  A    between atoms: C_14  and  C_15
REMARK    9  A    between atoms: C_15  and  C_16
REMARK   10  A    between atoms: C_16  and  C_17
REMARK   11  A    between atoms: C_17  and  C_18
REMARK   12  A    between atoms: C_18  and  C_19
REMARK   13  A    between atoms: C_19  and  C_20
REMARK   14  A    between atoms: C_20  and  C_21
REMARK   15  A    between atoms: C_21  and  C_22
REMARK                            x       y       z     vdW  Elec       q    Type
REMARK                         _______ _______ _______ _____ _____    ______ ____
ROOT
ATOM      1  C   LIG A   1      -8.671   6.248 130.431  0.00  0.00    +0.019 C 
ENDROOT
BRANCH   1   8
ATOM      2  H   LIG A   1      -9.477   6.626 128.254  0.00  0.00    +0.123 HD
ATOM      3  N   LIG A   1      -9.782   7.487 128.664  0.00  0.00    -0.306 NA
ATOM      4  CA  LIG A   1     -11.002   7.997 128.026  0.00  0.00    +0.108 C 
ATOM      5  C   LIG A   1     -12.321   7.521 128.685  0.00  0.00    +0.134 C 
ATOM      6  C   LIG A   1     -12.253   7.671 130.197  0.00  0.00    +0.034 C 
ATOM      7  C   LIG A   1     -11.113   6.821 130.706  0.00  0.00    +0.021 C 
ATOM      8  C   LIG A   1      -9.780   7.275 130.105  0.00  0.00    +0.054 C 
BRANCH   5   9
ATOM      9  O   LIG A   1     -13.431   8.275 128.194  0.00  0.00    -0.390 OA
ATOM     10  H   LIG A   1     -13.893   8.646 128.971  0.00  0.00    +0.210 HD
ENDBRANCH   5   9
BRANCH   4  11
ATOM     11  C   LIG A   1     -11.056   7.691 126.495  0.00  0.00    +0.177 C 
BRANCH  11  12
ATOM     12  O   LIG A   1     -11.981   6.653 126.179  0.00  0.00    -0.393 OA
ATOM     13  H   LIG A   1     -11.453   5.918 125.797  0.00  0.00    +0.209 HD
ENDBRANCH  11  12
ENDBRANCH   4  11
ENDBRANCH   1   8
BRANCH   1  14
ATOM     14  C   LIG A   1      -7.744   6.542 131.648  0.00  0.00    +0.002 C 
BRANCH  14  15
ATOM     15  C   LIG A   1      -6.168   6.556 131.614  0.00  0.00    +0.000 C 
BRANCH  15  16
ATOM     16  C   LIG A   1      -5.204   6.096 132.767  0.00  0.00    -0.000 C 
BRANCH  16  17
ATOM     17  C   LIG A   1      -4.216   4.961 132.369  0.00  0.00    -0.000 C 
BRANCH  17  18
ATOM     18  C   LIG A   1      -2.741   5.001 132.919  0.00  0.00    -0.000 C 
BRANCH  18  19
ATOM     19  C   LIG A   1      -1.781   5.348 131.750  0.00  0.00    +0.000 C 
BRANCH  19  20
ATOM     20  C   LIG A   1      -2.063   6.572 130.853  0.00  0.00    +0.000 C 
BRANCH  20  21
ATOM     21  C   LIG A   1      -2.152   6.325 129.344  0.00  0.00    +0.007 C 
BRANCH  21  22
ATOM     22  C   LIG A   1      -3.604   6.155 128.874  0.00  0.00    +0.074 C 
BRANCH  22  23
ATOM     23  C   LIG A   1      -4.078   4.744 128.733  0.00  0.00    +0.130 C 
ATOM     24  C   LIG A   1      -5.524   4.464 128.599  0.00  0.00    +0.086 C 
ATOM     25  O   LIG A   1      -3.253   3.787 128.801  0.00  0.00    -0.298 OA
ENDBRANCH  22  23
ENDBRANCH  21  22
ENDBRANCH  20  21
ENDBRANCH  19  20
ENDBRANCH  18  19
ENDBRANCH  17  18
ENDBRANCH  16  17
ENDBRANCH  15  16
ENDBRANCH  14  15
ENDBRANCH   1  14
TORSDOF 14
ENDMDL
