MODEL 1
REMARK VINA RESULT:      -7.4      0.000      0.000
REMARK  Name = NuBBE_1882
REMARK  18 active torsions:
REMARK  status: ('A' for Active; 'I' for Inactive)
REMARK    1  A    between atoms: C_4  and  O_34
REMARK    2  A    between atoms: C_5  and  O_6
REMARK    3  A    between atoms: O_6  and  C_7
REMARK    4  A    between atoms: C_8  and  O_32
REMARK    5  A    between atoms: C_12  and  C_13
REMARK    6  A    between atoms: C_15  and  O_16
REMARK    7  A    between atoms: O_16  and  C_17
REMARK    8  A    between atoms: C_17  and  C_18
REMARK    9  A    between atoms: C_20  and  O_27
REMARK   10  A    between atoms: C_22  and  O_23
REMARK   11  A    between atoms: O_23  and  C_24
REMARK   12  A    between atoms: C_24  and  C_25
REMARK   13  A    between atoms: O_27  and  C_28
REMARK   14  A    between atoms: C_29  and  O_30
REMARK   15  A    between atoms: O_30  and  C_31
REMARK   16  A    between atoms: O_32  and  C_33
REMARK   17  A    between atoms: O_34  and  C_35
REMARK   18  A    between atoms: C_35  and  C_36
REMARK                            x       y       z     vdW  Elec       q    Type
REMARK                         _______ _______ _______ _____ _____    ______ ____
ROOT
ATOM      1  O   LIG A   1      -7.942   5.157 128.889  0.00  0.00    -0.283 OA
ATOM      2  C   LIG A   1      -7.415   4.186 128.367  0.00  0.00    +0.238 A 
ATOM      3  C   LIG A   1      -6.021   4.223 127.884  0.00  0.00    +0.114 A 
ATOM      4  C   LIG A   1      -5.008   4.990 128.454  0.00  0.00    +0.191 A 
ATOM      5  C   LIG A   1      -3.682   4.912 127.974  0.00  0.00    +0.205 A 
ATOM      6  C   LIG A   1      -3.396   4.084 126.869  0.00  0.00    +0.169 A 
ATOM      7  C   LIG A   1      -4.427   3.341 126.282  0.00  0.00    +0.096 A 
ATOM      8  C   LIG A   1      -5.715   3.397 126.809  0.00  0.00    +0.147 A 
ATOM      9  O   LIG A   1      -6.663   2.588 126.238  0.00  0.00    -0.451 OA
ATOM     10  C   LIG A   1      -7.674   2.171 127.086  0.00  0.00    +0.184 A 
ATOM     11  C   LIG A   1      -8.104   2.869 128.156  0.00  0.00    +0.211 A 
ENDROOT
BRANCH  10  12
ATOM     12  C   LIG A   1      -8.128   0.812 126.776  0.00  0.00    +0.067 A 
ATOM     13  C   LIG A   1      -7.429  -0.246 127.365  0.00  0.00    +0.065 A 
ATOM     14  C   LIG A   1      -7.732  -1.560 127.018  0.00  0.00    +0.174 A 
ATOM     15  C   LIG A   1      -8.721  -1.846 126.062  0.00  0.00    +0.166 A 
ATOM     16  C   LIG A   1      -9.443  -0.792 125.493  0.00  0.00    +0.096 A 
ATOM     17  C   LIG A   1      -9.141   0.529 125.852  0.00  0.00    +0.146 A 
BRANCH  15  18
ATOM     18  O   LIG A   1      -8.923  -3.170 125.770  0.00  0.00    -0.491 OA
ATOM     19  C   LIG A   1      -8.661  -3.566 124.427  0.00  0.00    +0.277 C 
ENDBRANCH  15  18
BRANCH  14  20
ATOM     20  O   LIG A   1      -6.973  -2.653 127.504  0.00  0.00    -0.422 OA
BRANCH  20  21
ATOM     21  C   LIG A   1      -6.799  -2.906 128.864  0.00  0.00    +0.309 C 
ATOM     22  C   LIG A   1      -8.122  -3.289 129.452  0.00  0.00    +0.136 C 
ATOM     23  O   LIG A   1      -5.757  -2.848 129.500  0.00  0.00    -0.251 OA
ENDBRANCH  20  21
ENDBRANCH  14  20
BRANCH  17  24
ATOM     24  O   LIG A   1      -9.688   1.618 125.139  0.00  0.00    -0.425 OA
BRANCH  24  25
ATOM     25  C   LIG A   1     -10.020   1.518 123.785  0.00  0.00    +0.309 C 
ATOM     26  C   LIG A   1      -9.001   2.316 123.021  0.00  0.00    +0.136 C 
ATOM     27  O   LIG A   1     -10.922   0.871 123.297  0.00  0.00    -0.251 OA
ENDBRANCH  24  25
ENDBRANCH  17  24
ENDBRANCH  10  12
BRANCH   5  28
ATOM     28  O   LIG A   1      -2.775   5.656 128.690  0.00  0.00    -0.488 OA
ATOM     29  C   LIG A   1      -2.358   6.902 128.156  0.00  0.00    +0.277 C 
ENDBRANCH   5  28
BRANCH  11  30
ATOM     30  O   LIG A   1      -9.014   2.322 129.042  0.00  0.00    -0.488 OA
ATOM     31  C   LIG A   1      -8.539   1.989 130.337  0.00  0.00    +0.277 C 
ENDBRANCH  11  30
BRANCH   6  32
ATOM     32  O   LIG A   1      -2.100   3.964 126.444  0.00  0.00    -0.491 OA
ATOM     33  C   LIG A   1      -1.443   2.735 126.741  0.00  0.00    +0.277 C 
ENDBRANCH   6  32
BRANCH   4  34
ATOM     34  O   LIG A   1      -5.335   6.020 129.357  0.00  0.00    -0.421 OA
BRANCH  34  35
ATOM     35  C   LIG A   1      -5.318   5.729 130.714  0.00  0.00    +0.309 C 
ATOM     36  C   LIG A   1      -6.115   6.797 131.415  0.00  0.00    +0.136 C 
ATOM     37  O   LIG A   1      -4.727   4.811 131.263  0.00  0.00    -0.251 OA
ENDBRANCH  34  35
ENDBRANCH   4  34
TORSDOF 11
ENDMDL
MODEL 2
REMARK VINA RESULT:      -7.1      2.560      6.950
REMARK  Name = NuBBE_1882
REMARK  18 active torsions:
REMARK  status: ('A' for Active; 'I' for Inactive)
REMARK    1  A    between atoms: C_4  and  O_34
REMARK    2  A    between atoms: C_5  and  O_6
REMARK    3  A    between atoms: O_6  and  C_7
REMARK    4  A    between atoms: C_8  and  O_32
REMARK    5  A    between atoms: C_12  and  C_13
REMARK    6  A    between atoms: C_15  and  O_16
REMARK    7  A    between atoms: O_16  and  C_17
REMARK    8  A    between atoms: C_17  and  C_18
REMARK    9  A    between atoms: C_20  and  O_27
REMARK   10  A    between atoms: C_22  and  O_23
REMARK   11  A    between atoms: O_23  and  C_24
REMARK   12  A    between atoms: C_24  and  C_25
REMARK   13  A    between atoms: O_27  and  C_28
REMARK   14  A    between atoms: C_29  and  O_30
REMARK   15  A    between atoms: O_30  and  C_31
REMARK   16  A    between atoms: O_32  and  C_33
REMARK   17  A    between atoms: O_34  and  C_35
REMARK   18  A    between atoms: C_35  and  C_36
REMARK                            x       y       z     vdW  Elec       q    Type
REMARK                         _______ _______ _______ _____ _____    ______ ____
ROOT
ATOM      1  O   LIG A   1      -6.502   4.633 124.695  0.00  0.00    -0.283 OA
ATOM      2  C   LIG A   1      -6.862   3.881 125.589  0.00  0.00    +0.238 A 
ATOM      3  C   LIG A   1      -7.533   2.598 125.304  0.00  0.00    +0.114 A 
ATOM      4  C   LIG A   1      -7.298   1.818 124.174  0.00  0.00    +0.191 A 
ATOM      5  C   LIG A   1      -7.930   0.565 124.012  0.00  0.00    +0.205 A 
ATOM      6  C   LIG A   1      -8.850   0.127 124.987  0.00  0.00    +0.169 A 
ATOM      7  C   LIG A   1      -9.104   0.932 126.104  0.00  0.00    +0.096 A 
ATOM      8  C   LIG A   1      -8.427   2.138 126.263  0.00  0.00    +0.147 A 
ATOM      9  O   LIG A   1      -8.664   2.844 127.414  0.00  0.00    -0.451 OA
ATOM     10  C   LIG A   1      -7.610   3.625 127.857  0.00  0.00    +0.184 A 
ATOM     11  C   LIG A   1      -6.673   4.164 127.051  0.00  0.00    +0.211 A 
ENDROOT
BRANCH  10  12
ATOM     12  C   LIG A   1      -7.540   3.678 129.320  0.00  0.00    +0.067 A 
ATOM     13  C   LIG A   1      -7.094   2.531 129.982  0.00  0.00    +0.065 A 
ATOM     14  C   LIG A   1      -7.119   2.475 131.374  0.00  0.00    +0.174 A 
ATOM     15  C   LIG A   1      -7.609   3.551 132.132  0.00  0.00    +0.166 A 
ATOM     16  C   LIG A   1      -8.029   4.712 131.475  0.00  0.00    +0.096 A 
ATOM     17  C   LIG A   1      -7.994   4.767 130.074  0.00  0.00    +0.146 A 
BRANCH  15  18
ATOM     18  O   LIG A   1      -7.618   3.385 133.493  0.00  0.00    -0.491 OA
ATOM     19  C   LIG A   1      -8.721   3.955 134.190  0.00  0.00    +0.277 C 
ENDBRANCH  15  18
BRANCH  14  20
ATOM     20  O   LIG A   1      -6.783   1.293 132.078  0.00  0.00    -0.422 OA
BRANCH  20  21
ATOM     21  C   LIG A   1      -7.187   0.025 131.662  0.00  0.00    +0.309 C 
ATOM     22  C   LIG A   1      -8.644  -0.136 131.969  0.00  0.00    +0.136 C 
ATOM     23  O   LIG A   1      -6.501  -0.831 131.123  0.00  0.00    -0.251 OA
ENDBRANCH  20  21
ENDBRANCH  14  20
BRANCH  17  24
ATOM     24  O   LIG A   1      -8.614   5.825 129.374  0.00  0.00    -0.425 OA
BRANCH  24  25
ATOM     25  C   LIG A   1      -9.979   6.092 129.505  0.00  0.00    +0.309 C 
ATOM     26  C   LIG A   1     -10.130   7.586 129.585  0.00  0.00    +0.136 C 
ATOM     27  O   LIG A   1     -10.888   5.289 129.504  0.00  0.00    -0.251 OA
ENDBRANCH  24  25
ENDBRANCH  17  24
ENDBRANCH  10  12
BRANCH   5  28
ATOM     28  O   LIG A   1      -7.534  -0.130 122.896  0.00  0.00    -0.488 OA
ATOM     29  C   LIG A   1      -6.591  -1.177 123.056  0.00  0.00    +0.277 C 
ENDBRANCH   5  28
BRANCH  11  30
ATOM     30  O   LIG A   1      -5.569   4.808 127.578  0.00  0.00    -0.488 OA
ATOM     31  C   LIG A   1      -4.313   4.160 127.439  0.00  0.00    +0.277 C 
ENDBRANCH  11  30
BRANCH   6  32
ATOM     32  O   LIG A   1      -9.416  -1.113 124.859  0.00  0.00    -0.491 OA
ATOM     33  C   LIG A   1      -9.061  -2.080 125.843  0.00  0.00    +0.277 C 
ENDBRANCH   6  32
BRANCH   4  34
ATOM     34  O   LIG A   1      -6.612   2.369 123.075  0.00  0.00    -0.421 OA
BRANCH  34  35
ATOM     35  C   LIG A   1      -7.351   3.050 122.117  0.00  0.00    +0.309 C 
ATOM     36  C   LIG A   1      -6.378   3.642 121.132  0.00  0.00    +0.136 C 
ATOM     37  O   LIG A   1      -8.564   3.196 122.091  0.00  0.00    -0.251 OA
ENDBRANCH  34  35
ENDBRANCH   4  34
TORSDOF 11
ENDMDL
MODEL 3
REMARK VINA RESULT:      -7.1      2.308      6.912
REMARK  Name = NuBBE_1882
REMARK  18 active torsions:
REMARK  status: ('A' for Active; 'I' for Inactive)
REMARK    1  A    between atoms: C_4  and  O_34
REMARK    2  A    between atoms: C_5  and  O_6
REMARK    3  A    between atoms: O_6  and  C_7
REMARK    4  A    between atoms: C_8  and  O_32
REMARK    5  A    between atoms: C_12  and  C_13
REMARK    6  A    between atoms: C_15  and  O_16
REMARK    7  A    between atoms: O_16  and  C_17
REMARK    8  A    between atoms: C_17  and  C_18
REMARK    9  A    between atoms: C_20  and  O_27
REMARK   10  A    between atoms: C_22  and  O_23
REMARK   11  A    between atoms: O_23  and  C_24
REMARK   12  A    between atoms: C_24  and  C_25
REMARK   13  A    between atoms: O_27  and  C_28
REMARK   14  A    between atoms: C_29  and  O_30
REMARK   15  A    between atoms: O_30  and  C_31
REMARK   16  A    between atoms: O_32  and  C_33
REMARK   17  A    between atoms: O_34  and  C_35
REMARK   18  A    between atoms: C_35  and  C_36
REMARK                            x       y       z     vdW  Elec       q    Type
REMARK                         _______ _______ _______ _____ _____    ______ ____
ROOT
ATOM      1  O   LIG A   1      -6.992  -2.906 127.473  0.00  0.00    -0.283 OA
ATOM      2  C   LIG A   1      -6.944  -1.686 127.532  0.00  0.00    +0.238 A 
ATOM      3  C   LIG A   1      -7.381  -0.946 128.731  0.00  0.00    +0.114 A 
ATOM      4  C   LIG A   1      -7.288  -1.430 130.034  0.00  0.00    +0.191 A 
ATOM      5  C   LIG A   1      -7.664  -0.628 131.135  0.00  0.00    +0.205 A 
ATOM      6  C   LIG A   1      -8.189   0.660 130.901  0.00  0.00    +0.169 A 
ATOM      7  C   LIG A   1      -8.309   1.126 129.586  0.00  0.00    +0.096 A 
ATOM      8  C   LIG A   1      -7.882   0.333 128.524  0.00  0.00    +0.147 A 
ATOM      9  O   LIG A   1      -7.955   0.875 127.267  0.00  0.00    -0.451 OA
ATOM     10  C   LIG A   1      -7.011   0.413 126.367  0.00  0.00    +0.184 A 
ATOM     11  C   LIG A   1      -6.447  -0.811 126.418  0.00  0.00    +0.211 A 
ENDROOT
BRANCH  10  12
ATOM     12  C   LIG A   1      -6.578   1.459 125.435  0.00  0.00    +0.067 A 
ATOM     13  C   LIG A   1      -5.659   2.399 125.910  0.00  0.00    +0.065 A 
ATOM     14  C   LIG A   1      -5.301   3.487 125.116  0.00  0.00    +0.174 A 
ATOM     15  C   LIG A   1      -5.867   3.671 123.844  0.00  0.00    +0.166 A 
ATOM     16  C   LIG A   1      -6.765   2.717 123.354  0.00  0.00    +0.096 A 
ATOM     17  C   LIG A   1      -7.116   1.620 124.153  0.00  0.00    +0.146 A 
BRANCH  15  18
ATOM     18  O   LIG A   1      -5.471   4.788 123.156  0.00  0.00    -0.491 OA
ATOM     19  C   LIG A   1      -4.809   4.562 121.916  0.00  0.00    +0.277 C 
ENDBRANCH  15  18
BRANCH  14  20
ATOM     20  O   LIG A   1      -4.462   4.519 125.603  0.00  0.00    -0.422 OA
BRANCH  20  21
ATOM     21  C   LIG A   1      -4.292   4.777 126.962  0.00  0.00    +0.309 C 
ATOM     22  C   LIG A   1      -2.922   4.327 127.366  0.00  0.00    +0.136 C 
ATOM     23  O   LIG A   1      -5.096   5.295 127.723  0.00  0.00    -0.251 OA
ENDBRANCH  20  21
ENDBRANCH  14  20
BRANCH  17  24
ATOM     24  O   LIG A   1      -8.179   0.765 123.786  0.00  0.00    -0.425 OA
BRANCH  24  25
ATOM     25  C   LIG A   1      -9.508   1.198 123.802  0.00  0.00    +0.309 C 
ATOM     26  C   LIG A   1     -10.175   0.614 122.588  0.00  0.00    +0.136 C 
ATOM     27  O   LIG A   1     -10.051   1.871 124.651  0.00  0.00    -0.251 OA
ENDBRANCH  24  25
ENDBRANCH  17  24
ENDBRANCH  10  12
BRANCH   5  28
ATOM     28  O   LIG A   1      -7.433  -1.202 132.361  0.00  0.00    -0.488 OA
ATOM     29  C   LIG A   1      -6.314  -0.758 133.111  0.00  0.00    +0.277 C 
ENDBRANCH   5  28
BRANCH  11  30
ATOM     30  O   LIG A   1      -5.404  -1.148 125.575  0.00  0.00    -0.488 OA
ATOM     31  C   LIG A   1      -5.722  -1.918 124.426  0.00  0.00    +0.277 C 
ENDBRANCH  11  30
BRANCH   6  32
ATOM     32  O   LIG A   1      -8.496   1.458 131.970  0.00  0.00    -0.491 OA
ATOM     33  C   LIG A   1      -9.846   1.904 132.065  0.00  0.00    +0.277 C 
ENDBRANCH   6  32
BRANCH   4  34
ATOM     34  O   LIG A   1      -7.039  -2.798 130.257  0.00  0.00    -0.421 OA
BRANCH  34  35
ATOM     35  C   LIG A   1      -5.723  -3.204 130.427  0.00  0.00    +0.309 C 
ATOM     36  C   LIG A   1      -5.735  -4.690 130.667  0.00  0.00    +0.136 C 
ATOM     37  O   LIG A   1      -4.729  -2.492 130.438  0.00  0.00    -0.251 OA
ENDBRANCH  34  35
ENDBRANCH   4  34
TORSDOF 11
ENDMDL
MODEL 4
REMARK VINA RESULT:      -7.1      3.479      8.044
REMARK  Name = NuBBE_1882
REMARK  18 active torsions:
REMARK  status: ('A' for Active; 'I' for Inactive)
REMARK    1  A    between atoms: C_4  and  O_34
REMARK    2  A    between atoms: C_5  and  O_6
REMARK    3  A    between atoms: O_6  and  C_7
REMARK    4  A    between atoms: C_8  and  O_32
REMARK    5  A    between atoms: C_12  and  C_13
REMARK    6  A    between atoms: C_15  and  O_16
REMARK    7  A    between atoms: O_16  and  C_17
REMARK    8  A    between atoms: C_17  and  C_18
REMARK    9  A    between atoms: C_20  and  O_27
REMARK   10  A    between atoms: C_22  and  O_23
REMARK   11  A    between atoms: O_23  and  C_24
REMARK   12  A    between atoms: C_24  and  C_25
REMARK   13  A    between atoms: O_27  and  C_28
REMARK   14  A    between atoms: C_29  and  O_30
REMARK   15  A    between atoms: O_30  and  C_31
REMARK   16  A    between atoms: O_32  and  C_33
REMARK   17  A    between atoms: O_34  and  C_35
REMARK   18  A    between atoms: C_35  and  C_36
REMARK                            x       y       z     vdW  Elec       q    Type
REMARK                         _______ _______ _______ _____ _____    ______ ____
ROOT
ATOM      1  O   LIG A   1      -7.888  -3.036 126.949  0.00  0.00    -0.283 OA
ATOM      2  C   LIG A   1      -7.858  -1.949 127.506  0.00  0.00    +0.238 A 
ATOM      3  C   LIG A   1      -8.177  -0.698 126.791  0.00  0.00    +0.114 A 
ATOM      4  C   LIG A   1      -9.082  -0.601 125.737  0.00  0.00    +0.191 A 
ATOM      5  C   LIG A   1      -9.385   0.649 125.153  0.00  0.00    +0.205 A 
ATOM      6  C   LIG A   1      -8.718   1.804 125.613  0.00  0.00    +0.169 A 
ATOM      7  C   LIG A   1      -7.786   1.692 126.651  0.00  0.00    +0.096 A 
ATOM      8  C   LIG A   1      -7.546   0.454 127.243  0.00  0.00    +0.147 A 
ATOM      9  O   LIG A   1      -6.680   0.423 128.305  0.00  0.00    -0.451 OA
ATOM     10  C   LIG A   1      -6.919  -0.572 129.236  0.00  0.00    +0.184 A 
ATOM     11  C   LIG A   1      -7.499  -1.755 128.951  0.00  0.00    +0.211 A 
ENDROOT
BRANCH  10  12
ATOM     12  C   LIG A   1      -6.607  -0.138 130.601  0.00  0.00    +0.067 A 
ATOM     13  C   LIG A   1      -7.636   0.457 131.335  0.00  0.00    +0.065 A 
ATOM     14  C   LIG A   1      -7.374   1.000 132.591  0.00  0.00    +0.174 A 
ATOM     15  C   LIG A   1      -6.077   0.981 133.130  0.00  0.00    +0.166 A 
ATOM     16  C   LIG A   1      -5.050   0.360 132.411  0.00  0.00    +0.096 A 
ATOM     17  C   LIG A   1      -5.321  -0.192 131.152  0.00  0.00    +0.146 A 
BRANCH  15  18
ATOM     18  O   LIG A   1      -5.918   1.567 134.358  0.00  0.00    -0.491 OA
ATOM     19  C   LIG A   1      -5.288   0.774 135.359  0.00  0.00    +0.277 C 
ENDBRANCH  15  18
BRANCH  14  20
ATOM     20  O   LIG A   1      -8.362   1.710 133.316  0.00  0.00    -0.422 OA
BRANCH  20  21
ATOM     21  C   LIG A   1      -8.792   2.986 132.957  0.00  0.00    +0.309 C 
ATOM     22  C   LIG A   1      -8.606   3.900 134.129  0.00  0.00    +0.136 C 
ATOM     23  O   LIG A   1      -9.239   3.340 131.876  0.00  0.00    -0.251 OA
ENDBRANCH  20  21
ENDBRANCH  14  20
BRANCH  17  24
ATOM     24  O   LIG A   1      -4.273  -0.622 130.307  0.00  0.00    -0.425 OA
BRANCH  24  25
ATOM     25  C   LIG A   1      -3.517  -1.761 130.597  0.00  0.00    +0.309 C 
ATOM     26  C   LIG A   1      -3.645  -2.686 129.419  0.00  0.00    +0.136 C 
ATOM     27  O   LIG A   1      -2.838  -1.960 131.581  0.00  0.00    -0.251 OA
ENDBRANCH  24  25
ENDBRANCH  17  24
ENDBRANCH  10  12
BRANCH   5  28
ATOM     28  O   LIG A   1     -10.360   0.604 124.187  0.00  0.00    -0.488 OA
ATOM     29  C   LIG A   1      -9.992   0.887 122.847  0.00  0.00    +0.277 C 
ENDBRANCH   5  28
BRANCH  11  30
ATOM     30  O   LIG A   1      -7.841  -2.640 129.957  0.00  0.00    -0.488 OA
ATOM     31  C   LIG A   1      -6.919  -3.678 130.249  0.00  0.00    +0.277 C 
ENDBRANCH  11  30
BRANCH   6  32
ATOM     32  O   LIG A   1      -9.056   3.022 125.088  0.00  0.00    -0.491 OA
ATOM     33  C   LIG A   1      -8.024   4.003 125.038  0.00  0.00    +0.277 C 
ENDBRANCH   6  32
BRANCH   4  34
ATOM     34  O   LIG A   1      -9.530  -1.768 125.089  0.00  0.00    -0.421 OA
BRANCH  34  35
ATOM     35  C   LIG A   1      -8.796  -2.240 124.009  0.00  0.00    +0.309 C 
ATOM     36  C   LIG A   1      -9.591  -3.348 123.371  0.00  0.00    +0.136 C 
ATOM     37  O   LIG A   1      -7.685  -1.871 123.659  0.00  0.00    -0.251 OA
ENDBRANCH  34  35
ENDBRANCH   4  34
TORSDOF 11
ENDMDL
MODEL 5
REMARK VINA RESULT:      -7.0      1.962      5.366
REMARK  Name = NuBBE_1882
REMARK  18 active torsions:
REMARK  status: ('A' for Active; 'I' for Inactive)
REMARK    1  A    between atoms: C_4  and  O_34
REMARK    2  A    between atoms: C_5  and  O_6
REMARK    3  A    between atoms: O_6  and  C_7
REMARK    4  A    between atoms: C_8  and  O_32
REMARK    5  A    between atoms: C_12  and  C_13
REMARK    6  A    between atoms: C_15  and  O_16
REMARK    7  A    between atoms: O_16  and  C_17
REMARK    8  A    between atoms: C_17  and  C_18
REMARK    9  A    between atoms: C_20  and  O_27
REMARK   10  A    between atoms: C_22  and  O_23
REMARK   11  A    between atoms: O_23  and  C_24
REMARK   12  A    between atoms: C_24  and  C_25
REMARK   13  A    between atoms: O_27  and  C_28
REMARK   14  A    between atoms: C_29  and  O_30
REMARK   15  A    between atoms: O_30  and  C_31
REMARK   16  A    between atoms: O_32  and  C_33
REMARK   17  A    between atoms: O_34  and  C_35
REMARK   18  A    between atoms: C_35  and  C_36
REMARK                            x       y       z     vdW  Elec       q    Type
REMARK                         _______ _______ _______ _____ _____    ______ ____
ROOT
ATOM      1  O   LIG A   1      -4.546   2.131 130.292  0.00  0.00    -0.283 OA
ATOM      2  C   LIG A   1      -5.652   1.985 129.796  0.00  0.00    +0.238 A 
ATOM      3  C   LIG A   1      -6.834   2.710 130.301  0.00  0.00    +0.114 A 
ATOM      4  C   LIG A   1      -6.797   3.981 130.869  0.00  0.00    +0.191 A 
ATOM      5  C   LIG A   1      -7.985   4.636 131.263  0.00  0.00    +0.205 A 
ATOM      6  C   LIG A   1      -9.218   3.966 131.124  0.00  0.00    +0.169 A 
ATOM      7  C   LIG A   1      -9.243   2.675 130.582  0.00  0.00    +0.096 A 
ATOM      8  C   LIG A   1      -8.061   2.076 130.154  0.00  0.00    +0.147 A 
ATOM      9  O   LIG A   1      -8.161   0.843 129.562  0.00  0.00    -0.451 OA
ATOM     10  C   LIG A   1      -7.186   0.557 128.623  0.00  0.00    +0.184 A 
ATOM     11  C   LIG A   1      -5.941   1.071 128.639  0.00  0.00    +0.211 A 
ENDROOT
BRANCH  10  12
ATOM     12  C   LIG A   1      -7.706  -0.255 127.518  0.00  0.00    +0.067 A 
ATOM     13  C   LIG A   1      -8.575   0.369 126.619  0.00  0.00    +0.065 A 
ATOM     14  C   LIG A   1      -9.198  -0.377 125.620  0.00  0.00    +0.174 A 
ATOM     15  C   LIG A   1      -8.984  -1.761 125.512  0.00  0.00    +0.166 A 
ATOM     16  C   LIG A   1      -8.093  -2.383 126.391  0.00  0.00    +0.096 A 
ATOM     17  C   LIG A   1      -7.462  -1.628 127.389  0.00  0.00    +0.146 A 
BRANCH  15  18
ATOM     18  O   LIG A   1      -9.667  -2.407 124.514  0.00  0.00    -0.491 OA
ATOM     19  C   LIG A   1      -8.885  -2.894 123.428  0.00  0.00    +0.277 C 
ENDBRANCH  15  18
BRANCH  14  20
ATOM     20  O   LIG A   1     -10.170   0.193 124.762  0.00  0.00    -0.422 OA
BRANCH  20  21
ATOM     21  C   LIG A   1      -9.852   1.123 123.773  0.00  0.00    +0.309 C 
ATOM     22  C   LIG A   1     -10.147   0.517 122.436  0.00  0.00    +0.136 C 
ATOM     23  O   LIG A   1      -9.418   2.254 123.932  0.00  0.00    -0.251 OA
ENDBRANCH  20  21
ENDBRANCH  14  20
BRANCH  17  24
ATOM     24  O   LIG A   1      -6.737  -2.256 128.426  0.00  0.00    -0.425 OA
BRANCH  24  25
ATOM     25  C   LIG A   1      -7.345  -3.153 129.308  0.00  0.00    +0.309 C 
ATOM     26  C   LIG A   1      -6.243  -3.914 129.990  0.00  0.00    +0.136 C 
ATOM     27  O   LIG A   1      -8.531  -3.272 129.533  0.00  0.00    -0.251 OA
ENDBRANCH  24  25
ENDBRANCH  17  24
ENDBRANCH  10  12
BRANCH   5  28
ATOM     28  O   LIG A   1      -7.802   5.917 131.722  0.00  0.00    -0.488 OA
ATOM     29  C   LIG A   1      -8.181   6.993 130.880  0.00  0.00    +0.277 C 
ENDBRANCH   5  28
BRANCH  11  30
ATOM     30  O   LIG A   1      -5.069   0.858 127.588  0.00  0.00    -0.488 OA
ATOM     31  C   LIG A   1      -4.886   1.925 126.670  0.00  0.00    +0.277 C 
ENDBRANCH  11  30
BRANCH   6  32
ATOM     32  O   LIG A   1     -10.374   4.624 131.450  0.00  0.00    -0.491 OA
ATOM     33  C   LIG A   1     -11.273   4.901 130.380  0.00  0.00    +0.277 C 
ENDBRANCH   6  32
BRANCH   4  34
ATOM     34  O   LIG A   1      -5.565   4.532 131.270  0.00  0.00    -0.421 OA
BRANCH  34  35
ATOM     35  C   LIG A   1      -4.974   5.482 130.448  0.00  0.00    +0.309 C 
ATOM     36  C   LIG A   1      -4.049   6.307 131.302  0.00  0.00    +0.136 C 
ATOM     37  O   LIG A   1      -5.194   5.665 129.260  0.00  0.00    -0.251 OA
ENDBRANCH  34  35
ENDBRANCH   4  34
TORSDOF 11
ENDMDL
MODEL 6
REMARK VINA RESULT:      -7.0      1.990      7.924
REMARK  Name = NuBBE_1882
REMARK  18 active torsions:
REMARK  status: ('A' for Active; 'I' for Inactive)
REMARK    1  A    between atoms: C_4  and  O_34
REMARK    2  A    between atoms: C_5  and  O_6
REMARK    3  A    between atoms: O_6  and  C_7
REMARK    4  A    between atoms: C_8  and  O_32
REMARK    5  A    between atoms: C_12  and  C_13
REMARK    6  A    between atoms: C_15  and  O_16
REMARK    7  A    between atoms: O_16  and  C_17
REMARK    8  A    between atoms: C_17  and  C_18
REMARK    9  A    between atoms: C_20  and  O_27
REMARK   10  A    between atoms: C_22  and  O_23
REMARK   11  A    between atoms: O_23  and  C_24
REMARK   12  A    between atoms: C_24  and  C_25
REMARK   13  A    between atoms: O_27  and  C_28
REMARK   14  A    between atoms: C_29  and  O_30
REMARK   15  A    between atoms: O_30  and  C_31
REMARK   16  A    between atoms: O_32  and  C_33
REMARK   17  A    between atoms: O_34  and  C_35
REMARK   18  A    between atoms: C_35  and  C_36
REMARK                            x       y       z     vdW  Elec       q    Type
REMARK                         _______ _______ _______ _____ _____    ______ ____
ROOT
ATOM      1  O   LIG A   1      -9.518   1.097 125.903  0.00  0.00    -0.283 OA
ATOM      2  C   LIG A   1      -8.510   1.212 126.584  0.00  0.00    +0.238 A 
ATOM      3  C   LIG A   1      -7.597   0.077 126.822  0.00  0.00    +0.114 A 
ATOM      4  C   LIG A   1      -7.373  -0.958 125.918  0.00  0.00    +0.191 A 
ATOM      5  C   LIG A   1      -6.428  -1.971 126.193  0.00  0.00    +0.205 A 
ATOM      6  C   LIG A   1      -5.743  -1.957 127.426  0.00  0.00    +0.169 A 
ATOM      7  C   LIG A   1      -5.998  -0.930 128.343  0.00  0.00    +0.096 A 
ATOM      8  C   LIG A   1      -6.897   0.084 128.022  0.00  0.00    +0.147 A 
ATOM      9  O   LIG A   1      -7.045   1.101 128.929  0.00  0.00    -0.451 OA
ATOM     10  C   LIG A   1      -7.388   2.329 128.390  0.00  0.00    +0.184 A 
ATOM     11  C   LIG A   1      -8.085   2.490 127.248  0.00  0.00    +0.211 A 
ENDROOT
BRANCH  10  12
ATOM     12  C   LIG A   1      -6.778   3.442 129.124  0.00  0.00    +0.067 A 
ATOM     13  C   LIG A   1      -7.618   4.214 129.932  0.00  0.00    +0.065 A 
ATOM     14  C   LIG A   1      -7.126   5.357 130.559  0.00  0.00    +0.174 A 
ATOM     15  C   LIG A   1      -5.795   5.765 130.376  0.00  0.00    +0.166 A 
ATOM     16  C   LIG A   1      -4.943   4.980 129.593  0.00  0.00    +0.096 A 
ATOM     17  C   LIG A   1      -5.440   3.826 128.971  0.00  0.00    +0.146 A 
BRANCH  15  18
ATOM     18  O   LIG A   1      -5.418   6.919 131.013  0.00  0.00    -0.491 OA
ATOM     19  C   LIG A   1      -4.510   7.760 130.308  0.00  0.00    +0.277 C 
ENDBRANCH  15  18
BRANCH  14  20
ATOM     20  O   LIG A   1      -7.971   6.226 131.292  0.00  0.00    -0.422 OA
BRANCH  20  21
ATOM     21  C   LIG A   1      -9.063   6.877 130.721  0.00  0.00    +0.309 C 
ATOM     22  C   LIG A   1     -10.305   6.443 131.438  0.00  0.00    +0.136 C 
ATOM     23  O   LIG A   1      -9.048   7.681 129.801  0.00  0.00    -0.251 OA
ENDBRANCH  20  21
ENDBRANCH  14  20
BRANCH  17  24
ATOM     24  O   LIG A   1      -4.678   3.139 128.000  0.00  0.00    -0.425 OA
BRANCH  24  25
ATOM     25  C   LIG A   1      -3.969   3.818 127.006  0.00  0.00    +0.309 C 
ATOM     26  C   LIG A   1      -2.524   3.432 127.153  0.00  0.00    +0.136 C 
ATOM     27  O   LIG A   1      -4.423   4.544 126.147  0.00  0.00    -0.251 OA
ENDBRANCH  24  25
ENDBRANCH  17  24
ENDBRANCH  10  12
BRANCH   5  28
ATOM     28  O   LIG A   1      -6.249  -2.873 125.174  0.00  0.00    -0.488 OA
ATOM     29  C   LIG A   1      -5.272  -2.586 124.186  0.00  0.00    +0.277 C 
ENDBRANCH   5  28
BRANCH  11  30
ATOM     30  O   LIG A   1      -8.261   3.745 126.694  0.00  0.00    -0.488 OA
ATOM     31  C   LIG A   1      -7.744   3.956 125.389  0.00  0.00    +0.277 C 
ENDBRANCH  11  30
BRANCH   6  32
ATOM     32  O   LIG A   1      -4.784  -2.904 127.666  0.00  0.00    -0.491 OA
ATOM     33  C   LIG A   1      -4.262  -2.960 128.990  0.00  0.00    +0.277 C 
ENDBRANCH   6  32
BRANCH   4  34
ATOM     34  O   LIG A   1      -8.247  -1.137 124.829  0.00  0.00    -0.421 OA
BRANCH  34  35
ATOM     35  C   LIG A   1      -9.175  -2.168 124.896  0.00  0.00    +0.309 C 
ATOM     36  C   LIG A   1      -9.222  -2.823 123.542  0.00  0.00    +0.136 C 
ATOM     37  O   LIG A   1      -9.872  -2.468 125.854  0.00  0.00    -0.251 OA
ENDBRANCH  34  35
ENDBRANCH   4  34
TORSDOF 11
ENDMDL
MODEL 7
REMARK VINA RESULT:      -6.8      1.751      7.801
REMARK  Name = NuBBE_1882
REMARK  18 active torsions:
REMARK  status: ('A' for Active; 'I' for Inactive)
REMARK    1  A    between atoms: C_4  and  O_34
REMARK    2  A    between atoms: C_5  and  O_6
REMARK    3  A    between atoms: O_6  and  C_7
REMARK    4  A    between atoms: C_8  and  O_32
REMARK    5  A    between atoms: C_12  and  C_13
REMARK    6  A    between atoms: C_15  and  O_16
REMARK    7  A    between atoms: O_16  and  C_17
REMARK    8  A    between atoms: C_17  and  C_18
REMARK    9  A    between atoms: C_20  and  O_27
REMARK   10  A    between atoms: C_22  and  O_23
REMARK   11  A    between atoms: O_23  and  C_24
REMARK   12  A    between atoms: C_24  and  C_25
REMARK   13  A    between atoms: O_27  and  C_28
REMARK   14  A    between atoms: C_29  and  O_30
REMARK   15  A    between atoms: O_30  and  C_31
REMARK   16  A    between atoms: O_32  and  C_33
REMARK   17  A    between atoms: O_34  and  C_35
REMARK   18  A    between atoms: C_35  and  C_36
REMARK                            x       y       z     vdW  Elec       q    Type
REMARK                         _______ _______ _______ _____ _____    ______ ____
ROOT
ATOM      1  O   LIG A   1      -9.578   0.824 125.425  0.00  0.00    -0.283 OA
ATOM      2  C   LIG A   1      -8.605   1.003 126.143  0.00  0.00    +0.238 A 
ATOM      3  C   LIG A   1      -7.679  -0.093 126.486  0.00  0.00    +0.114 A 
ATOM      4  C   LIG A   1      -7.389  -1.171 125.653  0.00  0.00    +0.191 A 
ATOM      5  C   LIG A   1      -6.434  -2.142 126.028  0.00  0.00    +0.205 A 
ATOM      6  C   LIG A   1      -5.807  -2.041 127.287  0.00  0.00    +0.169 A 
ATOM      7  C   LIG A   1      -6.129  -0.971 128.132  0.00  0.00    +0.096 A 
ATOM      8  C   LIG A   1      -7.035  -0.000 127.713  0.00  0.00    +0.147 A 
ATOM      9  O   LIG A   1      -7.249   1.062 128.553  0.00  0.00    -0.451 OA
ATOM     10  C   LIG A   1      -7.595   2.248 127.931  0.00  0.00    +0.184 A 
ATOM     11  C   LIG A   1      -8.242   2.327 126.751  0.00  0.00    +0.211 A 
ENDROOT
BRANCH  10  12
ATOM     12  C   LIG A   1      -7.046   3.416 128.626  0.00  0.00    +0.067 A 
ATOM     13  C   LIG A   1      -5.655   3.553 128.647  0.00  0.00    +0.065 A 
ATOM     14  C   LIG A   1      -5.066   4.572 129.393  0.00  0.00    +0.174 A 
ATOM     15  C   LIG A   1      -5.849   5.461 130.148  0.00  0.00    +0.166 A 
ATOM     16  C   LIG A   1      -7.242   5.345 130.106  0.00  0.00    +0.096 A 
ATOM     17  C   LIG A   1      -7.831   4.324 129.348  0.00  0.00    +0.146 A 
BRANCH  15  18
ATOM     18  O   LIG A   1      -5.172   6.409 130.869  0.00  0.00    -0.491 OA
ATOM     19  C   LIG A   1      -5.195   6.260 132.285  0.00  0.00    +0.277 C 
ENDBRANCH  15  18
BRANCH  14  20
ATOM     20  O   LIG A   1      -3.661   4.676 129.531  0.00  0.00    -0.422 OA
BRANCH  20  21
ATOM     21  C   LIG A   1      -2.809   4.899 128.450  0.00  0.00    +0.309 C 
ATOM     22  C   LIG A   1      -2.565   6.372 128.330  0.00  0.00    +0.136 C 
ATOM     23  O   LIG A   1      -2.314   4.060 127.712  0.00  0.00    -0.251 OA
ENDBRANCH  20  21
ENDBRANCH  14  20
BRANCH  17  24
ATOM     24  O   LIG A   1      -9.210   4.039 129.460  0.00  0.00    -0.425 OA
BRANCH  24  25
ATOM     25  C   LIG A   1      -9.848   3.974 130.701  0.00  0.00    +0.309 C 
ATOM     26  C   LIG A   1      -9.628   2.587 131.237  0.00  0.00    +0.136 C 
ATOM     27  O   LIG A   1     -10.428   4.870 131.276  0.00  0.00    -0.251 OA
ENDBRANCH  24  25
ENDBRANCH  17  24
ENDBRANCH  10  12
BRANCH   5  28
ATOM     28  O   LIG A   1      -6.187  -3.095 125.071  0.00  0.00    -0.488 OA
ATOM     29  C   LIG A   1      -5.185  -2.830 124.102  0.00  0.00    +0.277 C 
ENDBRANCH   5  28
BRANCH  11  30
ATOM     30  O   LIG A   1      -8.422   3.543 126.119  0.00  0.00    -0.488 OA
ATOM     31  C   LIG A   1      -7.679   3.773 124.931  0.00  0.00    +0.277 C 
ENDBRANCH  11  30
BRANCH   6  32
ATOM     32  O   LIG A   1      -4.839  -2.948 127.624  0.00  0.00    -0.491 OA
ATOM     33  C   LIG A   1      -4.384  -2.923 128.974  0.00  0.00    +0.277 C 
ENDBRANCH   6  32
BRANCH   4  34
ATOM     34  O   LIG A   1      -8.207  -1.433 124.537  0.00  0.00    -0.421 OA
BRANCH  34  35
ATOM     35  C   LIG A   1      -9.197  -2.398 124.664  0.00  0.00    +0.309 C 
ATOM     36  C   LIG A   1      -9.286  -3.129 123.352  0.00  0.00    +0.136 C 
ATOM     37  O   LIG A   1      -9.910  -2.596 125.637  0.00  0.00    -0.251 OA
ENDBRANCH  34  35
ENDBRANCH   4  34
TORSDOF 11
ENDMDL
MODEL 8
REMARK VINA RESULT:      -6.8      2.604      7.437
REMARK  Name = NuBBE_1882
REMARK  18 active torsions:
REMARK  status: ('A' for Active; 'I' for Inactive)
REMARK    1  A    between atoms: C_4  and  O_34
REMARK    2  A    between atoms: C_5  and  O_6
REMARK    3  A    between atoms: O_6  and  C_7
REMARK    4  A    between atoms: C_8  and  O_32
REMARK    5  A    between atoms: C_12  and  C_13
REMARK    6  A    between atoms: C_15  and  O_16
REMARK    7  A    between atoms: O_16  and  C_17
REMARK    8  A    between atoms: C_17  and  C_18
REMARK    9  A    between atoms: C_20  and  O_27
REMARK   10  A    between atoms: C_22  and  O_23
REMARK   11  A    between atoms: O_23  and  C_24
REMARK   12  A    between atoms: C_24  and  C_25
REMARK   13  A    between atoms: O_27  and  C_28
REMARK   14  A    between atoms: C_29  and  O_30
REMARK   15  A    between atoms: O_30  and  C_31
REMARK   16  A    between atoms: O_32  and  C_33
REMARK   17  A    between atoms: O_34  and  C_35
REMARK   18  A    between atoms: C_35  and  C_36
REMARK                            x       y       z     vdW  Elec       q    Type
REMARK                         _______ _______ _______ _____ _____    ______ ____
ROOT
ATOM      1  O   LIG A   1      -7.165   4.450 125.214  0.00  0.00    -0.283 OA
ATOM      2  C   LIG A   1      -7.408   3.552 126.006  0.00  0.00    +0.238 A 
ATOM      3  C   LIG A   1      -7.788   2.199 125.558  0.00  0.00    +0.114 A 
ATOM      4  C   LIG A   1      -7.342   1.604 124.380  0.00  0.00    +0.191 A 
ATOM      5  C   LIG A   1      -7.696   0.275 124.059  0.00  0.00    +0.205 A 
ATOM      6  C   LIG A   1      -8.555  -0.437 124.921  0.00  0.00    +0.169 A 
ATOM      7  C   LIG A   1      -9.024   0.180 126.087  0.00  0.00    +0.096 A 
ATOM      8  C   LIG A   1      -8.617   1.473 126.405  0.00  0.00    +0.147 A 
ATOM      9  O   LIG A   1      -9.049   1.993 127.597  0.00  0.00    -0.451 OA
ATOM     10  C   LIG A   1      -8.201   2.917 128.183  0.00  0.00    +0.184 A 
ATOM     11  C   LIG A   1      -7.355   3.712 127.498  0.00  0.00    +0.211 A 
ENDROOT
BRANCH  10  12
ATOM     12  C   LIG A   1      -8.217   2.830 129.646  0.00  0.00    +0.067 A 
ATOM     13  C   LIG A   1      -9.016   3.748 130.333  0.00  0.00    +0.065 A 
ATOM     14  C   LIG A   1      -8.982   3.797 131.725  0.00  0.00    +0.174 A 
ATOM     15  C   LIG A   1      -8.137   2.948 132.458  0.00  0.00    +0.166 A 
ATOM     16  C   LIG A   1      -7.358   2.008 131.776  0.00  0.00    +0.096 A 
ATOM     17  C   LIG A   1      -7.402   1.956 130.375  0.00  0.00    +0.146 A 
BRANCH  15  18
ATOM     18  O   LIG A   1      -8.156   3.096 133.821  0.00  0.00    -0.491 OA
ATOM     19  C   LIG A   1      -6.967   3.605 134.416  0.00  0.00    +0.277 C 
ENDBRANCH  15  18
BRANCH  14  20
ATOM     20  O   LIG A   1      -9.689   4.786 132.452  0.00  0.00    -0.422 OA
BRANCH  20  21
ATOM     21  C   LIG A   1      -9.864   6.087 131.985  0.00  0.00    +0.309 C 
ATOM     22  C   LIG A   1     -11.332   6.377 131.918  0.00  0.00    +0.136 C 
ATOM     23  O   LIG A   1      -8.992   6.890 131.684  0.00  0.00    -0.251 OA
ENDBRANCH  20  21
ENDBRANCH  14  20
BRANCH  17  24
ATOM     24  O   LIG A   1      -6.471   1.182 129.648  0.00  0.00    -0.425 OA
BRANCH  24  25
ATOM     25  C   LIG A   1      -6.743  -0.139 129.282  0.00  0.00    +0.309 C 
ATOM     26  C   LIG A   1      -5.457  -0.727 128.770  0.00  0.00    +0.136 C 
ATOM     27  O   LIG A   1      -7.794  -0.732 129.397  0.00  0.00    -0.251 OA
ENDBRANCH  24  25
ENDBRANCH  17  24
ENDBRANCH  10  12
BRANCH   5  28
ATOM     28  O   LIG A   1      -7.111  -0.208 122.914  0.00  0.00    -0.488 OA
ATOM     29  C   LIG A   1      -6.340  -1.395 123.002  0.00  0.00    +0.277 C 
ENDBRANCH   5  28
BRANCH  11  30
ATOM     30  O   LIG A   1      -6.433   4.503 128.158  0.00  0.00    -0.488 OA
ATOM     31  C   LIG A   1      -5.069   4.119 128.072  0.00  0.00    +0.277 C 
ENDBRANCH  11  30
BRANCH   6  32
ATOM     32  O   LIG A   1      -8.849  -1.744 124.640  0.00  0.00    -0.491 OA
ATOM     33  C   LIG A   1      -9.266  -2.554 125.735  0.00  0.00    +0.277 C 
ENDBRANCH   6  32
BRANCH   4  34
ATOM     34  O   LIG A   1      -6.728   2.392 123.387  0.00  0.00    -0.421 OA
BRANCH  34  35
ATOM     35  C   LIG A   1      -7.541   3.007 122.445  0.00  0.00    +0.309 C 
ATOM     36  C   LIG A   1      -6.649   3.544 121.359  0.00  0.00    +0.136 C 
ATOM     37  O   LIG A   1      -8.755   3.144 122.498  0.00  0.00    -0.251 OA
ENDBRANCH  34  35
ENDBRANCH   4  34
TORSDOF 11
ENDMDL
MODEL 9
REMARK VINA RESULT:      -6.5      2.644      4.317
REMARK  Name = NuBBE_1882
REMARK  18 active torsions:
REMARK  status: ('A' for Active; 'I' for Inactive)
REMARK    1  A    between atoms: C_4  and  O_34
REMARK    2  A    between atoms: C_5  and  O_6
REMARK    3  A    between atoms: O_6  and  C_7
REMARK    4  A    between atoms: C_8  and  O_32
REMARK    5  A    between atoms: C_12  and  C_13
REMARK    6  A    between atoms: C_15  and  O_16
REMARK    7  A    between atoms: O_16  and  C_17
REMARK    8  A    between atoms: C_17  and  C_18
REMARK    9  A    between atoms: C_20  and  O_27
REMARK   10  A    between atoms: C_22  and  O_23
REMARK   11  A    between atoms: O_23  and  C_24
REMARK   12  A    between atoms: C_24  and  C_25
REMARK   13  A    between atoms: O_27  and  C_28
REMARK   14  A    between atoms: C_29  and  O_30
REMARK   15  A    between atoms: O_30  and  C_31
REMARK   16  A    between atoms: O_32  and  C_33
REMARK   17  A    between atoms: O_34  and  C_35
REMARK   18  A    between atoms: C_35  and  C_36
REMARK                            x       y       z     vdW  Elec       q    Type
REMARK                         _______ _______ _______ _____ _____    ______ ____
ROOT
ATOM      1  O   LIG A   1      -6.878   1.164 131.500  0.00  0.00    -0.283 OA
ATOM      2  C   LIG A   1      -7.235   1.703 130.464  0.00  0.00    +0.238 A 
ATOM      3  C   LIG A   1      -7.644   3.120 130.424  0.00  0.00    +0.114 A 
ATOM      4  C   LIG A   1      -7.130   4.114 131.254  0.00  0.00    +0.191 A 
ATOM      5  C   LIG A   1      -7.524   5.462 131.103  0.00  0.00    +0.205 A 
ATOM      6  C   LIG A   1      -8.490   5.792 130.130  0.00  0.00    +0.169 A 
ATOM      7  C   LIG A   1      -9.026   4.782 129.321  0.00  0.00    +0.096 A 
ATOM      8  C   LIG A   1      -8.580   3.470 129.458  0.00  0.00    +0.147 A 
ATOM      9  O   LIG A   1      -9.086   2.541 128.586  0.00  0.00    -0.451 OA
ATOM     10  C   LIG A   1      -8.244   1.482 128.296  0.00  0.00    +0.184 A 
ATOM     11  C   LIG A   1      -7.302   1.008 129.135  0.00  0.00    +0.211 A 
ENDROOT
BRANCH  10  12
ATOM     12  C   LIG A   1      -8.390   1.025 126.910  0.00  0.00    +0.067 A 
ATOM     13  C   LIG A   1      -8.985  -0.224 126.707  0.00  0.00    +0.065 A 
ATOM     14  C   LIG A   1      -9.044  -0.768 125.426  0.00  0.00    +0.174 A 
ATOM     15  C   LIG A   1      -8.493  -0.090 124.327  0.00  0.00    +0.166 A 
ATOM     16  C   LIG A   1      -7.924   1.173 124.521  0.00  0.00    +0.096 A 
ATOM     17  C   LIG A   1      -7.874   1.720 125.810  0.00  0.00    +0.146 A 
BRANCH  15  18
ATOM     18  O   LIG A   1      -8.576  -0.724 123.114  0.00  0.00    -0.491 OA
ATOM     19  C   LIG A   1      -7.378  -1.322 122.632  0.00  0.00    +0.277 C 
ENDBRANCH  15  18
BRANCH  14  20
ATOM     20  O   LIG A   1      -9.534  -2.077 125.195  0.00  0.00    -0.422 OA
BRANCH  20  21
ATOM     21  C   LIG A   1      -9.019  -3.201 125.837  0.00  0.00    +0.309 C 
ATOM     22  C   LIG A   1      -8.163  -3.955 124.865  0.00  0.00    +0.136 C 
ATOM     23  O   LIG A   1      -9.201  -3.541 126.997  0.00  0.00    -0.251 OA
ENDBRANCH  20  21
ENDBRANCH  14  20
BRANCH  17  24
ATOM     24  O   LIG A   1      -7.114   2.880 126.078  0.00  0.00    -0.425 OA
BRANCH  24  25
ATOM     25  C   LIG A   1      -7.558   4.151 125.705  0.00  0.00    +0.309 C 
ATOM     26  C   LIG A   1      -6.342   4.948 125.322  0.00  0.00    +0.136 C 
ATOM     27  O   LIG A   1      -8.705   4.540 125.644  0.00  0.00    -0.251 OA
ENDBRANCH  24  25
ENDBRANCH  17  24
ENDBRANCH  10  12
BRANCH   5  28
ATOM     28  O   LIG A   1      -6.869   6.341 131.930  0.00  0.00    -0.488 OA
ATOM     29  C   LIG A   1      -5.630   6.876 131.495  0.00  0.00    +0.277 C 
ENDBRANCH   5  28
BRANCH  11  30
ATOM     30  O   LIG A   1      -6.400   0.045 128.720  0.00  0.00    -0.488 OA
ATOM     31  C   LIG A   1      -6.589  -1.274 129.208  0.00  0.00    +0.277 C 
ENDBRANCH  11  30
BRANCH   6  32
ATOM     32  O   LIG A   1      -8.827   7.106 129.944  0.00  0.00    -0.491 OA
ATOM     33  C   LIG A   1     -10.209   7.388 129.744  0.00  0.00    +0.277 C 
ENDBRANCH   6  32
BRANCH   4  34
ATOM     34  O   LIG A   1      -6.394   3.756 132.399  0.00  0.00    -0.421 OA
BRANCH  34  35
ATOM     35  C   LIG A   1      -6.964   3.990 133.644  0.00  0.00    +0.309 C 
ATOM     36  C   LIG A   1      -8.287   3.272 133.677  0.00  0.00    +0.136 C 
ATOM     37  O   LIG A   1      -6.514   4.690 134.539  0.00  0.00    -0.251 OA
ENDBRANCH  34  35
ENDBRANCH   4  34
TORSDOF 11
ENDMDL
