MODEL 1
REMARK VINA RESULT:      -6.2      0.000      0.000
REMARK  Name = NuBBE_1742
REMARK  4 active torsions:
REMARK  status: ('A' for Active; 'I' for Inactive)
REMARK    1  A    between atoms: C_1  and  C_2
REMARK    2  A    between atoms: C_1  and  C_3
REMARK    3  A    between atoms: C_1  and  C_4
REMARK    4  A    between atoms: C_7  and  C_12
REMARK                            x       y       z     vdW  Elec       q    Type
REMARK                         _______ _______ _______ _____ _____    ______ ____
ROOT
ATOM      1  C   LIG A   1     -11.858   7.415 129.327  0.00  0.00    +0.125 C 
ATOM      2  C   LIG A   1     -10.376   7.857 129.366  0.00  0.00    +0.046 C 
ATOM      3  C   LIG A   1      -9.585   6.906 130.286  0.00  0.00    +0.045 C 
ATOM      4  C   LIG A   1     -10.553   5.875 130.890  0.00  0.00    +0.120 C 
ATOM      5  C   LIG A   1     -11.702   6.579 131.567  0.00  0.00    +0.009 C 
ATOM      6  C   LIG A   1     -12.394   7.380 130.746  0.00  0.00    +0.009 C 
ATOM      7  O   LIG A   1     -11.114   5.131 129.785  0.00  0.00    -0.223 OA
ATOM      8  O   LIG A   1     -11.835   6.043 128.838  0.00  0.00    -0.223 OA
ATOM      9  C   LIG A   1      -9.841   4.894 131.811  0.00  0.00    +0.049 C 
ENDROOT
BRANCH   1  10
ATOM     10  C   LIG A   1     -12.704   8.249 128.328  0.00  0.00    +0.022 C 
ATOM     11  C   LIG A   1     -13.886   7.456 127.750  0.00  0.00    +0.010 C 
ATOM     12  C   LIG A   1     -13.213   9.575 128.904  0.00  0.00    +0.010 C 
ENDBRANCH   1  10
TORSDOF 1
ENDMDL
MODEL 2
REMARK VINA RESULT:      -6.1      0.981      4.091
REMARK  Name = NuBBE_1742
REMARK  4 active torsions:
REMARK  status: ('A' for Active; 'I' for Inactive)
REMARK    1  A    between atoms: C_1  and  C_2
REMARK    2  A    between atoms: C_1  and  C_3
REMARK    3  A    between atoms: C_1  and  C_4
REMARK    4  A    between atoms: C_7  and  C_12
REMARK                            x       y       z     vdW  Elec       q    Type
REMARK                         _______ _______ _______ _____ _____    ______ ____
ROOT
ATOM      1  C   LIG A   1     -10.441   6.467 130.538  0.00  0.00    +0.125 C 
ATOM      2  C   LIG A   1     -11.616   6.822 131.480  0.00  0.00    +0.046 C 
ATOM      3  C   LIG A   1     -12.855   7.181 130.635  0.00  0.00    +0.045 C 
ATOM      4  C   LIG A   1     -12.481   7.112 129.145  0.00  0.00    +0.120 C 
ATOM      5  C   LIG A   1     -11.275   7.976 128.874  0.00  0.00    +0.009 C 
ATOM      6  C   LIG A   1     -10.200   7.633 129.598  0.00  0.00    +0.009 C 
ATOM      7  O   LIG A   1     -12.084   5.748 128.876  0.00  0.00    -0.223 OA
ATOM      8  O   LIG A   1     -10.920   5.352 129.734  0.00  0.00    -0.223 OA
ATOM      9  C   LIG A   1     -13.660   7.452 128.244  0.00  0.00    +0.049 C 
ENDROOT
BRANCH   1  10
ATOM     10  C   LIG A   1      -9.186   5.978 131.310  0.00  0.00    +0.022 C 
ATOM     11  C   LIG A   1      -7.947   6.842 131.027  0.00  0.00    +0.010 C 
ATOM     12  C   LIG A   1      -9.394   5.866 132.824  0.00  0.00    +0.010 C 
ENDBRANCH   1  10
TORSDOF 1
ENDMDL
MODEL 3
REMARK VINA RESULT:      -5.8      1.628      3.832
REMARK  Name = NuBBE_1742
REMARK  4 active torsions:
REMARK  status: ('A' for Active; 'I' for Inactive)
REMARK    1  A    between atoms: C_1  and  C_2
REMARK    2  A    between atoms: C_1  and  C_3
REMARK    3  A    between atoms: C_1  and  C_4
REMARK    4  A    between atoms: C_7  and  C_12
REMARK                            x       y       z     vdW  Elec       q    Type
REMARK                         _______ _______ _______ _____ _____    ______ ____
ROOT
ATOM      1  C   LIG A   1     -11.707   6.876 129.448  0.00  0.00    +0.125 C 
ATOM      2  C   LIG A   1     -12.979   6.728 128.580  0.00  0.00    +0.046 C 
ATOM      3  C   LIG A   1     -12.641   7.075 127.117  0.00  0.00    +0.045 C 
ATOM      4  C   LIG A   1     -11.165   7.500 127.032  0.00  0.00    +0.120 C 
ATOM      5  C   LIG A   1     -10.890   8.613 128.013  0.00  0.00    +0.009 C 
ATOM      6  C   LIG A   1     -11.165   8.283 129.283  0.00  0.00    +0.009 C 
ATOM      7  O   LIG A   1     -10.379   6.365 127.459  0.00  0.00    -0.223 OA
ATOM      8  O   LIG A   1     -10.735   5.964 128.860  0.00  0.00    -0.223 OA
ATOM      9  C   LIG A   1     -10.754   7.857 125.610  0.00  0.00    +0.049 C 
ENDROOT
BRANCH   1  10
ATOM     10  C   LIG A   1     -11.931   6.429 130.918  0.00  0.00    +0.022 C 
ATOM     11  C   LIG A   1     -10.621   6.351 131.716  0.00  0.00    +0.010 C 
ATOM     12  C   LIG A   1     -12.942   7.293 131.680  0.00  0.00    +0.010 C 
ENDBRANCH   1  10
TORSDOF 1
ENDMDL
MODEL 4
REMARK VINA RESULT:      -5.7      1.586      1.838
REMARK  Name = NuBBE_1742
REMARK  4 active torsions:
REMARK  status: ('A' for Active; 'I' for Inactive)
REMARK    1  A    between atoms: C_1  and  C_2
REMARK    2  A    between atoms: C_1  and  C_3
REMARK    3  A    between atoms: C_1  and  C_4
REMARK    4  A    between atoms: C_7  and  C_12
REMARK                            x       y       z     vdW  Elec       q    Type
REMARK                         _______ _______ _______ _____ _____    ______ ____
ROOT
ATOM      1  C   LIG A   1     -10.454   6.983 128.957  0.00  0.00    +0.125 C 
ATOM      2  C   LIG A   1      -9.491   7.464 130.067  0.00  0.00    +0.046 C 
ATOM      3  C   LIG A   1      -8.999   6.249 130.878  0.00  0.00    +0.045 C 
ATOM      4  C   LIG A   1      -9.678   4.979 130.336  0.00  0.00    +0.120 C 
ATOM      5  C   LIG A   1     -11.176   5.156 130.329  0.00  0.00    +0.009 C 
ATOM      6  C   LIG A   1     -11.586   6.202 129.598  0.00  0.00    +0.009 C 
ATOM      7  O   LIG A   1      -9.269   4.844 128.956  0.00  0.00    -0.223 OA
ATOM      8  O   LIG A   1      -9.678   6.046 128.157  0.00  0.00    -0.223 OA
ATOM      9  C   LIG A   1      -9.237   3.731 131.088  0.00  0.00    +0.049 C 
ENDROOT
BRANCH   1  10
ATOM     10  C   LIG A   1     -10.904   8.134 128.017  0.00  0.00    +0.022 C 
ATOM     11  C   LIG A   1     -10.988   7.695 126.547  0.00  0.00    +0.010 C 
ATOM     12  C   LIG A   1     -12.226   8.790 128.429  0.00  0.00    +0.010 C 
ENDBRANCH   1  10
TORSDOF 1
ENDMDL
MODEL 5
REMARK VINA RESULT:      -5.5      1.352      2.084
REMARK  Name = NuBBE_1742
REMARK  4 active torsions:
REMARK  status: ('A' for Active; 'I' for Inactive)
REMARK    1  A    between atoms: C_1  and  C_2
REMARK    2  A    between atoms: C_1  and  C_3
REMARK    3  A    between atoms: C_1  and  C_4
REMARK    4  A    between atoms: C_7  and  C_12
REMARK                            x       y       z     vdW  Elec       q    Type
REMARK                         _______ _______ _______ _____ _____    ______ ____
ROOT
ATOM      1  C   LIG A   1     -12.323   7.097 129.679  0.00  0.00    +0.125 C 
ATOM      2  C   LIG A   1     -12.832   7.319 131.123  0.00  0.00    +0.046 C 
ATOM      3  C   LIG A   1     -11.783   6.791 132.120  0.00  0.00    +0.045 C 
ATOM      4  C   LIG A   1     -10.612   6.176 131.336  0.00  0.00    +0.120 C 
ATOM      5  C   LIG A   1     -11.126   5.139 130.368  0.00  0.00    +0.009 C 
ATOM      6  C   LIG A   1     -12.017   5.623 129.492  0.00  0.00    +0.009 C 
ATOM      7  O   LIG A   1     -10.039   7.239 130.540  0.00  0.00    -0.223 OA
ATOM      8  O   LIG A   1     -11.059   7.816 129.605  0.00  0.00    -0.223 OA
ATOM      9  C   LIG A   1      -9.528   5.633 132.257  0.00  0.00    +0.049 C 
ENDROOT
BRANCH   1  10
ATOM     10  C   LIG A   1     -13.269   7.710 128.612  0.00  0.00    +0.022 C 
ATOM     11  C   LIG A   1     -13.218   9.245 128.592  0.00  0.00    +0.010 C 
ATOM     12  C   LIG A   1     -13.034   7.174 127.195  0.00  0.00    +0.010 C 
ENDBRANCH   1  10
TORSDOF 1
ENDMDL
MODEL 6
REMARK VINA RESULT:      -5.3      9.608     10.881
REMARK  Name = NuBBE_1742
REMARK  4 active torsions:
REMARK  status: ('A' for Active; 'I' for Inactive)
REMARK    1  A    between atoms: C_1  and  C_2
REMARK    2  A    between atoms: C_1  and  C_3
REMARK    3  A    between atoms: C_1  and  C_4
REMARK    4  A    between atoms: C_7  and  C_12
REMARK                            x       y       z     vdW  Elec       q    Type
REMARK                         _______ _______ _______ _____ _____    ______ ____
ROOT
ATOM      1  C   LIG A   1      -8.667  -1.735 124.465  0.00  0.00    +0.125 C 
ATOM      2  C   LIG A   1      -9.145  -0.871 125.655  0.00  0.00    +0.046 C 
ATOM      3  C   LIG A   1      -9.407   0.567 125.167  0.00  0.00    +0.045 C 
ATOM      4  C   LIG A   1      -9.053   0.661 123.674  0.00  0.00    +0.120 C 
ATOM      5  C   LIG A   1      -7.643   0.176 123.445  0.00  0.00    +0.009 C 
ATOM      6  C   LIG A   1      -7.441  -1.085 123.851  0.00  0.00    +0.009 C 
ATOM      7  O   LIG A   1      -9.927  -0.257 122.979  0.00  0.00    -0.223 OA
ATOM      8  O   LIG A   1      -9.738  -1.658 123.482  0.00  0.00    -0.223 OA
ATOM      9  C   LIG A   1      -9.290   2.058 123.117  0.00  0.00    +0.049 C 
ENDROOT
BRANCH   1  10
ATOM     10  C   LIG A   1      -8.493  -3.231 124.845  0.00  0.00    +0.022 C 
ATOM     11  C   LIG A   1      -7.136  -3.797 124.401  0.00  0.00    +0.010 C 
ATOM     12  C   LIG A   1      -8.703  -3.519 126.335  0.00  0.00    +0.010 C 
ENDBRANCH   1  10
TORSDOF 1
ENDMDL
MODEL 7
REMARK VINA RESULT:      -5.2     10.492     11.612
REMARK  Name = NuBBE_1742
REMARK  4 active torsions:
REMARK  status: ('A' for Active; 'I' for Inactive)
REMARK    1  A    between atoms: C_1  and  C_2
REMARK    2  A    between atoms: C_1  and  C_3
REMARK    3  A    between atoms: C_1  and  C_4
REMARK    4  A    between atoms: C_7  and  C_12
REMARK                            x       y       z     vdW  Elec       q    Type
REMARK                         _______ _______ _______ _____ _____    ______ ____
ROOT
ATOM      1  C   LIG A   1      -7.697  -2.518 126.352  0.00  0.00    +0.125 C 
ATOM      2  C   LIG A   1      -6.156  -2.381 126.349  0.00  0.00    +0.046 C 
ATOM      3  C   LIG A   1      -5.675  -2.078 124.917  0.00  0.00    +0.045 C 
ATOM      4  C   LIG A   1      -6.889  -2.067 123.973  0.00  0.00    +0.120 C 
ATOM      5  C   LIG A   1      -7.661  -3.356 124.108  0.00  0.00    +0.009 C 
ATOM      6  C   LIG A   1      -8.094  -3.590 125.354  0.00  0.00    +0.009 C 
ATOM      7  O   LIG A   1      -7.762  -1.009 124.429  0.00  0.00    -0.223 OA
ATOM      8  O   LIG A   1      -8.194  -1.247 125.845  0.00  0.00    -0.223 OA
ATOM      9  C   LIG A   1      -6.491  -1.769 122.533  0.00  0.00    +0.049 C 
ENDROOT
BRANCH   1  10
ATOM     10  C   LIG A   1      -8.276  -2.707 127.780  0.00  0.00    +0.022 C 
ATOM     11  C   LIG A   1      -9.031  -4.036 127.938  0.00  0.00    +0.010 C 
ATOM     12  C   LIG A   1      -7.232  -2.578 128.894  0.00  0.00    +0.010 C 
ENDBRANCH   1  10
TORSDOF 1
ENDMDL
MODEL 8
REMARK VINA RESULT:      -5.2      1.881      4.498
REMARK  Name = NuBBE_1742
REMARK  4 active torsions:
REMARK  status: ('A' for Active; 'I' for Inactive)
REMARK    1  A    between atoms: C_1  and  C_2
REMARK    2  A    between atoms: C_1  and  C_3
REMARK    3  A    between atoms: C_1  and  C_4
REMARK    4  A    between atoms: C_7  and  C_12
REMARK                            x       y       z     vdW  Elec       q    Type
REMARK                         _______ _______ _______ _____ _____    ______ ____
ROOT
ATOM      1  C   LIG A   1      -9.807   5.268 130.359  0.00  0.00    +0.125 C 
ATOM      2  C   LIG A   1     -11.348   5.326 130.233  0.00  0.00    +0.046 C 
ATOM      3  C   LIG A   1     -11.735   6.411 129.210  0.00  0.00    +0.045 C 
ATOM      4  C   LIG A   1     -10.457   7.100 128.704  0.00  0.00    +0.120 C 
ATOM      5  C   LIG A   1      -9.647   7.608 129.870  0.00  0.00    +0.009 C 
ATOM      6  C   LIG A   1      -9.297   6.646 130.735  0.00  0.00    +0.009 C 
ATOM      7  O   LIG A   1      -9.661   6.081 128.057  0.00  0.00    -0.223 OA
ATOM      8  O   LIG A   1      -9.325   4.978 129.016  0.00  0.00    -0.223 OA
ATOM      9  C   LIG A   1     -10.759   8.188 127.682  0.00  0.00    +0.049 C 
ENDROOT
BRANCH   1  10
ATOM     10  C   LIG A   1      -9.327   4.117 131.283  0.00  0.00    +0.022 C 
ATOM     11  C   LIG A   1      -9.364   4.502 132.770  0.00  0.00    +0.010 C 
ATOM     12  C   LIG A   1     -10.085   2.801 131.079  0.00  0.00    +0.010 C 
ENDBRANCH   1  10
TORSDOF 1
ENDMDL
MODEL 9
REMARK VINA RESULT:      -5.2      9.221      9.761
REMARK  Name = NuBBE_1742
REMARK  4 active torsions:
REMARK  status: ('A' for Active; 'I' for Inactive)
REMARK    1  A    between atoms: C_1  and  C_2
REMARK    2  A    between atoms: C_1  and  C_3
REMARK    3  A    between atoms: C_1  and  C_4
REMARK    4  A    between atoms: C_7  and  C_12
REMARK                            x       y       z     vdW  Elec       q    Type
REMARK                         _______ _______ _______ _____ _____    ______ ____
ROOT
ATOM      1  C   LIG A   1      -8.964   0.589 123.947  0.00  0.00    +0.125 C 
ATOM      2  C   LIG A   1      -7.558   0.178 123.451  0.00  0.00    +0.046 C 
ATOM      3  C   LIG A   1      -7.413  -1.354 123.541  0.00  0.00    +0.045 C 
ATOM      4  C   LIG A   1      -8.700  -1.943 124.142  0.00  0.00    +0.120 C 
ATOM      5  C   LIG A   1      -9.012  -1.272 125.456  0.00  0.00    +0.009 C 
ATOM      6  C   LIG A   1      -9.160   0.056 125.354  0.00  0.00    +0.009 C 
ATOM      7  O   LIG A   1      -9.776  -1.606 123.237  0.00  0.00    -0.223 OA
ATOM      8  O   LIG A   1      -9.897  -0.119 123.081  0.00  0.00    -0.223 OA
ATOM      9  C   LIG A   1      -8.634  -3.460 124.259  0.00  0.00    +0.049 C 
ENDROOT
BRANCH   1  10
ATOM     10  C   LIG A   1      -9.236   2.108 123.778  0.00  0.00    +0.022 C 
ATOM     11  C   LIG A   1      -8.567   2.951 124.874  0.00  0.00    +0.010 C 
ATOM     12  C   LIG A   1      -8.846   2.658 122.402  0.00  0.00    +0.010 C 
ENDBRANCH   1  10
TORSDOF 1
ENDMDL
