MODEL 1
REMARK VINA RESULT:      -4.1      0.000      0.000
REMARK  Name = NuBBE_2116
REMARK  6 active torsions:
REMARK  status: ('A' for Active; 'I' for Inactive)
REMARK    1  A    between atoms: C_1  and  C_2
REMARK    2  A    between atoms: C_2  and  C_3
REMARK    3  A    between atoms: C_3  and  C_4
REMARK    4  A    between atoms: C_4  and  C_5
REMARK    5  A    between atoms: C_5  and  C_6
REMARK    6  A    between atoms: C_6  and  C_7
REMARK                            x       y       z     vdW  Elec       q    Type
REMARK                         _______ _______ _______ _____ _____    ______ ____
ROOT
ATOM      1  C   LIG A   1      -6.887  -2.672 123.981  0.00  0.00    -0.000 C 
ENDROOT
BRANCH   1   2
ATOM      2  C   LIG A   1      -7.966  -3.656 124.440  0.00  0.00    -0.000 C 
BRANCH   2   4
ATOM      3  C   LIG A   1      -9.275  -2.047 122.993  0.00  0.00    +0.004 C 
ATOM      4  C   LIG A   1      -9.318  -3.336 123.798  0.00  0.00    -0.003 C 
ENDBRANCH   2   4
ENDBRANCH   1   2
BRANCH   1   5
ATOM      5  C   LIG A   1      -5.511  -3.032 124.547  0.00  0.00    -0.000 C 
BRANCH   5   6
ATOM      6  C   LIG A   1      -4.543  -3.427 123.430  0.00  0.00    -0.003 C 
ATOM      7  C   LIG A   1      -4.223  -4.913 123.458  0.00  0.00    +0.004 C 
ENDBRANCH   5   6
ENDBRANCH   1   5
TORSDOF 4
ENDMDL
MODEL 2
REMARK VINA RESULT:      -4.0      0.556      4.206
REMARK  Name = NuBBE_2116
REMARK  6 active torsions:
REMARK  status: ('A' for Active; 'I' for Inactive)
REMARK    1  A    between atoms: C_1  and  C_2
REMARK    2  A    between atoms: C_2  and  C_3
REMARK    3  A    between atoms: C_3  and  C_4
REMARK    4  A    between atoms: C_4  and  C_5
REMARK    5  A    between atoms: C_5  and  C_6
REMARK    6  A    between atoms: C_6  and  C_7
REMARK                            x       y       z     vdW  Elec       q    Type
REMARK                         _______ _______ _______ _____ _____    ______ ____
ROOT
ATOM      1  C   LIG A   1      -7.007  -3.899 124.330  0.00  0.00    -0.000 C 
ENDROOT
BRANCH   1   2
ATOM      2  C   LIG A   1      -5.907  -2.836 124.368  0.00  0.00    -0.000 C 
BRANCH   2   4
ATOM      3  C   LIG A   1      -4.392  -4.708 123.597  0.00  0.00    +0.004 C 
ATOM      4  C   LIG A   1      -4.724  -3.229 123.480  0.00  0.00    -0.003 C 
ENDBRANCH   2   4
ENDBRANCH   1   2
BRANCH   1   5
ATOM      5  C   LIG A   1      -8.372  -3.320 124.710  0.00  0.00    -0.000 C 
BRANCH   5   6
ATOM      6  C   LIG A   1      -9.254  -3.132 123.474  0.00  0.00    -0.003 C 
ATOM      7  C   LIG A   1      -9.103  -1.743 122.878  0.00  0.00    +0.004 C 
ENDBRANCH   5   6
ENDBRANCH   1   5
TORSDOF 4
ENDMDL
MODEL 3
REMARK VINA RESULT:      -4.0     12.588     14.430
REMARK  Name = NuBBE_2116
REMARK  6 active torsions:
REMARK  status: ('A' for Active; 'I' for Inactive)
REMARK    1  A    between atoms: C_1  and  C_2
REMARK    2  A    between atoms: C_2  and  C_3
REMARK    3  A    between atoms: C_3  and  C_4
REMARK    4  A    between atoms: C_4  and  C_5
REMARK    5  A    between atoms: C_5  and  C_6
REMARK    6  A    between atoms: C_6  and  C_7
REMARK                            x       y       z     vdW  Elec       q    Type
REMARK                         _______ _______ _______ _____ _____    ______ ____
ROOT
ATOM      1  C   LIG A   1     -11.996   7.692 129.066  0.00  0.00    -0.000 C 
ENDROOT
BRANCH   1   2
ATOM      2  C   LIG A   1     -10.804   8.230 128.272  0.00  0.00    -0.000 C 
BRANCH   2   4
ATOM      3  C   LIG A   1     -12.197   7.113 126.481  0.00  0.00    +0.004 C 
ATOM      4  C   LIG A   1     -10.957   7.943 126.777  0.00  0.00    -0.003 C 
ENDBRANCH   2   4
ENDBRANCH   1   2
BRANCH   1   5
ATOM      5  C   LIG A   1     -12.622   8.769 129.955  0.00  0.00    -0.000 C 
BRANCH   5   6
ATOM      6  C   LIG A   1     -13.195   9.912 129.114  0.00  0.00    -0.003 C 
ATOM      7  C   LIG A   1     -13.578  11.107 129.972  0.00  0.00    +0.004 C 
ENDBRANCH   5   6
ENDBRANCH   1   5
TORSDOF 4
ENDMDL
MODEL 4
REMARK VINA RESULT:      -3.9      1.644      4.273
REMARK  Name = NuBBE_2116
REMARK  6 active torsions:
REMARK  status: ('A' for Active; 'I' for Inactive)
REMARK    1  A    between atoms: C_1  and  C_2
REMARK    2  A    between atoms: C_2  and  C_3
REMARK    3  A    between atoms: C_3  and  C_4
REMARK    4  A    between atoms: C_4  and  C_5
REMARK    5  A    between atoms: C_5  and  C_6
REMARK    6  A    between atoms: C_6  and  C_7
REMARK                            x       y       z     vdW  Elec       q    Type
REMARK                         _______ _______ _______ _____ _____    ______ ____
ROOT
ATOM      1  C   LIG A   1      -7.416  -3.820 124.385  0.00  0.00    -0.000 C 
ENDROOT
BRANCH   1   2
ATOM      2  C   LIG A   1      -6.181  -2.949 124.629  0.00  0.00    -0.000 C 
BRANCH   2   4
ATOM      3  C   LIG A   1      -4.416  -4.507 123.705  0.00  0.00    +0.004 C 
ATOM      4  C   LIG A   1      -5.123  -3.171 123.546  0.00  0.00    -0.003 C 
ENDBRANCH   2   4
ENDBRANCH   1   2
BRANCH   1   5
ATOM      5  C   LIG A   1      -8.628  -3.323 125.178  0.00  0.00    -0.000 C 
BRANCH   5   6
ATOM      6  C   LIG A   1      -8.234  -2.948 126.608  0.00  0.00    -0.003 C 
ATOM      7  C   LIG A   1      -8.888  -3.860 127.632  0.00  0.00    +0.004 C 
ENDBRANCH   5   6
ENDBRANCH   1   5
TORSDOF 4
ENDMDL
MODEL 5
REMARK VINA RESULT:      -3.8     12.574     14.215
REMARK  Name = NuBBE_2116
REMARK  6 active torsions:
REMARK  status: ('A' for Active; 'I' for Inactive)
REMARK    1  A    between atoms: C_1  and  C_2
REMARK    2  A    between atoms: C_2  and  C_3
REMARK    3  A    between atoms: C_3  and  C_4
REMARK    4  A    between atoms: C_4  and  C_5
REMARK    5  A    between atoms: C_5  and  C_6
REMARK    6  A    between atoms: C_6  and  C_7
REMARK                            x       y       z     vdW  Elec       q    Type
REMARK                         _______ _______ _______ _____ _____    ______ ____
ROOT
ATOM      1  C   LIG A   1     -12.729   7.477 129.203  0.00  0.00    -0.000 C 
ENDROOT
BRANCH   1   2
ATOM      2  C   LIG A   1     -12.611   8.867 129.833  0.00  0.00    -0.000 C 
BRANCH   2   4
ATOM      3  C   LIG A   1     -13.647  11.174 129.872  0.00  0.00    +0.004 C 
ATOM      4  C   LIG A   1     -13.454   9.894 129.075  0.00  0.00    -0.003 C 
ENDBRANCH   2   4
ENDBRANCH   1   2
BRANCH   1   5
ATOM      5  C   LIG A   1     -13.427   7.526 127.842  0.00  0.00    -0.000 C 
BRANCH   5   6
ATOM      6  C   LIG A   1     -12.462   7.157 126.714  0.00  0.00    -0.003 C 
ATOM      7  C   LIG A   1     -11.014   7.394 127.110  0.00  0.00    +0.004 C 
ENDBRANCH   5   6
ENDBRANCH   1   5
TORSDOF 4
ENDMDL
MODEL 6
REMARK VINA RESULT:      -3.8     12.157     13.512
REMARK  Name = NuBBE_2116
REMARK  6 active torsions:
REMARK  status: ('A' for Active; 'I' for Inactive)
REMARK    1  A    between atoms: C_1  and  C_2
REMARK    2  A    between atoms: C_2  and  C_3
REMARK    3  A    between atoms: C_3  and  C_4
REMARK    4  A    between atoms: C_4  and  C_5
REMARK    5  A    between atoms: C_5  and  C_6
REMARK    6  A    between atoms: C_6  and  C_7
REMARK                            x       y       z     vdW  Elec       q    Type
REMARK                         _______ _______ _______ _____ _____    ______ ____
ROOT
ATOM      1  C   LIG A   1     -11.268   7.728 129.307  0.00  0.00    -0.000 C 
ENDROOT
BRANCH   1   2
ATOM      2  C   LIG A   1     -10.841   8.514 128.066  0.00  0.00    -0.000 C 
BRANCH   2   4
ATOM      3  C   LIG A   1     -12.269   7.126 126.508  0.00  0.00    +0.004 C 
ATOM      4  C   LIG A   1     -10.870   7.635 126.814  0.00  0.00    -0.003 C 
ENDBRANCH   2   4
ENDBRANCH   1   2
BRANCH   1   5
ATOM      5  C   LIG A   1     -12.531   8.312 129.945  0.00  0.00    -0.000 C 
BRANCH   5   6
ATOM      6  C   LIG A   1     -12.874   7.591 131.250  0.00  0.00    -0.003 C 
ATOM      7  C   LIG A   1     -11.809   6.576 131.631  0.00  0.00    +0.004 C 
ENDBRANCH   5   6
ENDBRANCH   1   5
TORSDOF 4
ENDMDL
MODEL 7
REMARK VINA RESULT:      -3.8     12.152     13.487
REMARK  Name = NuBBE_2116
REMARK  6 active torsions:
REMARK  status: ('A' for Active; 'I' for Inactive)
REMARK    1  A    between atoms: C_1  and  C_2
REMARK    2  A    between atoms: C_2  and  C_3
REMARK    3  A    between atoms: C_3  and  C_4
REMARK    4  A    between atoms: C_4  and  C_5
REMARK    5  A    between atoms: C_5  and  C_6
REMARK    6  A    between atoms: C_6  and  C_7
REMARK                            x       y       z     vdW  Elec       q    Type
REMARK                         _______ _______ _______ _____ _____    ______ ____
ROOT
ATOM      1  C   LIG A   1     -12.682   8.355 129.782  0.00  0.00    -0.000 C 
ENDROOT
BRANCH   1   2
ATOM      2  C   LIG A   1     -13.100   7.857 128.396  0.00  0.00    -0.000 C 
BRANCH   2   4
ATOM      3  C   LIG A   1     -10.675   8.463 128.015  0.00  0.00    +0.004 C 
ATOM      4  C   LIG A   1     -11.897   7.750 127.458  0.00  0.00    -0.003 C 
ENDBRANCH   2   4
ENDBRANCH   1   2
BRANCH   1   5
ATOM      5  C   LIG A   1     -13.002   7.331 130.874  0.00  0.00    -0.000 C 
BRANCH   5   6
ATOM      6  C   LIG A   1     -11.726   6.669 131.399  0.00  0.00    -0.003 C 
ATOM      7  C   LIG A   1     -11.343   5.451 130.576  0.00  0.00    +0.004 C 
ENDBRANCH   5   6
ENDBRANCH   1   5
TORSDOF 4
ENDMDL
MODEL 8
REMARK VINA RESULT:      -3.8      2.471      3.988
REMARK  Name = NuBBE_2116
REMARK  6 active torsions:
REMARK  status: ('A' for Active; 'I' for Inactive)
REMARK    1  A    between atoms: C_1  and  C_2
REMARK    2  A    between atoms: C_2  and  C_3
REMARK    3  A    between atoms: C_3  and  C_4
REMARK    4  A    between atoms: C_4  and  C_5
REMARK    5  A    between atoms: C_5  and  C_6
REMARK    6  A    between atoms: C_6  and  C_7
REMARK                            x       y       z     vdW  Elec       q    Type
REMARK                         _______ _______ _______ _____ _____    ______ ____
ROOT
ATOM      1  C   LIG A   1      -7.821  -3.061 125.779  0.00  0.00    -0.000 C 
ENDROOT
BRANCH   1   2
ATOM      2  C   LIG A   1      -8.026  -3.778 124.442  0.00  0.00    -0.000 C 
BRANCH   2   4
ATOM      3  C   LIG A   1      -9.097  -1.994 123.005  0.00  0.00    +0.004 C 
ATOM      4  C   LIG A   1      -9.304  -3.304 123.748  0.00  0.00    -0.003 C 
ENDBRANCH   2   4
ENDBRANCH   1   2
BRANCH   1   5
ATOM      5  C   LIG A   1      -9.089  -3.081 126.635  0.00  0.00    -0.000 C 
BRANCH   5   6
ATOM      6  C   LIG A   1      -8.919  -3.995 127.851  0.00  0.00    -0.003 C 
ATOM      7  C   LIG A   1      -8.334  -3.250 129.039  0.00  0.00    +0.004 C 
ENDBRANCH   5   6
ENDBRANCH   1   5
TORSDOF 4
ENDMDL
MODEL 9
REMARK VINA RESULT:      -3.7      1.459      1.998
REMARK  Name = NuBBE_2116
REMARK  6 active torsions:
REMARK  status: ('A' for Active; 'I' for Inactive)
REMARK    1  A    between atoms: C_1  and  C_2
REMARK    2  A    between atoms: C_2  and  C_3
REMARK    3  A    between atoms: C_3  and  C_4
REMARK    4  A    between atoms: C_4  and  C_5
REMARK    5  A    between atoms: C_5  and  C_6
REMARK    6  A    between atoms: C_6  and  C_7
REMARK                            x       y       z     vdW  Elec       q    Type
REMARK                         _______ _______ _______ _____ _____    ______ ____
ROOT
ATOM      1  C   LIG A   1      -6.886  -3.465 124.316  0.00  0.00    -0.000 C 
ENDROOT
BRANCH   1   2
ATOM      2  C   LIG A   1      -7.779  -2.531 125.137  0.00  0.00    -0.000 C 
BRANCH   2   4
ATOM      3  C   LIG A   1      -8.838  -3.613 127.162  0.00  0.00    +0.004 C 
ATOM      4  C   LIG A   1      -8.998  -3.271 125.690  0.00  0.00    -0.003 C 
ENDBRANCH   2   4
ENDBRANCH   1   2
BRANCH   1   5
ATOM      5  C   LIG A   1      -5.913  -2.687 123.427  0.00  0.00    -0.000 C 
BRANCH   5   6
ATOM      6  C   LIG A   1      -4.497  -3.255 123.531  0.00  0.00    -0.003 C 
ATOM      7  C   LIG A   1      -4.502  -4.772 123.615  0.00  0.00    +0.004 C 
ENDBRANCH   5   6
ENDBRANCH   1   5
TORSDOF 4
ENDMDL
