MODEL 1
REMARK VINA RESULT:     -10.7      0.000      0.000
REMARK  Name = NuBBE_2410
REMARK  10 active torsions:
REMARK  status: ('A' for Active; 'I' for Inactive)
REMARK    1  A    between atoms: C_1  and  C_2
REMARK    2  A    between atoms: N_5  and  C_6
REMARK    3  A    between atoms: C_20  and  C_22
REMARK    4  A    between atoms: C_23  and  O_24
REMARK    5  A    between atoms: O_24  and  C_25
REMARK    6  A    between atoms: C_37  and  C_39
REMARK    7  A    between atoms: C_39  and  C_40
REMARK    8  A    between atoms: C_53  and  C_55
REMARK    9  A    between atoms: C_55  and  O_57
REMARK   10  A    between atoms: O_57  and  C_58
REMARK                            x       y       z     vdW  Elec       q    Type
REMARK                         _______ _______ _______ _____ _____    ______ ____
ROOT
ATOM      1  C   LIG A   1      -2.966  -3.676 129.180  0.00  0.00    +0.035 C 
ATOM      2  C   LIG A   1      -4.106  -3.019 128.468  0.00  0.00    -0.030 C 
ATOM      3  C   LIG A   1      -5.325  -2.732 128.979  0.00  0.00    -0.056 C 
ATOM      4  C   LIG A   1      -5.706  -3.165 130.390  0.00  0.00    +0.115 C 
ATOM      5  N   LIG A   1      -7.120  -3.040 130.735  0.00  0.00    -0.297 NA
ATOM      6  C   LIG A   1      -7.382  -3.307 132.145  0.00  0.00    +0.105 C 
ATOM      7  C   LIG A   1      -7.732  -1.791 130.249  0.00  0.00    +0.075 C 
ATOM      8  C   LIG A   1      -7.040  -0.510 130.799  0.00  0.00    +0.057 C 
ATOM      9  C   LIG A   1      -7.566   0.760 130.203  0.00  0.00    -0.017 A 
ATOM     10  C   LIG A   1      -7.405   1.242 128.900  0.00  0.00    +0.028 A 
ATOM     11  N   LIG A   1      -8.177   2.383 128.813  0.00  0.00    -0.357 N 
ATOM     12  H   LIG A   1      -8.251   2.957 127.984  0.00  0.00    +0.166 HD
ATOM     13  C   LIG A   1      -8.789   2.668 130.008  0.00  0.00    +0.047 A 
ATOM     14  C   LIG A   1      -9.679   3.696 130.343  0.00  0.00    +0.026 A 
ATOM     15  C   LIG A   1     -10.098   3.791 131.673  0.00  0.00    +0.002 A 
ATOM     16  C   LIG A   1      -9.636   2.895 132.633  0.00  0.00    +0.001 A 
ATOM     17  C   LIG A   1      -8.780   1.846 132.270  0.00  0.00    +0.010 A 
ATOM     18  C   LIG A   1      -8.361   1.717 130.926  0.00  0.00    +0.003 A 
ATOM     19  C   LIG A   1      -6.636   0.766 127.648  0.00  0.00    +0.072 C 
ATOM     20  C   LIG A   1      -5.685  -0.430 127.946  0.00  0.00    +0.023 C 
ATOM     21  C   LIG A   1      -6.301  -1.858 128.151  0.00  0.00    +0.032 C 
ATOM     22  C   LIG A   1      -7.739  -1.901 128.711  0.00  0.00    +0.122 C 
ENDROOT
BRANCH  19  23
ATOM     23  C   LIG A   1      -5.828   1.930 127.012  0.00  0.00    +0.027 A 
ATOM     24  C   LIG A   1      -5.851   2.254 125.613  0.00  0.00    +0.126 A 
ATOM     25  C   LIG A   1      -5.092   3.325 125.109  0.00  0.00    +0.046 A 
ATOM     26  C   LIG A   1      -4.290   4.110 125.919  0.00  0.00    +0.014 A 
ATOM     27  C   LIG A   1      -4.228   3.829 127.281  0.00  0.00    +0.004 A 
ATOM     28  C   LIG A   1      -3.496   4.425 128.335  0.00  0.00    -0.018 A 
ATOM     29  C   LIG A   1      -2.439   5.535 128.302  0.00  0.00    +0.053 C 
ATOM     30  C   LIG A   1      -2.500   6.712 129.359  0.00  0.00    +0.089 C 
ATOM     31  N   LIG A   1      -2.774   6.554 130.821  0.00  0.00    -0.298 NA
ATOM     32  C   LIG A   1      -1.688   6.021 131.698  0.00  0.00    +0.088 C 
ATOM     33  C   LIG A   1      -2.253   4.936 132.743  0.00  0.00    +0.004 C 
ATOM     34  C   LIG A   1      -3.438   5.588 133.475  0.00  0.00    +0.009 C 
ATOM     35  C   LIG A   1      -4.514   5.955 132.427  0.00  0.00    +0.007 C 
ATOM     36  C   LIG A   1      -3.958   5.700 131.001  0.00  0.00    +0.069 C 
ATOM     37  C   LIG A   1      -3.416   4.259 130.776  0.00  0.00    +0.054 C 
ATOM     38  C   LIG A   1      -2.849   3.664 132.023  0.00  0.00    +0.016 C 
ATOM     39  C   LIG A   1      -3.881   3.755 129.484  0.00  0.00    +0.025 A 
ATOM     40  N   LIG A   1      -4.771   2.779 129.178  0.00  0.00    -0.357 N 
ATOM     41  H   LIG A   1      -5.244   2.174 129.837  0.00  0.00    +0.166 HD
ATOM     42  C   LIG A   1      -4.992   2.773 127.805  0.00  0.00    +0.054 A 
BRANCH  24  43
ATOM     43  O   LIG A   1      -6.647   1.511 124.757  0.00  0.00    -0.495 OA
ATOM     44  C   LIG A   1      -6.977   2.144 123.505  0.00  0.00    +0.277 C 
ENDBRANCH  24  43
BRANCH  35  45
ATOM     45  C   LIG A   1      -5.846   5.229 132.690  0.00  0.00    +0.002 C 
ATOM     46  C   LIG A   1      -7.056   5.990 132.163  0.00  0.00    +0.004 C 
ENDBRANCH  35  45
ENDBRANCH  19  23
BRANCH  22  47
ATOM     47  C   LIG A   1      -8.519  -3.162 128.302  0.00  0.00    +0.312 C 
ATOM     48  O   LIG A   1      -9.223  -3.803 129.062  0.00  0.00    -0.251 OA
BRANCH  47  49
ATOM     49  O   LIG A   1      -8.297  -3.481 126.996  0.00  0.00    -0.468 OA
ATOM     50  C   LIG A   1      -9.199  -2.944 126.035  0.00  0.00    +0.280 C 
ENDBRANCH  47  49
ENDBRANCH  22  47
TORSDOF 5
ENDMDL
MODEL 2
REMARK VINA RESULT:     -10.0      3.428      4.864
REMARK  Name = NuBBE_2410
REMARK  10 active torsions:
REMARK  status: ('A' for Active; 'I' for Inactive)
REMARK    1  A    between atoms: C_1  and  C_2
REMARK    2  A    between atoms: N_5  and  C_6
REMARK    3  A    between atoms: C_20  and  C_22
REMARK    4  A    between atoms: C_23  and  O_24
REMARK    5  A    between atoms: O_24  and  C_25
REMARK    6  A    between atoms: C_37  and  C_39
REMARK    7  A    between atoms: C_39  and  C_40
REMARK    8  A    between atoms: C_53  and  C_55
REMARK    9  A    between atoms: C_55  and  O_57
REMARK   10  A    between atoms: O_57  and  C_58
REMARK                            x       y       z     vdW  Elec       q    Type
REMARK                         _______ _______ _______ _____ _____    ______ ____
ROOT
ATOM      1  C   LIG A   1      -0.817  -1.751 134.421  0.00  0.00    +0.035 C 
ATOM      2  C   LIG A   1      -2.233  -1.946 133.978  0.00  0.00    -0.030 C 
ATOM      3  C   LIG A   1      -3.343  -1.440 134.560  0.00  0.00    -0.056 C 
ATOM      4  C   LIG A   1      -3.256  -0.650 135.862  0.00  0.00    +0.115 C 
ATOM      5  N   LIG A   1      -4.526  -0.386 136.533  0.00  0.00    -0.297 NA
ATOM      6  C   LIG A   1      -4.385   0.514 137.672  0.00  0.00    +0.105 C 
ATOM      7  C   LIG A   1      -5.606  -0.000 135.609  0.00  0.00    +0.075 C 
ATOM      8  C   LIG A   1      -5.283   1.276 134.780  0.00  0.00    +0.057 C 
ATOM      9  C   LIG A   1      -6.315   1.595 133.741  0.00  0.00    -0.017 A 
ATOM     10  C   LIG A   1      -6.598   0.908 132.556  0.00  0.00    +0.028 A 
ATOM     11  N   LIG A   1      -7.707   1.523 132.010  0.00  0.00    -0.357 N 
ATOM     12  H   LIG A   1      -8.139   1.246 131.139  0.00  0.00    +0.166 HD
ATOM     13  C   LIG A   1      -8.117   2.589 132.771  0.00  0.00    +0.047 A 
ATOM     14  C   LIG A   1      -9.209   3.449 132.604  0.00  0.00    +0.026 A 
ATOM     15  C   LIG A   1      -9.349   4.510 133.504  0.00  0.00    +0.002 A 
ATOM     16  C   LIG A   1      -8.426   4.705 134.527  0.00  0.00    +0.001 A 
ATOM     17  C   LIG A   1      -7.365   3.808 134.705  0.00  0.00    +0.010 A 
ATOM     18  C   LIG A   1      -7.215   2.715 133.821  0.00  0.00    +0.003 A 
ATOM     19  C   LIG A   1      -5.992  -0.314 131.832  0.00  0.00    +0.072 C 
ATOM     20  C   LIG A   1      -4.657  -0.792 132.475  0.00  0.00    +0.023 C 
ATOM     21  C   LIG A   1      -4.704  -1.576 133.832  0.00  0.00    +0.032 C 
ATOM     22  C   LIG A   1      -5.896  -1.255 134.759  0.00  0.00    +0.122 C 
ENDROOT
BRANCH  19  23
ATOM     23  C   LIG A   1      -5.770  -0.018 130.325  0.00  0.00    +0.027 A 
ATOM     24  C   LIG A   1      -6.206  -0.880 129.263  0.00  0.00    +0.126 A 
ATOM     25  C   LIG A   1      -5.969  -0.544 127.918  0.00  0.00    +0.046 A 
ATOM     26  C   LIG A   1      -5.309   0.614 127.549  0.00  0.00    +0.014 A 
ATOM     27  C   LIG A   1      -4.858   1.478 128.544  0.00  0.00    +0.004 A 
ATOM     28  C   LIG A   1      -4.146   2.699 128.481  0.00  0.00    -0.018 A 
ATOM     29  C   LIG A   1      -3.544   3.433 127.277  0.00  0.00    +0.053 C 
ATOM     30  C   LIG A   1      -3.749   4.995 127.125  0.00  0.00    +0.089 C 
ATOM     31  N   LIG A   1      -3.625   6.000 128.225  0.00  0.00    -0.298 NA
ATOM     32  C   LIG A   1      -2.259   6.375 128.701  0.00  0.00    +0.088 C 
ATOM     33  C   LIG A   1      -2.193   6.452 130.306  0.00  0.00    +0.004 C 
ATOM     34  C   LIG A   1      -3.332   7.381 130.760  0.00  0.00    +0.009 C 
ATOM     35  C   LIG A   1      -4.673   6.769 130.294  0.00  0.00    +0.007 C 
ATOM     36  C   LIG A   1      -4.395   5.537 129.390  0.00  0.00    +0.069 C 
ATOM     37  C   LIG A   1      -3.478   4.462 130.042  0.00  0.00    +0.054 C 
ATOM     38  C   LIG A   1      -2.485   5.059 130.986  0.00  0.00    +0.016 C 
ATOM     39  C   LIG A   1      -4.027   3.131 129.792  0.00  0.00    +0.025 A 
ATOM     40  N   LIG A   1      -4.594   2.231 130.632  0.00  0.00    -0.357 N 
ATOM     41  H   LIG A   1      -4.686   2.326 131.635  0.00  0.00    +0.166 HD
ATOM     42  C   LIG A   1      -5.100   1.167 129.892  0.00  0.00    +0.054 A 
BRANCH  24  43
ATOM     43  O   LIG A   1      -6.886  -2.047 129.572  0.00  0.00    -0.495 OA
ATOM     44  C   LIG A   1      -6.078  -3.240 129.644  0.00  0.00    +0.277 C 
ENDBRANCH  24  43
BRANCH  35  45
ATOM     45  C   LIG A   1      -5.602   6.445 131.479  0.00  0.00    +0.002 C 
ATOM     46  C   LIG A   1      -7.051   6.842 131.226  0.00  0.00    +0.004 C 
ENDBRANCH  35  45
ENDBRANCH  19  23
BRANCH  22  47
ATOM     47  C   LIG A   1      -6.277  -2.416 135.693  0.00  0.00    +0.312 C 
ATOM     48  O   LIG A   1      -5.655  -3.461 135.766  0.00  0.00    -0.251 OA
BRANCH  47  49
ATOM     49  O   LIG A   1      -7.407  -2.136 136.400  0.00  0.00    -0.468 OA
ATOM     50  C   LIG A   1      -7.419  -2.501 137.776  0.00  0.00    +0.280 C 
ENDBRANCH  47  49
ENDBRANCH  22  47
TORSDOF 5
ENDMDL
MODEL 3
REMARK VINA RESULT:      -9.9      2.960      8.168
REMARK  Name = NuBBE_2410
REMARK  10 active torsions:
REMARK  status: ('A' for Active; 'I' for Inactive)
REMARK    1  A    between atoms: C_1  and  C_2
REMARK    2  A    between atoms: N_5  and  C_6
REMARK    3  A    between atoms: C_20  and  C_22
REMARK    4  A    between atoms: C_23  and  O_24
REMARK    5  A    between atoms: O_24  and  C_25
REMARK    6  A    between atoms: C_37  and  C_39
REMARK    7  A    between atoms: C_39  and  C_40
REMARK    8  A    between atoms: C_53  and  C_55
REMARK    9  A    between atoms: C_55  and  O_57
REMARK   10  A    between atoms: O_57  and  C_58
REMARK                            x       y       z     vdW  Elec       q    Type
REMARK                         _______ _______ _______ _____ _____    ______ ____
ROOT
ATOM      1  C   LIG A   1      -2.049   3.016 126.685  0.00  0.00    +0.035 C 
ATOM      2  C   LIG A   1      -2.487   2.892 128.111  0.00  0.00    -0.030 C 
ATOM      3  C   LIG A   1      -3.063   3.852 128.870  0.00  0.00    -0.056 C 
ATOM      4  C   LIG A   1      -3.246   5.269 128.337  0.00  0.00    +0.115 C 
ATOM      5  N   LIG A   1      -3.628   6.276 129.324  0.00  0.00    -0.297 NA
ATOM      6  C   LIG A   1      -3.952   7.563 128.720  0.00  0.00    +0.105 C 
ATOM      7  C   LIG A   1      -4.646   5.802 130.278  0.00  0.00    +0.075 C 
ATOM      8  C   LIG A   1      -5.967   5.344 129.595  0.00  0.00    +0.057 C 
ATOM      9  C   LIG A   1      -6.954   4.733 130.544  0.00  0.00    -0.017 A 
ATOM     10  C   LIG A   1      -6.878   3.502 131.203  0.00  0.00    +0.028 A 
ATOM     11  N   LIG A   1      -7.966   3.453 132.052  0.00  0.00    -0.357 N 
ATOM     12  H   LIG A   1      -8.180   2.671 132.656  0.00  0.00    +0.166 HD
ATOM     13  C   LIG A   1      -8.746   4.576 131.935  0.00  0.00    +0.047 A 
ATOM     14  C   LIG A   1      -9.903   4.946 132.631  0.00  0.00    +0.026 A 
ATOM     15  C   LIG A   1     -10.543   6.130 132.252  0.00  0.00    +0.002 A 
ATOM     16  C   LIG A   1     -10.047   6.908 131.210  0.00  0.00    +0.001 A 
ATOM     17  C   LIG A   1      -8.863   6.545 130.555  0.00  0.00    +0.010 A 
ATOM     18  C   LIG A   1      -8.186   5.363 130.936  0.00  0.00    +0.003 A 
ATOM     19  C   LIG A   1      -5.886   2.319 131.196  0.00  0.00    +0.072 C 
ATOM     20  C   LIG A   1      -4.812   2.443 130.076  0.00  0.00    +0.023 C 
ATOM     21  C   LIG A   1      -3.640   3.470 130.257  0.00  0.00    +0.032 C 
ATOM     22  C   LIG A   1      -3.953   4.711 131.119  0.00  0.00    +0.122 C 
ENDROOT
BRANCH  19  23
ATOM     23  C   LIG A   1      -6.631   0.964 131.057  0.00  0.00    +0.027 A 
ATOM     24  C   LIG A   1      -7.120   0.197 132.168  0.00  0.00    +0.126 A 
ATOM     25  C   LIG A   1      -7.788  -1.023 131.964  0.00  0.00    +0.046 A 
ATOM     26  C   LIG A   1      -8.004  -1.547 130.701  0.00  0.00    +0.014 A 
ATOM     27  C   LIG A   1      -7.540  -0.844 129.593  0.00  0.00    +0.004 A 
ATOM     28  C   LIG A   1      -7.587  -1.129 128.208  0.00  0.00    -0.018 A 
ATOM     29  C   LIG A   1      -8.090  -2.376 127.471  0.00  0.00    +0.053 C 
ATOM     30  C   LIG A   1      -9.007  -2.218 126.191  0.00  0.00    +0.089 C 
ATOM     31  N   LIG A   1      -8.791  -1.238 125.081  0.00  0.00    -0.298 NA
ATOM     32  C   LIG A   1      -7.708  -1.510 124.089  0.00  0.00    +0.088 C 
ATOM     33  C   LIG A   1      -6.865  -0.181 123.757  0.00  0.00    +0.004 C 
ATOM     34  C   LIG A   1      -7.876   0.906 123.355  0.00  0.00    +0.009 C 
ATOM     35  C   LIG A   1      -8.832   1.145 124.546  0.00  0.00    +0.007 C 
ATOM     36  C   LIG A   1      -8.552   0.095 125.655  0.00  0.00    +0.069 C 
ATOM     37  C   LIG A   1      -7.068   0.040 126.121  0.00  0.00    +0.054 C 
ATOM     38  C   LIG A   1      -6.115   0.386 125.024  0.00  0.00    +0.016 C 
ATOM     39  C   LIG A   1      -7.013  -0.037 127.580  0.00  0.00    +0.025 A 
ATOM     40  N   LIG A   1      -6.600   0.866 128.503  0.00  0.00    -0.357 N 
ATOM     41  H   LIG A   1      -6.192   1.772 128.311  0.00  0.00    +0.166 HD
ATOM     42  C   LIG A   1      -6.885   0.384 129.777  0.00  0.00    +0.054 A 
BRANCH  24  43
ATOM     43  O   LIG A   1      -6.945   0.680 133.455  0.00  0.00    -0.495 OA
ATOM     44  C   LIG A   1      -5.904   0.044 134.224  0.00  0.00    +0.277 C 
ENDBRANCH  24  43
BRANCH  35  45
ATOM     45  C   LIG A   1      -8.760   2.594 125.062  0.00  0.00    +0.002 C 
ATOM     46  C   LIG A   1      -7.940   3.509 124.160  0.00  0.00    +0.004 C 
ENDBRANCH  35  45
ENDBRANCH  19  23
BRANCH  22  47
ATOM     47  C   LIG A   1      -2.712   5.314 131.799  0.00  0.00    +0.312 C 
ATOM     48  O   LIG A   1      -1.627   4.762 131.846  0.00  0.00    -0.251 OA
BRANCH  47  49
ATOM     49  O   LIG A   1      -2.991   6.523 132.361  0.00  0.00    -0.468 OA
ATOM     50  C   LIG A   1      -1.965   7.509 132.322  0.00  0.00    +0.280 C 
ENDBRANCH  47  49
ENDBRANCH  22  47
TORSDOF 5
ENDMDL
MODEL 4
REMARK VINA RESULT:      -9.8      4.089      9.403
REMARK  Name = NuBBE_2410
REMARK  10 active torsions:
REMARK  status: ('A' for Active; 'I' for Inactive)
REMARK    1  A    between atoms: C_1  and  C_2
REMARK    2  A    between atoms: N_5  and  C_6
REMARK    3  A    between atoms: C_20  and  C_22
REMARK    4  A    between atoms: C_23  and  O_24
REMARK    5  A    between atoms: O_24  and  C_25
REMARK    6  A    between atoms: C_37  and  C_39
REMARK    7  A    between atoms: C_39  and  C_40
REMARK    8  A    between atoms: C_53  and  C_55
REMARK    9  A    between atoms: C_55  and  O_57
REMARK   10  A    between atoms: O_57  and  C_58
REMARK                            x       y       z     vdW  Elec       q    Type
REMARK                         _______ _______ _______ _____ _____    ______ ____
ROOT
ATOM      1  C   LIG A   1      -4.145   3.250 133.043  0.00  0.00    +0.035 C 
ATOM      2  C   LIG A   1      -5.284   2.286 133.160  0.00  0.00    -0.030 C 
ATOM      3  C   LIG A   1      -6.266   2.076 132.256  0.00  0.00    -0.056 C 
ATOM      4  C   LIG A   1      -6.364   2.924 130.992  0.00  0.00    +0.115 C 
ATOM      5  N   LIG A   1      -7.603   2.791 130.230  0.00  0.00    -0.297 NA
ATOM      6  C   LIG A   1      -7.556   3.494 128.952  0.00  0.00    +0.105 C 
ATOM      7  C   LIG A   1      -8.074   1.400 130.118  0.00  0.00    +0.075 C 
ATOM      8  C   LIG A   1      -7.045   0.451 129.437  0.00  0.00    +0.057 C 
ATOM      9  C   LIG A   1      -7.459  -0.989 129.445  0.00  0.00    -0.017 A 
ATOM     10  C   LIG A   1      -7.535  -1.866 130.532  0.00  0.00    +0.028 A 
ATOM     11  N   LIG A   1      -8.082  -3.037 130.044  0.00  0.00    -0.357 N 
ATOM     12  H   LIG A   1      -8.250  -3.861 130.604  0.00  0.00    +0.166 HD
ATOM     13  C   LIG A   1      -8.320  -2.956 128.695  0.00  0.00    +0.047 A 
ATOM     14  C   LIG A   1      -8.897  -3.889 127.824  0.00  0.00    +0.026 A 
ATOM     15  C   LIG A   1      -8.953  -3.566 126.465  0.00  0.00    +0.002 A 
ATOM     16  C   LIG A   1      -8.442  -2.359 125.996  0.00  0.00    +0.001 A 
ATOM     17  C   LIG A   1      -7.910  -1.420 126.888  0.00  0.00    +0.010 A 
ATOM     18  C   LIG A   1      -7.863  -1.714 128.270  0.00  0.00    +0.003 A 
ATOM     19  C   LIG A   1      -7.197  -1.773 132.036  0.00  0.00    +0.072 C 
ATOM     20  C   LIG A   1      -6.439  -0.463 132.400  0.00  0.00    +0.023 C 
ATOM     21  C   LIG A   1      -7.238   0.886 132.461  0.00  0.00    +0.032 C 
ATOM     22  C   LIG A   1      -8.478   0.981 131.547  0.00  0.00    +0.122 C 
ENDROOT
BRANCH  19  23
ATOM     23  C   LIG A   1      -6.370  -3.001 132.501  0.00  0.00    +0.027 A 
ATOM     24  C   LIG A   1      -5.192  -3.477 131.832  0.00  0.00    +0.126 A 
ATOM     25  C   LIG A   1      -4.493  -4.599 132.313  0.00  0.00    +0.046 A 
ATOM     26  C   LIG A   1      -4.898  -5.297 133.437  0.00  0.00    +0.014 A 
ATOM     27  C   LIG A   1      -6.040  -4.879 134.114  0.00  0.00    +0.004 A 
ATOM     28  C   LIG A   1      -6.702  -5.393 135.254  0.00  0.00    -0.018 A 
ATOM     29  C   LIG A   1      -6.423  -6.659 136.073  0.00  0.00    +0.053 C 
ATOM     30  C   LIG A   1      -6.428  -6.591 137.655  0.00  0.00    +0.089 C 
ATOM     31  N   LIG A   1      -7.434  -5.866 138.491  0.00  0.00    -0.298 NA
ATOM     32  C   LIG A   1      -8.791  -6.470 138.661  0.00  0.00    +0.088 C 
ATOM     33  C   LIG A   1      -9.950  -5.363 138.522  0.00  0.00    +0.004 C 
ATOM     34  C   LIG A   1      -9.605  -4.223 139.495  0.00  0.00    +0.009 C 
ATOM     35  C   LIG A   1      -8.233  -3.636 139.088  0.00  0.00    +0.007 C 
ATOM     36  C   LIG A   1      -7.611  -4.505 137.962  0.00  0.00    +0.069 C 
ATOM     37  C   LIG A   1      -8.533  -4.702 136.724  0.00  0.00    +0.054 C 
ATOM     38  C   LIG A   1      -9.982  -4.704 137.090  0.00  0.00    +0.016 C 
ATOM     39  C   LIG A   1      -7.755  -4.528 135.499  0.00  0.00    +0.025 A 
ATOM     40  N   LIG A   1      -7.781  -3.550 134.560  0.00  0.00    -0.357 N 
ATOM     41  H   LIG A   1      -8.419  -2.766 134.533  0.00  0.00    +0.166 HD
ATOM     42  C   LIG A   1      -6.741  -3.752 133.657  0.00  0.00    +0.054 A 
BRANCH  24  43
ATOM     43  O   LIG A   1      -4.731  -2.808 130.710  0.00  0.00    -0.495 OA
ATOM     44  C   LIG A   1      -4.368  -3.642 129.591  0.00  0.00    +0.277 C 
ENDBRANCH  24  43
BRANCH  35  45
ATOM     45  C   LIG A   1      -8.333  -2.147 138.709  0.00  0.00    +0.002 C 
ATOM     46  C   LIG A   1      -9.687  -1.535 139.047  0.00  0.00    +0.004 C 
ENDBRANCH  35  45
ENDBRANCH  19  23
BRANCH  22  47
ATOM     47  C   LIG A   1      -9.552   1.951 132.069  0.00  0.00    +0.312 C 
ATOM     48  O   LIG A   1     -10.502   2.331 131.410  0.00  0.00    -0.251 OA
BRANCH  47  49
ATOM     49  O   LIG A   1      -9.286   2.346 133.346  0.00  0.00    -0.468 OA
ATOM     50  C   LIG A   1      -9.293   3.745 133.607  0.00  0.00    +0.280 C 
ENDBRANCH  47  49
ENDBRANCH  22  47
TORSDOF 5
ENDMDL
MODEL 5
REMARK VINA RESULT:      -9.8      2.849      6.959
REMARK  Name = NuBBE_2410
REMARK  10 active torsions:
REMARK  status: ('A' for Active; 'I' for Inactive)
REMARK    1  A    between atoms: C_1  and  C_2
REMARK    2  A    between atoms: N_5  and  C_6
REMARK    3  A    between atoms: C_20  and  C_22
REMARK    4  A    between atoms: C_23  and  O_24
REMARK    5  A    between atoms: O_24  and  C_25
REMARK    6  A    between atoms: C_37  and  C_39
REMARK    7  A    between atoms: C_39  and  C_40
REMARK    8  A    between atoms: C_53  and  C_55
REMARK    9  A    between atoms: C_55  and  O_57
REMARK   10  A    between atoms: O_57  and  C_58
REMARK                            x       y       z     vdW  Elec       q    Type
REMARK                         _______ _______ _______ _____ _____    ______ ____
ROOT
ATOM      1  C   LIG A   1      -5.174  -0.683 125.504  0.00  0.00    +0.035 C 
ATOM      2  C   LIG A   1      -4.853   0.671 126.053  0.00  0.00    -0.030 C 
ATOM      3  C   LIG A   1      -5.689   1.730 126.145  0.00  0.00    -0.056 C 
ATOM      4  C   LIG A   1      -7.102   1.666 125.575  0.00  0.00    +0.115 C 
ATOM      5  N   LIG A   1      -7.814   2.938 125.493  0.00  0.00    -0.297 NA
ATOM      6  C   LIG A   1      -9.210   2.779 125.102  0.00  0.00    +0.105 C 
ATOM      7  C   LIG A   1      -7.629   3.789 126.681  0.00  0.00    +0.075 C 
ATOM      8  C   LIG A   1      -8.102   3.116 128.002  0.00  0.00    +0.057 C 
ATOM      9  C   LIG A   1      -7.791   3.918 129.230  0.00  0.00    -0.017 A 
ATOM     10  C   LIG A   1      -6.544   4.167 129.813  0.00  0.00    +0.028 A 
ATOM     11  N   LIG A   1      -6.774   5.052 130.848  0.00  0.00    -0.357 N 
ATOM     12  H   LIG A   1      -6.053   5.409 131.459  0.00  0.00    +0.166 HD
ATOM     13  C   LIG A   1      -8.109   5.345 130.971  0.00  0.00    +0.047 A 
ATOM     14  C   LIG A   1      -8.763   6.217 131.851  0.00  0.00    +0.026 A 
ATOM     15  C   LIG A   1     -10.159   6.267 131.804  0.00  0.00    +0.002 A 
ATOM     16  C   LIG A   1     -10.873   5.469 130.915  0.00  0.00    +0.001 A 
ATOM     17  C   LIG A   1     -10.199   4.636 130.012  0.00  0.00    +0.010 A 
ATOM     18  C   LIG A   1      -8.786   4.584 130.026  0.00  0.00    +0.003 A 
ATOM     19  C   LIG A   1      -5.095   3.720 129.524  0.00  0.00    +0.072 C 
ATOM     20  C   LIG A   1      -5.016   2.602 128.444  0.00  0.00    +0.023 C 
ATOM     21  C   LIG A   1      -5.235   2.982 126.938  0.00  0.00    +0.032 C 
ATOM     22  C   LIG A   1      -6.143   4.201 126.672  0.00  0.00    +0.122 C 
ENDROOT
BRANCH  19  23
ATOM     23  C   LIG A   1      -4.387   3.244 130.821  0.00  0.00    +0.027 A 
ATOM     24  C   LIG A   1      -3.853   4.131 131.817  0.00  0.00    +0.126 A 
ATOM     25  C   LIG A   1      -3.225   3.625 132.970  0.00  0.00    +0.046 A 
ATOM     26  C   LIG A   1      -3.084   2.268 133.201  0.00  0.00    +0.014 A 
ATOM     27  C   LIG A   1      -3.578   1.369 132.259  0.00  0.00    +0.004 A 
ATOM     28  C   LIG A   1      -3.562  -0.044 132.206  0.00  0.00    -0.018 A 
ATOM     29  C   LIG A   1      -2.898  -1.063 133.141  0.00  0.00    +0.053 C 
ATOM     30  C   LIG A   1      -3.704  -2.342 133.610  0.00  0.00    +0.089 C 
ATOM     31  N   LIG A   1      -4.560  -3.200 132.735  0.00  0.00    -0.298 NA
ATOM     32  C   LIG A   1      -3.894  -4.148 131.791  0.00  0.00    +0.088 C 
ATOM     33  C   LIG A   1      -4.595  -4.130 130.343  0.00  0.00    +0.004 C 
ATOM     34  C   LIG A   1      -6.099  -4.363 130.567  0.00  0.00    +0.009 C 
ATOM     35  C   LIG A   1      -6.641  -3.219 131.455  0.00  0.00    +0.007 C 
ATOM     36  C   LIG A   1      -5.460  -2.342 131.949  0.00  0.00    +0.069 C 
ATOM     37  C   LIG A   1      -4.552  -1.793 130.810  0.00  0.00    +0.054 C 
ATOM     38  C   LIG A   1      -4.485  -2.722 129.641  0.00  0.00    +0.016 C 
ATOM     39  C   LIG A   1      -4.252  -0.384 131.055  0.00  0.00    +0.025 A 
ATOM     40  N   LIG A   1      -4.651   0.737 130.404  0.00  0.00    -0.357 N 
ATOM     41  H   LIG A   1      -5.213   0.771 129.563  0.00  0.00    +0.166 HD
ATOM     42  C   LIG A   1      -4.222   1.856 131.111  0.00  0.00    +0.054 A 
BRANCH  24  43
ATOM     43  O   LIG A   1      -3.978   5.499 131.645  0.00  0.00    -0.495 OA
ATOM     44  C   LIG A   1      -2.818   6.171 131.115  0.00  0.00    +0.277 C 
ENDBRANCH  24  43
BRANCH  35  45
ATOM     45  C   LIG A   1      -7.735  -2.404 130.741  0.00  0.00    +0.002 C 
ATOM     46  C   LIG A   1      -8.185  -3.032 129.427  0.00  0.00    +0.004 C 
ENDBRANCH  35  45
ENDBRANCH  19  23
BRANCH  22  47
ATOM     47  C   LIG A   1      -5.830   4.922 125.350  0.00  0.00    +0.312 C 
ATOM     48  O   LIG A   1      -6.277   6.014 125.049  0.00  0.00    -0.251 OA
BRANCH  47  49
ATOM     49  O   LIG A   1      -5.016   4.172 124.556  0.00  0.00    -0.468 OA
ATOM     50  C   LIG A   1      -5.278   4.190 123.157  0.00  0.00    +0.280 C 
ENDBRANCH  47  49
ENDBRANCH  22  47
TORSDOF 5
ENDMDL
MODEL 6
REMARK VINA RESULT:      -9.8      2.620      5.754
REMARK  Name = NuBBE_2410
REMARK  10 active torsions:
REMARK  status: ('A' for Active; 'I' for Inactive)
REMARK    1  A    between atoms: C_1  and  C_2
REMARK    2  A    between atoms: N_5  and  C_6
REMARK    3  A    between atoms: C_20  and  C_22
REMARK    4  A    between atoms: C_23  and  O_24
REMARK    5  A    between atoms: O_24  and  C_25
REMARK    6  A    between atoms: C_37  and  C_39
REMARK    7  A    between atoms: C_39  and  C_40
REMARK    8  A    between atoms: C_53  and  C_55
REMARK    9  A    between atoms: C_55  and  O_57
REMARK   10  A    between atoms: O_57  and  C_58
REMARK                            x       y       z     vdW  Elec       q    Type
REMARK                         _______ _______ _______ _____ _____    ______ ____
ROOT
ATOM      1  C   LIG A   1      -9.948  -4.020 127.776  0.00  0.00    +0.035 C 
ATOM      2  C   LIG A   1      -8.500  -3.691 127.590  0.00  0.00    -0.030 C 
ATOM      3  C   LIG A   1      -7.978  -2.766 126.754  0.00  0.00    -0.056 C 
ATOM      4  C   LIG A   1      -8.868  -1.988 125.791  0.00  0.00    +0.115 C 
ATOM      5  N   LIG A   1      -8.173  -1.220 124.761  0.00  0.00    -0.297 NA
ATOM      6  C   LIG A   1      -9.073  -0.369 123.989  0.00  0.00    +0.105 C 
ATOM      7  C   LIG A   1      -6.982  -0.512 125.263  0.00  0.00    +0.075 C 
ATOM      8  C   LIG A   1      -7.298   0.491 126.410  0.00  0.00    +0.057 C 
ATOM      9  C   LIG A   1      -6.077   1.111 127.018  0.00  0.00    -0.017 A 
ATOM     10  C   LIG A   1      -5.105   0.509 127.824  0.00  0.00    +0.028 A 
ATOM     11  N   LIG A   1      -4.127   1.463 128.025  0.00  0.00    -0.357 N 
ATOM     12  H   LIG A   1      -3.296   1.315 128.581  0.00  0.00    +0.166 HD
ATOM     13  C   LIG A   1      -4.450   2.650 127.418  0.00  0.00    +0.047 A 
ATOM     14  C   LIG A   1      -3.729   3.848 127.339  0.00  0.00    +0.026 A 
ATOM     15  C   LIG A   1      -4.338   4.937 126.709  0.00  0.00    +0.002 A 
ATOM     16  C   LIG A   1      -5.624   4.832 126.186  0.00  0.00    +0.001 A 
ATOM     17  C   LIG A   1      -6.312   3.613 126.235  0.00  0.00    +0.010 A 
ATOM     18  C   LIG A   1      -5.707   2.491 126.848  0.00  0.00    +0.003 A 
ATOM     19  C   LIG A   1      -4.913  -0.895 128.438  0.00  0.00    +0.072 C 
ATOM     20  C   LIG A   1      -6.167  -1.801 128.267  0.00  0.00    +0.023 C 
ATOM     21  C   LIG A   1      -6.471  -2.421 126.858  0.00  0.00    +0.032 C 
ATOM     22  C   LIG A   1      -5.972  -1.614 125.641  0.00  0.00    +0.122 C 
ENDROOT
BRANCH  19  23
ATOM     23  C   LIG A   1      -4.538  -0.801 129.941  0.00  0.00    +0.027 A 
ATOM     24  C   LIG A   1      -3.452  -1.522 130.545  0.00  0.00    +0.126 A 
ATOM     25  C   LIG A   1      -3.171  -1.385 131.917  0.00  0.00    +0.046 A 
ATOM     26  C   LIG A   1      -3.916  -0.567 132.747  0.00  0.00    +0.014 A 
ATOM     27  C   LIG A   1      -4.986   0.144 132.209  0.00  0.00    +0.004 A 
ATOM     28  C   LIG A   1      -5.926   1.022 132.798  0.00  0.00    -0.018 A 
ATOM     29  C   LIG A   1      -6.134   1.409 134.267  0.00  0.00    +0.053 C 
ATOM     30  C   LIG A   1      -6.355   2.927 134.659  0.00  0.00    +0.089 C 
ATOM     31  N   LIG A   1      -7.233   3.894 133.930  0.00  0.00    -0.298 NA
ATOM     32  C   LIG A   1      -8.713   3.788 134.106  0.00  0.00    +0.088 C 
ATOM     33  C   LIG A   1      -9.487   3.946 132.704  0.00  0.00    +0.004 C 
ATOM     34  C   LIG A   1      -8.987   5.248 132.058  0.00  0.00    +0.009 C 
ATOM     35  C   LIG A   1      -7.462   5.126 131.833  0.00  0.00    +0.007 C 
ATOM     36  C   LIG A   1      -6.945   3.818 132.490  0.00  0.00    +0.069 C 
ATOM     37  C   LIG A   1      -7.691   2.533 132.027  0.00  0.00    +0.054 C 
ATOM     38  C   LIG A   1      -9.121   2.799 131.685  0.00  0.00    +0.016 C 
ATOM     39  C   LIG A   1      -6.722   1.472 131.758  0.00  0.00    +0.025 A 
ATOM     40  N   LIG A   1      -6.336   0.894 130.594  0.00  0.00    -0.357 N 
ATOM     41  H   LIG A   1      -6.720   1.084 129.677  0.00  0.00    +0.166 HD
ATOM     42  C   LIG A   1      -5.271   0.033 130.839  0.00  0.00    +0.054 A 
BRANCH  24  43
ATOM     43  O   LIG A   1      -2.663  -2.345 129.759  0.00  0.00    -0.495 OA
ATOM     44  C   LIG A   1      -3.177  -3.673 129.534  0.00  0.00    +0.277 C 
ENDBRANCH  24  43
BRANCH  35  45
ATOM     45  C   LIG A   1      -7.088   5.237 130.343  0.00  0.00    +0.002 C 
ATOM     46  C   LIG A   1      -5.606   4.998 130.081  0.00  0.00    +0.004 C 
ENDBRANCH  35  45
ENDBRANCH  19  23
BRANCH  22  47
ATOM     47  C   LIG A   1      -5.690  -2.483 124.403  0.00  0.00    +0.312 C 
ATOM     48  O   LIG A   1      -5.917  -2.130 123.259  0.00  0.00    -0.251 OA
BRANCH  47  49
ATOM     49  O   LIG A   1      -5.184  -3.698 124.753  0.00  0.00    -0.468 OA
ATOM     50  C   LIG A   1      -4.423  -4.392 123.771  0.00  0.00    +0.280 C 
ENDBRANCH  47  49
ENDBRANCH  22  47
TORSDOF 5
ENDMDL
MODEL 7
REMARK VINA RESULT:      -9.2      3.059      7.373
REMARK  Name = NuBBE_2410
REMARK  10 active torsions:
REMARK  status: ('A' for Active; 'I' for Inactive)
REMARK    1  A    between atoms: C_1  and  C_2
REMARK    2  A    between atoms: N_5  and  C_6
REMARK    3  A    between atoms: C_20  and  C_22
REMARK    4  A    between atoms: C_23  and  O_24
REMARK    5  A    between atoms: O_24  and  C_25
REMARK    6  A    between atoms: C_37  and  C_39
REMARK    7  A    between atoms: C_39  and  C_40
REMARK    8  A    between atoms: C_53  and  C_55
REMARK    9  A    between atoms: C_55  and  O_57
REMARK   10  A    between atoms: O_57  and  C_58
REMARK                            x       y       z     vdW  Elec       q    Type
REMARK                         _______ _______ _______ _____ _____    ______ ____
ROOT
ATOM      1  C   LIG A   1      -1.251   4.819 132.660  0.00  0.00    +0.035 C 
ATOM      2  C   LIG A   1      -2.325   3.905 132.163  0.00  0.00    -0.030 C 
ATOM      3  C   LIG A   1      -3.583   3.791 132.645  0.00  0.00    -0.056 C 
ATOM      4  C   LIG A   1      -4.022   4.568 133.883  0.00  0.00    +0.115 C 
ATOM      5  N   LIG A   1      -5.301   4.169 134.465  0.00  0.00    -0.297 NA
ATOM      6  C   LIG A   1      -5.736   5.061 135.533  0.00  0.00    +0.105 C 
ATOM      7  C   LIG A   1      -6.344   3.904 133.458  0.00  0.00    +0.075 C 
ATOM      8  C   LIG A   1      -6.648   5.128 132.547  0.00  0.00    +0.057 C 
ATOM      9  C   LIG A   1      -7.606   4.826 131.435  0.00  0.00    -0.017 A 
ATOM     10  C   LIG A   1      -7.397   4.042 130.296  0.00  0.00    +0.028 A 
ATOM     11  N   LIG A   1      -8.614   3.974 129.646  0.00  0.00    -0.357 N 
ATOM     12  H   LIG A   1      -8.768   3.477 128.780  0.00  0.00    +0.166 HD
ATOM     13  C   LIG A   1      -9.572   4.708 130.298  0.00  0.00    +0.047 A 
ATOM     14  C   LIG A   1     -10.932   4.876 130.007  0.00  0.00    +0.026 A 
ATOM     15  C   LIG A   1     -11.669   5.750 130.811  0.00  0.00    +0.002 A 
ATOM     16  C   LIG A   1     -11.066   6.437 131.860  0.00  0.00    +0.001 A 
ATOM     17  C   LIG A   1      -9.715   6.222 132.164  0.00  0.00    +0.010 A 
ATOM     18  C   LIG A   1      -8.954   5.325 131.379  0.00  0.00    +0.003 A 
ATOM     19  C   LIG A   1      -6.194   3.275 129.704  0.00  0.00    +0.072 C 
ATOM     20  C   LIG A   1      -4.862   3.581 130.450  0.00  0.00    +0.023 C 
ATOM     21  C   LIG A   1      -4.617   2.943 131.862  0.00  0.00    +0.032 C 
ATOM     22  C   LIG A   1      -5.880   2.645 132.699  0.00  0.00    +0.122 C 
ENDROOT
BRANCH  19  23
ATOM     23  C   LIG A   1      -6.026   3.579 128.191  0.00  0.00    +0.027 A 
ATOM     24  C   LIG A   1      -5.384   4.754 127.673  0.00  0.00    +0.126 A 
ATOM     25  C   LIG A   1      -5.269   4.961 126.287  0.00  0.00    +0.046 A 
ATOM     26  C   LIG A   1      -5.764   4.060 125.360  0.00  0.00    +0.014 A 
ATOM     27  C   LIG A   1      -6.404   2.910 125.814  0.00  0.00    +0.004 A 
ATOM     28  C   LIG A   1      -7.021   1.840 125.125  0.00  0.00    -0.018 A 
ATOM     29  C   LIG A   1      -7.275   1.643 123.626  0.00  0.00    +0.053 C 
ATOM     30  C   LIG A   1      -6.967   0.245 122.952  0.00  0.00    +0.089 C 
ATOM     31  N   LIG A   1      -7.309  -1.092 123.527  0.00  0.00    -0.298 NA
ATOM     32  C   LIG A   1      -8.731  -1.550 123.477  0.00  0.00    +0.088 C 
ATOM     33  C   LIG A   1      -9.184  -2.221 124.867  0.00  0.00    +0.004 C 
ATOM     34  C   LIG A   1      -8.149  -3.308 125.202  0.00  0.00    +0.009 C 
ATOM     35  C   LIG A   1      -6.765  -2.634 125.342  0.00  0.00    +0.007 C 
ATOM     36  C   LIG A   1      -6.870  -1.141 124.930  0.00  0.00    +0.069 C 
ATOM     37  C   LIG A   1      -7.968  -0.345 125.693  0.00  0.00    +0.054 C 
ATOM     38  C   LIG A   1      -9.132  -1.202 126.070  0.00  0.00    +0.016 C 
ATOM     39  C   LIG A   1      -7.437   0.954 126.105  0.00  0.00    +0.025 A 
ATOM     40  N   LIG A   1      -7.135   1.442 127.333  0.00  0.00    -0.357 N 
ATOM     41  H   LIG A   1      -7.287   0.973 128.216  0.00  0.00    +0.166 HD
ATOM     42  C   LIG A   1      -6.514   2.679 127.195  0.00  0.00    +0.054 A 
BRANCH  24  43
ATOM     43  O   LIG A   1      -4.857   5.684 128.554  0.00  0.00    -0.495 OA
ATOM     44  C   LIG A   1      -3.637   6.325 128.129  0.00  0.00    +0.277 C 
ENDBRANCH  24  43
BRANCH  35  45
ATOM     45  C   LIG A   1      -6.170  -2.826 126.750  0.00  0.00    +0.002 C 
ATOM     46  C   LIG A   1      -5.234  -1.697 127.161  0.00  0.00    +0.004 C 
ENDBRANCH  35  45
ENDBRANCH  19  23
BRANCH  22  47
ATOM     47  C   LIG A   1      -5.692   1.494 133.702  0.00  0.00    +0.312 C 
ATOM     48  O   LIG A   1      -6.532   1.162 134.520  0.00  0.00    -0.251 OA
BRANCH  47  49
ATOM     49  O   LIG A   1      -4.464   0.919 133.575  0.00  0.00    -0.468 OA
ATOM     50  C   LIG A   1      -3.758   0.624 134.775  0.00  0.00    +0.280 C 
ENDBRANCH  47  49
ENDBRANCH  22  47
TORSDOF 5
ENDMDL
MODEL 8
REMARK VINA RESULT:      -9.1      2.458      3.603
REMARK  Name = NuBBE_2410
REMARK  10 active torsions:
REMARK  status: ('A' for Active; 'I' for Inactive)
REMARK    1  A    between atoms: C_1  and  C_2
REMARK    2  A    between atoms: N_5  and  C_6
REMARK    3  A    between atoms: C_20  and  C_22
REMARK    4  A    between atoms: C_23  and  O_24
REMARK    5  A    between atoms: O_24  and  C_25
REMARK    6  A    between atoms: C_37  and  C_39
REMARK    7  A    between atoms: C_39  and  C_40
REMARK    8  A    between atoms: C_53  and  C_55
REMARK    9  A    between atoms: C_55  and  O_57
REMARK   10  A    between atoms: O_57  and  C_58
REMARK                            x       y       z     vdW  Elec       q    Type
REMARK                         _______ _______ _______ _____ _____    ______ ____
ROOT
ATOM      1  C   LIG A   1      -2.353  -2.165 133.940  0.00  0.00    +0.035 C 
ATOM      2  C   LIG A   1      -2.792  -1.657 132.603  0.00  0.00    -0.030 C 
ATOM      3  C   LIG A   1      -4.050  -1.652 132.109  0.00  0.00    -0.056 C 
ATOM      4  C   LIG A   1      -5.199  -2.292 132.881  0.00  0.00    +0.115 C 
ATOM      5  N   LIG A   1      -6.447  -2.464 132.141  0.00  0.00    -0.297 NA
ATOM      6  C   LIG A   1      -7.545  -2.919 132.986  0.00  0.00    +0.105 C 
ATOM      7  C   LIG A   1      -6.793  -1.303 131.301  0.00  0.00    +0.075 C 
ATOM      8  C   LIG A   1      -6.949   0.018 132.108  0.00  0.00    +0.057 C 
ATOM      9  C   LIG A   1      -7.164   1.226 131.247  0.00  0.00    -0.017 A 
ATOM     10  C   LIG A   1      -6.253   1.862 130.398  0.00  0.00    +0.028 A 
ATOM     11  N   LIG A   1      -6.963   2.846 129.739  0.00  0.00    -0.357 N 
ATOM     12  H   LIG A   1      -6.561   3.479 129.062  0.00  0.00    +0.166 HD
ATOM     13  C   LIG A   1      -8.270   2.888 130.158  0.00  0.00    +0.047 A 
ATOM     14  C   LIG A   1      -9.329   3.696 129.725  0.00  0.00    +0.026 A 
ATOM     15  C   LIG A   1     -10.555   3.574 130.385  0.00  0.00    +0.002 A 
ATOM     16  C   LIG A   1     -10.711   2.682 131.443  0.00  0.00    +0.001 A 
ATOM     17  C   LIG A   1      -9.653   1.851 131.832  0.00  0.00    +0.010 A 
ATOM     18  C   LIG A   1      -8.409   1.941 131.165  0.00  0.00    +0.003 A 
ATOM     19  C   LIG A   1      -4.759   1.668 130.058  0.00  0.00    +0.072 C 
ATOM     20  C   LIG A   1      -4.059   0.641 130.994  0.00  0.00    +0.023 C 
ATOM     21  C   LIG A   1      -4.339  -0.889 130.791  0.00  0.00    +0.032 C 
ATOM     22  C   LIG A   1      -5.717  -1.252 130.197  0.00  0.00    +0.122 C 
ENDROOT
BRANCH  19  23
ATOM     23  C   LIG A   1      -3.995   3.019 130.100  0.00  0.00    +0.027 A 
ATOM     24  C   LIG A   1      -3.389   3.636 128.953  0.00  0.00    +0.126 A 
ATOM     25  C   LIG A   1      -2.714   4.864 129.069  0.00  0.00    +0.046 A 
ATOM     26  C   LIG A   1      -2.592   5.532 130.274  0.00  0.00    +0.014 A 
ATOM     27  C   LIG A   1      -3.156   4.968 131.416  0.00  0.00    +0.004 A 
ATOM     28  C   LIG A   1      -3.175   5.392 132.765  0.00  0.00    -0.018 A 
ATOM     29  C   LIG A   1      -2.488   6.587 133.438  0.00  0.00    +0.053 C 
ATOM     30  C   LIG A   1      -3.297   7.492 134.454  0.00  0.00    +0.089 C 
ATOM     31  N   LIG A   1      -4.218   6.992 135.521  0.00  0.00    -0.298 NA
ATOM     32  C   LIG A   1      -3.625   6.395 136.755  0.00  0.00    +0.088 C 
ATOM     33  C   LIG A   1      -4.401   5.056 137.195  0.00  0.00    +0.004 C 
ATOM     34  C   LIG A   1      -5.896   5.408 137.280  0.00  0.00    +0.009 C 
ATOM     35  C   LIG A   1      -6.363   5.881 135.884  0.00  0.00    +0.007 C 
ATOM     36  C   LIG A   1      -5.138   6.001 134.939  0.00  0.00    +0.069 C 
ATOM     37  C   LIG A   1      -4.279   4.707 134.840  0.00  0.00    +0.054 C 
ATOM     38  C   LIG A   1      -4.295   3.917 136.108  0.00  0.00    +0.016 C 
ATOM     39  C   LIG A   1      -3.934   4.452 133.443  0.00  0.00    +0.025 A 
ATOM     40  N   LIG A   1      -4.340   3.480 132.590  0.00  0.00    -0.357 N 
ATOM     41  H   LIG A   1      -4.944   2.701 132.817  0.00  0.00    +0.166 HD
ATOM     42  C   LIG A   1      -3.848   3.751 131.317  0.00  0.00    +0.054 A 
BRANCH  24  43
ATOM     43  O   LIG A   1      -3.491   3.019 127.717  0.00  0.00    -0.495 OA
ATOM     44  C   LIG A   1      -2.738   3.631 126.650  0.00  0.00    +0.277 C 
ENDBRANCH  24  43
BRANCH  35  45
ATOM     45  C   LIG A   1      -7.475   4.981 135.312  0.00  0.00    +0.002 C 
ATOM     46  C   LIG A   1      -7.734   5.221 133.830  0.00  0.00    +0.004 C 
ENDBRANCH  35  45
ENDBRANCH  19  23
BRANCH  22  47
ATOM     47  C   LIG A   1      -5.722  -2.585 129.430  0.00  0.00    +0.312 C 
ATOM     48  O   LIG A   1      -4.728  -3.263 129.240  0.00  0.00    -0.251 OA
BRANCH  47  49
ATOM     49  O   LIG A   1      -6.968  -2.890 128.970  0.00  0.00    -0.468 OA
ATOM     50  C   LIG A   1      -7.287  -2.484 127.644  0.00  0.00    +0.280 C 
ENDBRANCH  47  49
ENDBRANCH  22  47
TORSDOF 5
ENDMDL
MODEL 9
REMARK VINA RESULT:      -8.9      2.739      4.381
REMARK  Name = NuBBE_2410
REMARK  10 active torsions:
REMARK  status: ('A' for Active; 'I' for Inactive)
REMARK    1  A    between atoms: C_1  and  C_2
REMARK    2  A    between atoms: N_5  and  C_6
REMARK    3  A    between atoms: C_20  and  C_22
REMARK    4  A    between atoms: C_23  and  O_24
REMARK    5  A    between atoms: O_24  and  C_25
REMARK    6  A    between atoms: C_37  and  C_39
REMARK    7  A    between atoms: C_39  and  C_40
REMARK    8  A    between atoms: C_53  and  C_55
REMARK    9  A    between atoms: C_55  and  O_57
REMARK   10  A    between atoms: O_57  and  C_58
REMARK                            x       y       z     vdW  Elec       q    Type
REMARK                         _______ _______ _______ _____ _____    ______ ____
ROOT
ATOM      1  C   LIG A   1      -3.358  -1.717 132.413  0.00  0.00    +0.035 C 
ATOM      2  C   LIG A   1      -3.672  -0.753 131.312  0.00  0.00    -0.030 C 
ATOM      3  C   LIG A   1      -4.894  -0.289 130.963  0.00  0.00    -0.056 C 
ATOM      4  C   LIG A   1      -6.155  -0.813 131.642  0.00  0.00    +0.115 C 
ATOM      5  N   LIG A   1      -7.419  -0.445 131.008  0.00  0.00    -0.297 NA
ATOM      6  C   LIG A   1      -8.580  -0.831 131.802  0.00  0.00    +0.105 C 
ATOM      7  C   LIG A   1      -7.458   0.955 130.552  0.00  0.00    +0.075 C 
ATOM      8  C   LIG A   1      -7.234   1.985 131.697  0.00  0.00    +0.057 C 
ATOM      9  C   LIG A   1      -7.135   3.402 131.220  0.00  0.00    -0.017 A 
ATOM     10  C   LIG A   1      -6.105   4.004 130.490  0.00  0.00    +0.028 A 
ATOM     11  N   LIG A   1      -6.539   5.281 130.195  0.00  0.00    -0.357 N 
ATOM     12  H   LIG A   1      -5.996   5.959 129.678  0.00  0.00    +0.166 HD
ATOM     13  C   LIG A   1      -7.776   5.529 130.734  0.00  0.00    +0.047 A 
ATOM     14  C   LIG A   1      -8.588   6.667 130.642  0.00  0.00    +0.026 A 
ATOM     15  C   LIG A   1      -9.787   6.674 131.361  0.00  0.00    +0.002 A 
ATOM     16  C   LIG A   1     -10.154   5.586 132.148  0.00  0.00    +0.001 A 
ATOM     17  C   LIG A   1      -9.350   4.440 132.192  0.00  0.00    +0.010 A 
ATOM     18  C   LIG A   1      -8.143   4.401 131.456  0.00  0.00    +0.003 A 
ATOM     19  C   LIG A   1      -4.727   3.545 129.965  0.00  0.00    +0.072 C 
ATOM     20  C   LIG A   1      -4.309   2.151 130.517  0.00  0.00    +0.023 C 
ATOM     21  C   LIG A   1      -4.995   0.866 129.935  0.00  0.00    +0.032 C 
ATOM     22  C   LIG A   1      -6.433   1.048 129.403  0.00  0.00    +0.122 C 
ENDROOT
BRANCH  19  23
ATOM     23  C   LIG A   1      -3.627   4.589 130.296  0.00  0.00    +0.027 A 
ATOM     24  C   LIG A   1      -2.848   5.278 129.306  0.00  0.00    +0.126 A 
ATOM     25  C   LIG A   1      -1.868   6.214 129.682  0.00  0.00    +0.046 A 
ATOM     26  C   LIG A   1      -1.600   6.513 131.006  0.00  0.00    +0.014 A 
ATOM     27  C   LIG A   1      -2.323   5.864 132.003  0.00  0.00    +0.004 A 
ATOM     28  C   LIG A   1      -2.260   5.939 133.415  0.00  0.00    -0.018 A 
ATOM     29  C   LIG A   1      -1.291   6.706 134.323  0.00  0.00    +0.053 C 
ATOM     30  C   LIG A   1      -1.850   7.522 135.559  0.00  0.00    +0.089 C 
ATOM     31  N   LIG A   1      -2.898   7.047 136.513  0.00  0.00    -0.298 NA
ATOM     32  C   LIG A   1      -2.520   6.033 137.544  0.00  0.00    +0.088 C 
ATOM     33  C   LIG A   1      -3.640   4.887 137.683  0.00  0.00    +0.004 C 
ATOM     34  C   LIG A   1      -4.985   5.596 137.913  0.00  0.00    +0.009 C 
ATOM     35  C   LIG A   1      -5.272   6.500 136.692  0.00  0.00    +0.007 C 
ATOM     36  C   LIG A   1      -4.037   6.511 135.752  0.00  0.00    +0.069 C 
ATOM     37  C   LIG A   1      -3.559   5.097 135.311  0.00  0.00    +0.054 C 
ATOM     38  C   LIG A   1      -3.820   4.059 136.353  0.00  0.00    +0.016 C 
ATOM     39  C   LIG A   1      -3.261   5.103 133.879  0.00  0.00    +0.025 A 
ATOM     40  N   LIG A   1      -3.895   4.512 132.837  0.00  0.00    -0.357 N 
ATOM     41  H   LIG A   1      -4.693   3.893 132.896  0.00  0.00    +0.166 HD
ATOM     42  C   LIG A   1      -3.317   4.939 131.645  0.00  0.00    +0.054 A 
BRANCH  24  43
ATOM     43  O   LIG A   1      -3.083   5.029 127.964  0.00  0.00    -0.495 OA
ATOM     44  C   LIG A   1      -2.306   3.963 127.381  0.00  0.00    +0.277 C 
ENDBRANCH  24  43
BRANCH  35  45
ATOM     45  C   LIG A   1      -6.571   6.098 135.969  0.00  0.00    +0.002 C 
ATOM     46  C   LIG A   1      -7.825   6.411 136.777  0.00  0.00    +0.004 C 
ENDBRANCH  35  45
ENDBRANCH  19  23
BRANCH  22  47
ATOM     47  C   LIG A   1      -6.814   0.037 128.308  0.00  0.00    +0.312 C 
ATOM     48  O   LIG A   1      -7.961  -0.231 128.000  0.00  0.00    -0.251 OA
BRANCH  47  49
ATOM     49  O   LIG A   1      -5.708  -0.534 127.753  0.00  0.00    -0.468 OA
ATOM     50  C   LIG A   1      -5.417  -0.203 126.399  0.00  0.00    +0.280 C 
ENDBRANCH  47  49
ENDBRANCH  22  47
TORSDOF 5
ENDMDL
