MODEL 1
REMARK VINA RESULT:      -7.8      0.000      0.000
REMARK  Name = NuBBE_1565
REMARK  17 active torsions:
REMARK  status: ('A' for Active; 'I' for Inactive)
REMARK    1  A    between atoms: C_19  and  C_20
REMARK    2  A    between atoms: C_20  and  C_21
REMARK    3  A    between atoms: C_21  and  C_22
REMARK    4  A    between atoms: C_22  and  C_23
REMARK    5  A    between atoms: C_23  and  C_24
REMARK    6  A    between atoms: C_24  and  C_25
REMARK    7  A    between atoms: C_25  and  C_26
REMARK    8  A    between atoms: C_26  and  C_27
REMARK    9  A    between atoms: C_27  and  C_28
REMARK   10  A    between atoms: C_28  and  C_29
REMARK   11  A    between atoms: C_29  and  C_30
REMARK   12  A    between atoms: C_30  and  C_31
REMARK   13  A    between atoms: C_31  and  C_32
REMARK   14  A    between atoms: C_32  and  C_33
REMARK   15  A    between atoms: C_33  and  C_34
REMARK   16  A    between atoms: C_34  and  C_35
REMARK   17  A    between atoms: C_35  and  C_36
REMARK                            x       y       z     vdW  Elec       q    Type
REMARK                         _______ _______ _______ _____ _____    ______ ____
ROOT
ATOM      1  O   LIG A   1      -8.335   2.291 126.792  0.00  0.00    -0.287 OA
ATOM      2  C   LIG A   1      -7.329   2.585 126.072  0.00  0.00    +0.200 A 
ATOM      3  C   LIG A   1      -6.018   2.811 126.670  0.00  0.00    +0.064 A 
ATOM      4  C   LIG A   1      -5.726   2.387 127.970  0.00  0.00    +0.015 A 
ATOM      5  C   LIG A   1      -4.401   2.373 128.402  0.00  0.00    +0.001 A 
ATOM      6  C   LIG A   1      -3.385   2.823 127.553  0.00  0.00    +0.004 A 
ATOM      7  C   LIG A   1      -3.697   3.340 126.291  0.00  0.00    +0.047 A 
ATOM      8  C   LIG A   1      -5.018   3.330 125.847  0.00  0.00    +0.139 A 
ATOM      9  O   LIG A   1      -5.291   3.791 124.578  0.00  0.00    -0.454 OA
ATOM     10  C   LIG A   1      -6.449   3.334 123.991  0.00  0.00    +0.149 A 
ATOM     11  C   LIG A   1      -6.669   3.583 122.568  0.00  0.00    +0.059 A 
ATOM     12  C   LIG A   1      -7.978   3.466 122.066  0.00  0.00    +0.132 A 
ATOM     13  C   LIG A   1      -8.280   3.782 120.747  0.00  0.00    +0.046 A 
ATOM     14  C   LIG A   1      -7.242   4.047 119.862  0.00  0.00    +0.004 A 
ATOM     15  C   LIG A   1      -5.922   4.063 120.319  0.00  0.00    +0.001 A 
ATOM     16  C   LIG A   1      -5.637   3.887 121.677  0.00  0.00    +0.015 A 
ATOM     17  O   LIG A   1      -9.014   2.946 122.809  0.00  0.00    -0.483 OA
ATOM     18  C   LIG A   1      -7.429   2.648 124.617  0.00  0.00    +0.083 A 
ATOM     19  C   LIG A   1      -8.586   2.049 123.858  0.00  0.00    +0.211 C 
ENDROOT
BRANCH  19  20
ATOM     20  C   LIG A   1      -8.252   0.610 123.300  0.00  0.00    +0.050 C 
BRANCH  20  21
ATOM     21  C   LIG A   1      -9.085  -0.568 123.860  0.00  0.00    +0.004 C 
BRANCH  21  22
ATOM     22  C   LIG A   1      -8.982  -1.894 123.069  0.00  0.00    +0.000 C 
BRANCH  22  23
ATOM     23  C   LIG A   1      -8.913  -3.244 123.794  0.00  0.00    -0.000 C 
BRANCH  23  24
ATOM     24  C   LIG A   1      -7.526  -3.557 124.437  0.00  0.00    -0.000 C 
BRANCH  24  25
ATOM     25  C   LIG A   1      -6.266  -2.892 123.794  0.00  0.00    -0.000 C 
BRANCH  25  26
ATOM     26  C   LIG A   1      -5.334  -2.154 124.770  0.00  0.00    -0.000 C 
BRANCH  26  27
ATOM     27  C   LIG A   1      -5.786  -0.861 125.489  0.00  0.00    -0.000 C 
BRANCH  27  28
ATOM     28  C   LIG A   1      -6.188  -1.255 126.938  0.00  0.00    -0.000 C 
BRANCH  28  29
ATOM     29  C   LIG A   1      -7.669  -1.100 127.367  0.00  0.00    -0.000 C 
BRANCH  29  30
ATOM     30  C   LIG A   1      -8.347  -2.439 127.551  0.00  0.00    -0.000 C 
BRANCH  30  31
ATOM     31  C   LIG A   1      -7.842  -3.366 128.702  0.00  0.00    -0.000 C 
BRANCH  31  32
ATOM     32  C   LIG A   1      -7.643  -2.917 130.174  0.00  0.00    -0.000 C 
BRANCH  32  33
ATOM     33  C   LIG A   1      -6.350  -3.290 130.926  0.00  0.00    -0.000 C 
BRANCH  33  34
ATOM     34  C   LIG A   1      -5.367  -4.139 130.123  0.00  0.00    -0.000 C 
BRANCH  34  35
ATOM     35  C   LIG A   1      -4.343  -3.309 129.381  0.00  0.00    -0.003 C 
ATOM     36  C   LIG A   1      -3.969  -1.962 129.924  0.00  0.00    +0.004 C 
ENDBRANCH  34  35
ENDBRANCH  33  34
ENDBRANCH  32  33
ENDBRANCH  31  32
ENDBRANCH  30  31
ENDBRANCH  29  30
ENDBRANCH  28  29
ENDBRANCH  27  28
ENDBRANCH  26  27
ENDBRANCH  25  26
ENDBRANCH  24  25
ENDBRANCH  23  24
ENDBRANCH  22  23
ENDBRANCH  21  22
ENDBRANCH  20  21
ENDBRANCH  19  20
TORSDOF 16
ENDMDL
MODEL 2
REMARK VINA RESULT:      -7.7      1.065      2.673
REMARK  Name = NuBBE_1565
REMARK  17 active torsions:
REMARK  status: ('A' for Active; 'I' for Inactive)
REMARK    1  A    between atoms: C_19  and  C_20
REMARK    2  A    between atoms: C_20  and  C_21
REMARK    3  A    between atoms: C_21  and  C_22
REMARK    4  A    between atoms: C_22  and  C_23
REMARK    5  A    between atoms: C_23  and  C_24
REMARK    6  A    between atoms: C_24  and  C_25
REMARK    7  A    between atoms: C_25  and  C_26
REMARK    8  A    between atoms: C_26  and  C_27
REMARK    9  A    between atoms: C_27  and  C_28
REMARK   10  A    between atoms: C_28  and  C_29
REMARK   11  A    between atoms: C_29  and  C_30
REMARK   12  A    between atoms: C_30  and  C_31
REMARK   13  A    between atoms: C_31  and  C_32
REMARK   14  A    between atoms: C_32  and  C_33
REMARK   15  A    between atoms: C_33  and  C_34
REMARK   16  A    between atoms: C_34  and  C_35
REMARK   17  A    between atoms: C_35  and  C_36
REMARK                            x       y       z     vdW  Elec       q    Type
REMARK                         _______ _______ _______ _____ _____    ______ ____
ROOT
ATOM      1  O   LIG A   1      -8.444   2.431 126.942  0.00  0.00    -0.287 OA
ATOM      2  C   LIG A   1      -7.426   2.627 126.208  0.00  0.00    +0.200 A 
ATOM      3  C   LIG A   1      -6.095   2.756 126.788  0.00  0.00    +0.064 A 
ATOM      4  C   LIG A   1      -5.824   2.335 128.095  0.00  0.00    +0.015 A 
ATOM      5  C   LIG A   1      -4.500   2.220 128.514  0.00  0.00    +0.001 A 
ATOM      6  C   LIG A   1      -3.460   2.568 127.647  0.00  0.00    +0.004 A 
ATOM      7  C   LIG A   1      -3.742   3.084 126.377  0.00  0.00    +0.047 A 
ATOM      8  C   LIG A   1      -5.064   3.174 125.946  0.00  0.00    +0.139 A 
ATOM      9  O   LIG A   1      -5.312   3.631 124.671  0.00  0.00    -0.454 OA
ATOM     10  C   LIG A   1      -6.510   3.260 124.104  0.00  0.00    +0.149 A 
ATOM     11  C   LIG A   1      -6.724   3.498 122.678  0.00  0.00    +0.059 A 
ATOM     12  C   LIG A   1      -8.044   3.480 122.191  0.00  0.00    +0.132 A 
ATOM     13  C   LIG A   1      -8.334   3.794 120.868  0.00  0.00    +0.046 A 
ATOM     14  C   LIG A   1      -7.287   3.956 119.969  0.00  0.00    +0.004 A 
ATOM     15  C   LIG A   1      -5.965   3.872 120.413  0.00  0.00    +0.001 A 
ATOM     16  C   LIG A   1      -5.681   3.699 121.772  0.00  0.00    +0.015 A 
ATOM     17  O   LIG A   1      -9.111   3.062 122.954  0.00  0.00    -0.483 OA
ATOM     18  C   LIG A   1      -7.536   2.670 124.753  0.00  0.00    +0.083 A 
ATOM     19  C   LIG A   1      -8.747   2.153 124.017  0.00  0.00    +0.211 C 
ENDROOT
BRANCH  19  20
ATOM     20  C   LIG A   1      -8.538   0.681 123.485  0.00  0.00    +0.050 C 
BRANCH  20  21
ATOM     21  C   LIG A   1      -9.769  -0.014 122.853  0.00  0.00    +0.004 C 
BRANCH  21  22
ATOM     22  C   LIG A   1      -9.593  -1.518 122.535  0.00  0.00    +0.000 C 
BRANCH  22  23
ATOM     23  C   LIG A   1      -8.394  -2.306 123.077  0.00  0.00    -0.000 C 
BRANCH  23  24
ATOM     24  C   LIG A   1      -8.759  -3.364 124.164  0.00  0.00    -0.000 C 
BRANCH  24  25
ATOM     25  C   LIG A   1      -9.621  -2.884 125.377  0.00  0.00    -0.000 C 
BRANCH  25  26
ATOM     26  C   LIG A   1      -8.851  -2.662 126.691  0.00  0.00    -0.000 C 
BRANCH  26  27
ATOM     27  C   LIG A   1      -8.721  -3.786 127.745  0.00  0.00    -0.000 C 
BRANCH  27  28
ATOM     28  C   LIG A   1      -8.070  -3.159 129.010  0.00  0.00    -0.000 C 
BRANCH  28  29
ATOM     29  C   LIG A   1      -7.844  -1.626 129.047  0.00  0.00    -0.000 C 
BRANCH  29  30
ATOM     30  C   LIG A   1      -6.392  -1.275 129.286  0.00  0.00    -0.000 C 
BRANCH  30  31
ATOM     31  C   LIG A   1      -5.332  -1.805 128.270  0.00  0.00    -0.000 C 
BRANCH  31  32
ATOM     32  C   LIG A   1      -5.294  -1.439 126.762  0.00  0.00    -0.000 C 
BRANCH  32  33
ATOM     33  C   LIG A   1      -5.586  -2.517 125.699  0.00  0.00    -0.000 C 
BRANCH  33  34
ATOM     34  C   LIG A   1      -5.177  -2.138 124.277  0.00  0.00    -0.000 C 
BRANCH  34  35
ATOM     35  C   LIG A   1      -5.028  -3.337 123.368  0.00  0.00    -0.003 C 
ATOM     36  C   LIG A   1      -4.156  -4.477 123.806  0.00  0.00    +0.004 C 
ENDBRANCH  34  35
ENDBRANCH  33  34
ENDBRANCH  32  33
ENDBRANCH  31  32
ENDBRANCH  30  31
ENDBRANCH  29  30
ENDBRANCH  28  29
ENDBRANCH  27  28
ENDBRANCH  26  27
ENDBRANCH  25  26
ENDBRANCH  24  25
ENDBRANCH  23  24
ENDBRANCH  22  23
ENDBRANCH  21  22
ENDBRANCH  20  21
ENDBRANCH  19  20
TORSDOF 16
ENDMDL
MODEL 3
REMARK VINA RESULT:      -7.4      5.136      7.809
REMARK  Name = NuBBE_1565
REMARK  17 active torsions:
REMARK  status: ('A' for Active; 'I' for Inactive)
REMARK    1  A    between atoms: C_19  and  C_20
REMARK    2  A    between atoms: C_20  and  C_21
REMARK    3  A    between atoms: C_21  and  C_22
REMARK    4  A    between atoms: C_22  and  C_23
REMARK    5  A    between atoms: C_23  and  C_24
REMARK    6  A    between atoms: C_24  and  C_25
REMARK    7  A    between atoms: C_25  and  C_26
REMARK    8  A    between atoms: C_26  and  C_27
REMARK    9  A    between atoms: C_27  and  C_28
REMARK   10  A    between atoms: C_28  and  C_29
REMARK   11  A    between atoms: C_29  and  C_30
REMARK   12  A    between atoms: C_30  and  C_31
REMARK   13  A    between atoms: C_31  and  C_32
REMARK   14  A    between atoms: C_32  and  C_33
REMARK   15  A    between atoms: C_33  and  C_34
REMARK   16  A    between atoms: C_34  and  C_35
REMARK   17  A    between atoms: C_35  and  C_36
REMARK                            x       y       z     vdW  Elec       q    Type
REMARK                         _______ _______ _______ _____ _____    ______ ____
ROOT
ATOM      1  O   LIG A   1      -9.005   5.164 133.569  0.00  0.00    -0.287 OA
ATOM      2  C   LIG A   1      -8.701   5.770 132.494  0.00  0.00    +0.200 A 
ATOM      3  C   LIG A   1      -7.328   6.181 132.226  0.00  0.00    +0.064 A 
ATOM      4  C   LIG A   1      -6.252   5.643 132.940  0.00  0.00    +0.015 A 
ATOM      5  C   LIG A   1      -4.954   5.850 132.477  0.00  0.00    +0.001 A 
ATOM      6  C   LIG A   1      -4.735   6.627 131.336  0.00  0.00    +0.004 A 
ATOM      7  C   LIG A   1      -5.809   7.245 130.685  0.00  0.00    +0.047 A 
ATOM      8  C   LIG A   1      -7.110   7.018 131.131  0.00  0.00    +0.139 A 
ATOM      9  O   LIG A   1      -8.153   7.590 130.438  0.00  0.00    -0.454 OA
ATOM     10  C   LIG A   1      -9.384   6.987 130.566  0.00  0.00    +0.149 A 
ATOM     11  C   LIG A   1     -10.467   7.390 129.671  0.00  0.00    +0.059 A 
ATOM     12  C   LIG A   1     -11.787   7.070 130.039  0.00  0.00    +0.132 A 
ATOM     13  C   LIG A   1     -12.874   7.505 129.290  0.00  0.00    +0.046 A 
ATOM     14  C   LIG A   1     -12.646   8.114 128.061  0.00  0.00    +0.004 A 
ATOM     15  C   LIG A   1     -11.338   8.345 127.628  0.00  0.00    +0.001 A 
ATOM     16  C   LIG A   1     -10.251   8.036 128.453  0.00  0.00    +0.015 A 
ATOM     17  O   LIG A   1     -12.083   6.237 131.094  0.00  0.00    -0.483 OA
ATOM     18  C   LIG A   1      -9.697   6.023 131.458  0.00  0.00    +0.083 A 
ATOM     19  C   LIG A   1     -11.024   5.308 131.417  0.00  0.00    +0.211 C 
ENDROOT
BRANCH  19  20
ATOM     20  C   LIG A   1     -11.006   4.073 130.434  0.00  0.00    +0.050 C 
BRANCH  20  21
ATOM     21  C   LIG A   1      -9.709   3.229 130.396  0.00  0.00    +0.004 C 
BRANCH  21  22
ATOM     22  C   LIG A   1      -8.774   3.499 129.193  0.00  0.00    +0.000 C 
BRANCH  22  23
ATOM     23  C   LIG A   1      -7.303   3.879 129.404  0.00  0.00    -0.000 C 
BRANCH  23  24
ATOM     24  C   LIG A   1      -6.560   3.006 130.463  0.00  0.00    -0.000 C 
BRANCH  24  25
ATOM     25  C   LIG A   1      -5.020   2.802 130.277  0.00  0.00    -0.000 C 
BRANCH  25  26
ATOM     26  C   LIG A   1      -4.587   1.399 129.819  0.00  0.00    -0.000 C 
BRANCH  26  27
ATOM     27  C   LIG A   1      -5.537   0.493 129.001  0.00  0.00    -0.000 C 
BRANCH  27  28
ATOM     28  C   LIG A   1      -5.349   0.862 127.503  0.00  0.00    -0.000 C 
BRANCH  28  29
ATOM     29  C   LIG A   1      -6.607   1.165 126.649  0.00  0.00    -0.000 C 
BRANCH  29  30
ATOM     30  C   LIG A   1      -6.392   2.345 125.727  0.00  0.00    -0.000 C 
BRANCH  30  31
ATOM     31  C   LIG A   1      -6.009   3.717 126.366  0.00  0.00    -0.000 C 
BRANCH  31  32
ATOM     32  C   LIG A   1      -4.618   4.393 126.235  0.00  0.00    -0.000 C 
BRANCH  32  33
ATOM     33  C   LIG A   1      -4.032   5.187 127.421  0.00  0.00    -0.000 C 
BRANCH  33  34
ATOM     34  C   LIG A   1      -2.735   4.618 127.991  0.00  0.00    -0.000 C 
BRANCH  34  35
ATOM     35  C   LIG A   1      -2.457   3.206 127.525  0.00  0.00    -0.003 C 
ATOM     36  C   LIG A   1      -1.475   2.990 126.411  0.00  0.00    +0.004 C 
ENDBRANCH  34  35
ENDBRANCH  33  34
ENDBRANCH  32  33
ENDBRANCH  31  32
ENDBRANCH  30  31
ENDBRANCH  29  30
ENDBRANCH  28  29
ENDBRANCH  27  28
ENDBRANCH  26  27
ENDBRANCH  25  26
ENDBRANCH  24  25
ENDBRANCH  23  24
ENDBRANCH  22  23
ENDBRANCH  21  22
ENDBRANCH  20  21
ENDBRANCH  19  20
TORSDOF 16
ENDMDL
MODEL 4
REMARK VINA RESULT:      -7.4      1.181      2.031
REMARK  Name = NuBBE_1565
REMARK  17 active torsions:
REMARK  status: ('A' for Active; 'I' for Inactive)
REMARK    1  A    between atoms: C_19  and  C_20
REMARK    2  A    between atoms: C_20  and  C_21
REMARK    3  A    between atoms: C_21  and  C_22
REMARK    4  A    between atoms: C_22  and  C_23
REMARK    5  A    between atoms: C_23  and  C_24
REMARK    6  A    between atoms: C_24  and  C_25
REMARK    7  A    between atoms: C_25  and  C_26
REMARK    8  A    between atoms: C_26  and  C_27
REMARK    9  A    between atoms: C_27  and  C_28
REMARK   10  A    between atoms: C_28  and  C_29
REMARK   11  A    between atoms: C_29  and  C_30
REMARK   12  A    between atoms: C_30  and  C_31
REMARK   13  A    between atoms: C_31  and  C_32
REMARK   14  A    between atoms: C_32  and  C_33
REMARK   15  A    between atoms: C_33  and  C_34
REMARK   16  A    between atoms: C_34  and  C_35
REMARK   17  A    between atoms: C_35  and  C_36
REMARK                            x       y       z     vdW  Elec       q    Type
REMARK                         _______ _______ _______ _____ _____    ______ ____
ROOT
ATOM      1  O   LIG A   1      -7.725   2.279 126.823  0.00  0.00    -0.287 OA
ATOM      2  C   LIG A   1      -6.754   2.728 126.136  0.00  0.00    +0.200 A 
ATOM      3  C   LIG A   1      -5.519   3.164 126.776  0.00  0.00    +0.064 A 
ATOM      4  C   LIG A   1      -5.209   2.798 128.090  0.00  0.00    +0.015 A 
ATOM      5  C   LIG A   1      -3.915   3.000 128.567  0.00  0.00    +0.001 A 
ATOM      6  C   LIG A   1      -2.956   3.604 127.749  0.00  0.00    +0.004 A 
ATOM      7  C   LIG A   1      -3.301   4.059 126.472  0.00  0.00    +0.047 A 
ATOM      8  C   LIG A   1      -4.587   3.835 125.983  0.00  0.00    +0.139 A 
ATOM      9  O   LIG A   1      -4.885   4.240 124.701  0.00  0.00    -0.454 OA
ATOM     10  C   LIG A   1      -5.933   3.600 124.079  0.00  0.00    +0.149 A 
ATOM     11  C   LIG A   1      -6.139   3.805 122.646  0.00  0.00    +0.059 A 
ATOM     12  C   LIG A   1      -7.394   3.477 122.101  0.00  0.00    +0.132 A 
ATOM     13  C   LIG A   1      -7.696   3.735 120.769  0.00  0.00    +0.046 A 
ATOM     14  C   LIG A   1      -6.682   4.161 119.918  0.00  0.00    +0.004 A 
ATOM     15  C   LIG A   1      -5.399   4.391 120.420  0.00  0.00    +0.001 A 
ATOM     16  C   LIG A   1      -5.139   4.268 121.789  0.00  0.00    +0.015 A 
ATOM     17  O   LIG A   1      -8.358   2.800 122.813  0.00  0.00    -0.483 OA
ATOM     18  C   LIG A   1      -6.811   2.769 124.678  0.00  0.00    +0.083 A 
ATOM     19  C   LIG A   1      -7.829   1.988 123.884  0.00  0.00    +0.211 C 
ENDROOT
BRANCH  19  20
ATOM     20  C   LIG A   1      -7.248   0.619 123.352  0.00  0.00    +0.050 C 
BRANCH  20  21
ATOM     21  C   LIG A   1      -8.215  -0.590 123.333  0.00  0.00    +0.004 C 
BRANCH  21  22
ATOM     22  C   LIG A   1      -7.653  -1.881 122.692  0.00  0.00    +0.000 C 
BRANCH  22  23
ATOM     23  C   LIG A   1      -6.177  -1.987 122.290  0.00  0.00    -0.000 C 
BRANCH  23  24
ATOM     24  C   LIG A   1      -5.345  -2.982 123.158  0.00  0.00    -0.000 C 
BRANCH  24  25
ATOM     25  C   LIG A   1      -5.868  -3.294 124.598  0.00  0.00    -0.000 C 
BRANCH  25  26
ATOM     26  C   LIG A   1      -5.272  -2.428 125.722  0.00  0.00    -0.000 C 
BRANCH  26  27
ATOM     27  C   LIG A   1      -5.651  -0.936 125.870  0.00  0.00    -0.000 C 
BRANCH  27  28
ATOM     28  C   LIG A   1      -5.078  -0.448 127.231  0.00  0.00    -0.000 C 
BRANCH  28  29
ATOM     29  C   LIG A   1      -5.632  -1.071 128.537  0.00  0.00    -0.000 C 
BRANCH  29  30
ATOM     30  C   LIG A   1      -7.006  -0.538 128.878  0.00  0.00    -0.000 C 
BRANCH  30  31
ATOM     31  C   LIG A   1      -7.854  -1.315 129.934  0.00  0.00    -0.000 C 
BRANCH  31  32
ATOM     32  C   LIG A   1      -7.662  -2.813 130.291  0.00  0.00    -0.000 C 
BRANCH  32  33
ATOM     33  C   LIG A   1      -7.802  -3.891 129.196  0.00  0.00    -0.000 C 
BRANCH  33  34
ATOM     34  C   LIG A   1      -8.966  -3.672 128.231  0.00  0.00    -0.000 C 
BRANCH  34  35
ATOM     35  C   LIG A   1      -8.515  -3.250 126.851  0.00  0.00    -0.003 C 
ATOM     36  C   LIG A   1      -9.547  -3.043 125.782  0.00  0.00    +0.004 C 
ENDBRANCH  34  35
ENDBRANCH  33  34
ENDBRANCH  32  33
ENDBRANCH  31  32
ENDBRANCH  30  31
ENDBRANCH  29  30
ENDBRANCH  28  29
ENDBRANCH  27  28
ENDBRANCH  26  27
ENDBRANCH  25  26
ENDBRANCH  24  25
ENDBRANCH  23  24
ENDBRANCH  22  23
ENDBRANCH  21  22
ENDBRANCH  20  21
ENDBRANCH  19  20
TORSDOF 16
ENDMDL
MODEL 5
REMARK VINA RESULT:      -7.1      5.032      7.164
REMARK  Name = NuBBE_1565
REMARK  17 active torsions:
REMARK  status: ('A' for Active; 'I' for Inactive)
REMARK    1  A    between atoms: C_19  and  C_20
REMARK    2  A    between atoms: C_20  and  C_21
REMARK    3  A    between atoms: C_21  and  C_22
REMARK    4  A    between atoms: C_22  and  C_23
REMARK    5  A    between atoms: C_23  and  C_24
REMARK    6  A    between atoms: C_24  and  C_25
REMARK    7  A    between atoms: C_25  and  C_26
REMARK    8  A    between atoms: C_26  and  C_27
REMARK    9  A    between atoms: C_27  and  C_28
REMARK   10  A    between atoms: C_28  and  C_29
REMARK   11  A    between atoms: C_29  and  C_30
REMARK   12  A    between atoms: C_30  and  C_31
REMARK   13  A    between atoms: C_31  and  C_32
REMARK   14  A    between atoms: C_32  and  C_33
REMARK   15  A    between atoms: C_33  and  C_34
REMARK   16  A    between atoms: C_34  and  C_35
REMARK   17  A    between atoms: C_35  and  C_36
REMARK                            x       y       z     vdW  Elec       q    Type
REMARK                         _______ _______ _______ _____ _____    ______ ____
ROOT
ATOM      1  O   LIG A   1      -8.570   4.993 133.498  0.00  0.00    -0.287 OA
ATOM      2  C   LIG A   1      -8.352   5.667 132.442  0.00  0.00    +0.200 A 
ATOM      3  C   LIG A   1      -7.013   6.146 132.120  0.00  0.00    +0.064 A 
ATOM      4  C   LIG A   1      -5.878   5.614 132.741  0.00  0.00    +0.015 A 
ATOM      5  C   LIG A   1      -4.618   5.897 132.217  0.00  0.00    +0.001 A 
ATOM      6  C   LIG A   1      -4.495   6.741 131.109  0.00  0.00    +0.004 A 
ATOM      7  C   LIG A   1      -5.628   7.349 130.556  0.00  0.00    +0.047 A 
ATOM      8  C   LIG A   1      -6.891   7.047 131.062  0.00  0.00    +0.139 A 
ATOM      9  O   LIG A   1      -7.994   7.614 130.463  0.00  0.00    -0.454 OA
ATOM     10  C   LIG A   1      -9.192   6.956 130.627  0.00  0.00    +0.149 A 
ATOM     11  C   LIG A   1     -10.340   7.363 129.819  0.00  0.00    +0.059 A 
ATOM     12  C   LIG A   1     -11.624   6.972 130.243  0.00  0.00    +0.132 A 
ATOM     13  C   LIG A   1     -12.768   7.402 129.582  0.00  0.00    +0.046 A 
ATOM     14  C   LIG A   1     -12.636   8.084 128.379  0.00  0.00    +0.004 A 
ATOM     15  C   LIG A   1     -11.365   8.390 127.885  0.00  0.00    +0.001 A 
ATOM     16  C   LIG A   1     -10.221   8.080 128.628  0.00  0.00    +0.015 A 
ATOM     17  O   LIG A   1     -11.825   6.073 131.266  0.00  0.00    -0.483 OA
ATOM     18  C   LIG A   1      -9.416   5.935 131.480  0.00  0.00    +0.083 A 
ATOM     19  C   LIG A   1     -10.717   5.171 131.477  0.00  0.00    +0.211 C 
ENDROOT
BRANCH  19  20
ATOM     20  C   LIG A   1     -10.712   3.991 130.427  0.00  0.00    +0.050 C 
BRANCH  20  21
ATOM     21  C   LIG A   1      -9.521   3.004 130.492  0.00  0.00    +0.004 C 
BRANCH  21  22
ATOM     22  C   LIG A   1      -8.623   2.960 129.232  0.00  0.00    +0.000 C 
BRANCH  22  23
ATOM     23  C   LIG A   1      -7.219   2.344 129.282  0.00  0.00    -0.000 C 
BRANCH  23  24
ATOM     24  C   LIG A   1      -7.047   1.067 128.402  0.00  0.00    -0.000 C 
BRANCH  24  25
ATOM     25  C   LIG A   1      -6.472  -0.213 129.093  0.00  0.00    -0.000 C 
BRANCH  25  26
ATOM     26  C   LIG A   1      -7.388  -0.868 130.141  0.00  0.00    -0.000 C 
BRANCH  26  27
ATOM     27  C   LIG A   1      -7.971  -2.284 129.924  0.00  0.00    -0.000 C 
BRANCH  27  28
ATOM     28  C   LIG A   1      -7.720  -2.663 128.437  0.00  0.00    -0.000 C 
BRANCH  28  29
ATOM     29  C   LIG A   1      -8.717  -3.620 127.736  0.00  0.00    -0.000 C 
BRANCH  29  30
ATOM     30  C   LIG A   1      -8.921  -3.257 126.282  0.00  0.00    -0.000 C 
BRANCH  30  31
ATOM     31  C   LIG A   1      -8.700  -1.770 125.858  0.00  0.00    -0.000 C 
BRANCH  31  32
ATOM     32  C   LIG A   1      -7.758  -1.310 124.714  0.00  0.00    -0.000 C 
BRANCH  32  33
ATOM     33  C   LIG A   1      -6.240  -1.193 124.964  0.00  0.00    -0.000 C 
BRANCH  33  34
ATOM     34  C   LIG A   1      -5.510  -2.528 125.092  0.00  0.00    -0.000 C 
BRANCH  34  35
ATOM     35  C   LIG A   1      -5.354  -3.243 123.769  0.00  0.00    -0.003 C 
ATOM     36  C   LIG A   1      -4.582  -4.528 123.724  0.00  0.00    +0.004 C 
ENDBRANCH  34  35
ENDBRANCH  33  34
ENDBRANCH  32  33
ENDBRANCH  31  32
ENDBRANCH  30  31
ENDBRANCH  29  30
ENDBRANCH  28  29
ENDBRANCH  27  28
ENDBRANCH  26  27
ENDBRANCH  25  26
ENDBRANCH  24  25
ENDBRANCH  23  24
ENDBRANCH  22  23
ENDBRANCH  21  22
ENDBRANCH  20  21
ENDBRANCH  19  20
TORSDOF 16
ENDMDL
MODEL 6
REMARK VINA RESULT:      -7.1      5.068      7.509
REMARK  Name = NuBBE_1565
REMARK  17 active torsions:
REMARK  status: ('A' for Active; 'I' for Inactive)
REMARK    1  A    between atoms: C_19  and  C_20
REMARK    2  A    between atoms: C_20  and  C_21
REMARK    3  A    between atoms: C_21  and  C_22
REMARK    4  A    between atoms: C_22  and  C_23
REMARK    5  A    between atoms: C_23  and  C_24
REMARK    6  A    between atoms: C_24  and  C_25
REMARK    7  A    between atoms: C_25  and  C_26
REMARK    8  A    between atoms: C_26  and  C_27
REMARK    9  A    between atoms: C_27  and  C_28
REMARK   10  A    between atoms: C_28  and  C_29
REMARK   11  A    between atoms: C_29  and  C_30
REMARK   12  A    between atoms: C_30  and  C_31
REMARK   13  A    between atoms: C_31  and  C_32
REMARK   14  A    between atoms: C_32  and  C_33
REMARK   15  A    between atoms: C_33  and  C_34
REMARK   16  A    between atoms: C_34  and  C_35
REMARK   17  A    between atoms: C_35  and  C_36
REMARK                            x       y       z     vdW  Elec       q    Type
REMARK                         _______ _______ _______ _____ _____    ______ ____
ROOT
ATOM      1  O   LIG A   1      -8.935   5.134 133.543  0.00  0.00    -0.287 OA
ATOM      2  C   LIG A   1      -8.647   5.744 132.465  0.00  0.00    +0.200 A 
ATOM      3  C   LIG A   1      -7.278   6.152 132.176  0.00  0.00    +0.064 A 
ATOM      4  C   LIG A   1      -6.192   5.609 132.871  0.00  0.00    +0.015 A 
ATOM      5  C   LIG A   1      -4.901   5.815 132.387  0.00  0.00    +0.001 A 
ATOM      6  C   LIG A   1      -4.699   6.596 131.245  0.00  0.00    +0.004 A 
ATOM      7  C   LIG A   1      -5.782   7.219 130.615  0.00  0.00    +0.047 A 
ATOM      8  C   LIG A   1      -7.076   6.993 131.082  0.00  0.00    +0.139 A 
ATOM      9  O   LIG A   1      -8.129   7.572 130.409  0.00  0.00    -0.454 OA
ATOM     10  C   LIG A   1      -9.360   6.971 130.554  0.00  0.00    +0.149 A 
ATOM     11  C   LIG A   1     -10.456   7.380 129.680  0.00  0.00    +0.059 A 
ATOM     12  C   LIG A   1     -11.771   7.063 130.068  0.00  0.00    +0.132 A 
ATOM     13  C   LIG A   1     -12.869   7.503 129.339  0.00  0.00    +0.046 A 
ATOM     14  C   LIG A   1     -12.660   8.117 128.109  0.00  0.00    +0.004 A 
ATOM     15  C   LIG A   1     -11.359   8.346 127.655  0.00  0.00    +0.001 A 
ATOM     16  C   LIG A   1     -10.259   8.031 128.460  0.00  0.00    +0.015 A 
ATOM     17  O   LIG A   1     -12.051   6.226 131.124  0.00  0.00    -0.483 OA
ATOM     18  C   LIG A   1      -9.660   6.004 131.447  0.00  0.00    +0.083 A 
ATOM     19  C   LIG A   1     -10.990   5.293 131.426  0.00  0.00    +0.211 C 
ENDROOT
BRANCH  19  20
ATOM     20  C   LIG A   1     -10.991   4.061 130.438  0.00  0.00    +0.050 C 
BRANCH  20  21
ATOM     21  C   LIG A   1      -9.852   3.027 130.609  0.00  0.00    +0.004 C 
BRANCH  21  22
ATOM     22  C   LIG A   1      -8.904   2.874 129.395  0.00  0.00    +0.000 C 
BRANCH  22  23
ATOM     23  C   LIG A   1      -7.803   3.906 129.117  0.00  0.00    -0.000 C 
BRANCH  23  24
ATOM     24  C   LIG A   1      -6.409   3.533 129.711  0.00  0.00    -0.000 C 
BRANCH  24  25
ATOM     25  C   LIG A   1      -5.195   3.485 128.726  0.00  0.00    -0.000 C 
BRANCH  25  26
ATOM     26  C   LIG A   1      -5.444   4.097 127.336  0.00  0.00    -0.000 C 
BRANCH  26  27
ATOM     27  C   LIG A   1      -5.536   3.209 126.074  0.00  0.00    -0.000 C 
BRANCH  27  28
ATOM     28  C   LIG A   1      -4.787   1.883 126.387  0.00  0.00    -0.000 C 
BRANCH  28  29
ATOM     29  C   LIG A   1      -5.615   0.647 126.819  0.00  0.00    -0.000 C 
BRANCH  29  30
ATOM     30  C   LIG A   1      -5.339  -0.553 125.940  0.00  0.00    -0.000 C 
BRANCH  30  31
ATOM     31  C   LIG A   1      -6.247  -0.770 124.688  0.00  0.00    -0.000 C 
BRANCH  31  32
ATOM     32  C   LIG A   1      -6.222  -2.034 123.788  0.00  0.00    -0.000 C 
BRANCH  32  33
ATOM     33  C   LIG A   1      -6.827  -3.358 124.300  0.00  0.00    -0.000 C 
BRANCH  33  34
ATOM     34  C   LIG A   1      -7.876  -3.197 125.398  0.00  0.00    -0.000 C 
BRANCH  34  35
ATOM     35  C   LIG A   1      -9.289  -3.151 124.860  0.00  0.00    -0.003 C 
ATOM     36  C   LIG A   1      -9.507  -3.276 123.381  0.00  0.00    +0.004 C 
ENDBRANCH  34  35
ENDBRANCH  33  34
ENDBRANCH  32  33
ENDBRANCH  31  32
ENDBRANCH  30  31
ENDBRANCH  29  30
ENDBRANCH  28  29
ENDBRANCH  27  28
ENDBRANCH  26  27
ENDBRANCH  25  26
ENDBRANCH  24  25
ENDBRANCH  23  24
ENDBRANCH  22  23
ENDBRANCH  21  22
ENDBRANCH  20  21
ENDBRANCH  19  20
TORSDOF 16
ENDMDL
MODEL 7
REMARK VINA RESULT:      -7.1      5.126      8.335
REMARK  Name = NuBBE_1565
REMARK  17 active torsions:
REMARK  status: ('A' for Active; 'I' for Inactive)
REMARK    1  A    between atoms: C_19  and  C_20
REMARK    2  A    between atoms: C_20  and  C_21
REMARK    3  A    between atoms: C_21  and  C_22
REMARK    4  A    between atoms: C_22  and  C_23
REMARK    5  A    between atoms: C_23  and  C_24
REMARK    6  A    between atoms: C_24  and  C_25
REMARK    7  A    between atoms: C_25  and  C_26
REMARK    8  A    between atoms: C_26  and  C_27
REMARK    9  A    between atoms: C_27  and  C_28
REMARK   10  A    between atoms: C_28  and  C_29
REMARK   11  A    between atoms: C_29  and  C_30
REMARK   12  A    between atoms: C_30  and  C_31
REMARK   13  A    between atoms: C_31  and  C_32
REMARK   14  A    between atoms: C_32  and  C_33
REMARK   15  A    between atoms: C_33  and  C_34
REMARK   16  A    between atoms: C_34  and  C_35
REMARK   17  A    between atoms: C_35  and  C_36
REMARK                            x       y       z     vdW  Elec       q    Type
REMARK                         _______ _______ _______ _____ _____    ______ ____
ROOT
ATOM      1  O   LIG A   1      -8.748   5.145 133.572  0.00  0.00    -0.287 OA
ATOM      2  C   LIG A   1      -8.487   5.767 132.495  0.00  0.00    +0.200 A 
ATOM      3  C   LIG A   1      -7.127   6.193 132.184  0.00  0.00    +0.064 A 
ATOM      4  C   LIG A   1      -6.023   5.654 132.853  0.00  0.00    +0.015 A 
ATOM      5  C   LIG A   1      -4.744   5.878 132.348  0.00  0.00    +0.001 A 
ATOM      6  C   LIG A   1      -4.571   6.671 131.210  0.00  0.00    +0.004 A 
ATOM      7  C   LIG A   1      -5.672   7.288 130.605  0.00  0.00    +0.047 A 
ATOM      8  C   LIG A   1      -6.955   7.045 131.093  0.00  0.00    +0.139 A 
ATOM      9  O   LIG A   1      -8.026   7.618 130.445  0.00  0.00    -0.454 OA
ATOM     10  C   LIG A   1      -9.247   7.003 130.608  0.00  0.00    +0.149 A 
ATOM     11  C   LIG A   1     -10.364   7.409 129.758  0.00  0.00    +0.059 A 
ATOM     12  C   LIG A   1     -11.668   7.074 130.167  0.00  0.00    +0.132 A 
ATOM     13  C   LIG A   1     -12.784   7.509 129.462  0.00  0.00    +0.046 A 
ATOM     14  C   LIG A   1     -12.604   8.135 128.235  0.00  0.00    +0.004 A 
ATOM     15  C   LIG A   1     -11.314   8.383 127.759  0.00  0.00    +0.001 A 
ATOM     16  C   LIG A   1     -10.196   8.072 128.540  0.00  0.00    +0.015 A 
ATOM     17  O   LIG A   1     -11.920   6.225 131.221  0.00  0.00    -0.483 OA
ATOM     18  C   LIG A   1      -9.521   6.026 131.498  0.00  0.00    +0.083 A 
ATOM     19  C   LIG A   1     -10.844   5.301 131.495  0.00  0.00    +0.211 C 
ENDROOT
BRANCH  19  20
ATOM     20  C   LIG A   1     -10.851   4.078 130.496  0.00  0.00    +0.050 C 
BRANCH  20  21
ATOM     21  C   LIG A   1     -10.272   2.742 131.023  0.00  0.00    +0.004 C 
BRANCH  21  22
ATOM     22  C   LIG A   1      -8.758   2.532 130.782  0.00  0.00    +0.000 C 
BRANCH  22  23
ATOM     23  C   LIG A   1      -8.233   2.054 129.422  0.00  0.00    -0.000 C 
BRANCH  23  24
ATOM     24  C   LIG A   1      -8.050   3.190 128.369  0.00  0.00    -0.000 C 
BRANCH  24  25
ATOM     25  C   LIG A   1      -7.094   4.371 128.740  0.00  0.00    -0.000 C 
BRANCH  25  26
ATOM     26  C   LIG A   1      -5.592   4.037 128.727  0.00  0.00    -0.000 C 
BRANCH  26  27
ATOM     27  C   LIG A   1      -4.625   4.729 127.738  0.00  0.00    -0.000 C 
BRANCH  27  28
ATOM     28  C   LIG A   1      -4.707   3.952 126.393  0.00  0.00    -0.000 C 
BRANCH  28  29
ATOM     29  C   LIG A   1      -5.106   2.454 126.424  0.00  0.00    -0.000 C 
BRANCH  29  30
ATOM     30  C   LIG A   1      -6.058   2.101 125.303  0.00  0.00    -0.000 C 
BRANCH  30  31
ATOM     31  C   LIG A   1      -6.413   3.210 124.263  0.00  0.00    -0.000 C 
BRANCH  31  32
ATOM     32  C   LIG A   1      -7.633   3.164 123.306  0.00  0.00    -0.000 C 
BRANCH  32  33
ATOM     33  C   LIG A   1      -7.425   3.311 121.784  0.00  0.00    -0.000 C 
BRANCH  33  34
ATOM     34  C   LIG A   1      -5.991   3.088 121.312  0.00  0.00    -0.000 C 
BRANCH  34  35
ATOM     35  C   LIG A   1      -5.313   4.364 120.865  0.00  0.00    -0.003 C 
ATOM     36  C   LIG A   1      -4.315   5.015 121.778  0.00  0.00    +0.004 C 
ENDBRANCH  34  35
ENDBRANCH  33  34
ENDBRANCH  32  33
ENDBRANCH  31  32
ENDBRANCH  30  31
ENDBRANCH  29  30
ENDBRANCH  28  29
ENDBRANCH  27  28
ENDBRANCH  26  27
ENDBRANCH  25  26
ENDBRANCH  24  25
ENDBRANCH  23  24
ENDBRANCH  22  23
ENDBRANCH  21  22
ENDBRANCH  20  21
ENDBRANCH  19  20
TORSDOF 16
ENDMDL
MODEL 8
REMARK VINA RESULT:      -7.0      5.136      7.217
REMARK  Name = NuBBE_1565
REMARK  17 active torsions:
REMARK  status: ('A' for Active; 'I' for Inactive)
REMARK    1  A    between atoms: C_19  and  C_20
REMARK    2  A    between atoms: C_20  and  C_21
REMARK    3  A    between atoms: C_21  and  C_22
REMARK    4  A    between atoms: C_22  and  C_23
REMARK    5  A    between atoms: C_23  and  C_24
REMARK    6  A    between atoms: C_24  and  C_25
REMARK    7  A    between atoms: C_25  and  C_26
REMARK    8  A    between atoms: C_26  and  C_27
REMARK    9  A    between atoms: C_27  and  C_28
REMARK   10  A    between atoms: C_28  and  C_29
REMARK   11  A    between atoms: C_29  and  C_30
REMARK   12  A    between atoms: C_30  and  C_31
REMARK   13  A    between atoms: C_31  and  C_32
REMARK   14  A    between atoms: C_32  and  C_33
REMARK   15  A    between atoms: C_33  and  C_34
REMARK   16  A    between atoms: C_34  and  C_35
REMARK   17  A    between atoms: C_35  and  C_36
REMARK                            x       y       z     vdW  Elec       q    Type
REMARK                         _______ _______ _______ _____ _____    ______ ____
ROOT
ATOM      1  O   LIG A   1      -8.827   5.152 133.593  0.00  0.00    -0.287 OA
ATOM      2  C   LIG A   1      -8.551   5.764 132.514  0.00  0.00    +0.200 A 
ATOM      3  C   LIG A   1      -7.182   6.160 132.205  0.00  0.00    +0.064 A 
ATOM      4  C   LIG A   1      -6.090   5.603 132.879  0.00  0.00    +0.015 A 
ATOM      5  C   LIG A   1      -4.806   5.798 132.376  0.00  0.00    +0.001 A 
ATOM      6  C   LIG A   1      -4.614   6.583 131.235  0.00  0.00    +0.004 A 
ATOM      7  C   LIG A   1      -5.701   7.220 130.625  0.00  0.00    +0.047 A 
ATOM      8  C   LIG A   1      -6.989   7.005 131.111  0.00  0.00    +0.139 A 
ATOM      9  O   LIG A   1      -8.048   7.597 130.458  0.00  0.00    -0.454 OA
ATOM     10  C   LIG A   1      -9.281   7.008 130.621  0.00  0.00    +0.149 A 
ATOM     11  C   LIG A   1     -10.388   7.432 129.766  0.00  0.00    +0.059 A 
ATOM     12  C   LIG A   1     -11.699   7.126 130.173  0.00  0.00    +0.132 A 
ATOM     13  C   LIG A   1     -12.804   7.581 129.464  0.00  0.00    +0.046 A 
ATOM     14  C   LIG A   1     -12.609   8.198 128.234  0.00  0.00    +0.004 A 
ATOM     15  C   LIG A   1     -11.313   8.418 127.761  0.00  0.00    +0.001 A 
ATOM     16  C   LIG A   1     -10.204   8.087 128.546  0.00  0.00    +0.015 A 
ATOM     17  O   LIG A   1     -11.970   6.286 131.230  0.00  0.00    -0.483 OA
ATOM     18  C   LIG A   1      -9.577   6.040 131.513  0.00  0.00    +0.083 A 
ATOM     19  C   LIG A   1     -10.914   5.341 131.510  0.00  0.00    +0.211 C 
ENDROOT
BRANCH  19  20
ATOM     20  C   LIG A   1     -10.944   4.115 130.516  0.00  0.00    +0.050 C 
BRANCH  20  21
ATOM     21  C   LIG A   1     -10.290   2.801 131.008  0.00  0.00    +0.004 C 
BRANCH  21  22
ATOM     22  C   LIG A   1      -8.808   2.603 130.608  0.00  0.00    +0.000 C 
BRANCH  22  23
ATOM     23  C   LIG A   1      -8.194   3.386 129.441  0.00  0.00    -0.000 C 
BRANCH  23  24
ATOM     24  C   LIG A   1      -6.652   3.599 129.553  0.00  0.00    -0.000 C 
BRANCH  24  25
ATOM     25  C   LIG A   1      -5.918   4.221 128.319  0.00  0.00    -0.000 C 
BRANCH  25  26
ATOM     26  C   LIG A   1      -5.110   3.233 127.461  0.00  0.00    -0.000 C 
BRANCH  26  27
ATOM     27  C   LIG A   1      -5.793   2.362 126.381  0.00  0.00    -0.000 C 
BRANCH  27  28
ATOM     28  C   LIG A   1      -5.137   0.954 126.440  0.00  0.00    -0.000 C 
BRANCH  28  29
ATOM     29  C   LIG A   1      -5.925  -0.205 127.103  0.00  0.00    -0.000 C 
BRANCH  29  30
ATOM     30  C   LIG A   1      -6.456  -1.184 126.079  0.00  0.00    -0.000 C 
BRANCH  30  31
ATOM     31  C   LIG A   1      -7.963  -1.089 125.683  0.00  0.00    -0.000 C 
BRANCH  31  32
ATOM     32  C   LIG A   1      -9.049  -2.120 126.090  0.00  0.00    -0.000 C 
BRANCH  32  33
ATOM     33  C   LIG A   1      -8.649  -3.573 126.418  0.00  0.00    -0.000 C 
BRANCH  33  34
ATOM     34  C   LIG A   1      -8.940  -4.006 127.853  0.00  0.00    -0.000 C 
BRANCH  34  35
ATOM     35  C   LIG A   1      -8.304  -3.098 128.882  0.00  0.00    -0.003 C 
ATOM     36  C   LIG A   1      -7.078  -3.570 129.607  0.00  0.00    +0.004 C 
ENDBRANCH  34  35
ENDBRANCH  33  34
ENDBRANCH  32  33
ENDBRANCH  31  32
ENDBRANCH  30  31
ENDBRANCH  29  30
ENDBRANCH  28  29
ENDBRANCH  27  28
ENDBRANCH  26  27
ENDBRANCH  25  26
ENDBRANCH  24  25
ENDBRANCH  23  24
ENDBRANCH  22  23
ENDBRANCH  21  22
ENDBRANCH  20  21
ENDBRANCH  19  20
TORSDOF 16
ENDMDL
MODEL 9
REMARK VINA RESULT:      -7.0      5.095      7.244
REMARK  Name = NuBBE_1565
REMARK  17 active torsions:
REMARK  status: ('A' for Active; 'I' for Inactive)
REMARK    1  A    between atoms: C_19  and  C_20
REMARK    2  A    between atoms: C_20  and  C_21
REMARK    3  A    between atoms: C_21  and  C_22
REMARK    4  A    between atoms: C_22  and  C_23
REMARK    5  A    between atoms: C_23  and  C_24
REMARK    6  A    between atoms: C_24  and  C_25
REMARK    7  A    between atoms: C_25  and  C_26
REMARK    8  A    between atoms: C_26  and  C_27
REMARK    9  A    between atoms: C_27  and  C_28
REMARK   10  A    between atoms: C_28  and  C_29
REMARK   11  A    between atoms: C_29  and  C_30
REMARK   12  A    between atoms: C_30  and  C_31
REMARK   13  A    between atoms: C_31  and  C_32
REMARK   14  A    between atoms: C_32  and  C_33
REMARK   15  A    between atoms: C_33  and  C_34
REMARK   16  A    between atoms: C_34  and  C_35
REMARK   17  A    between atoms: C_35  and  C_36
REMARK                            x       y       z     vdW  Elec       q    Type
REMARK                         _______ _______ _______ _____ _____    ______ ____
ROOT
ATOM      1  O   LIG A   1      -8.800   5.112 133.564  0.00  0.00    -0.287 OA
ATOM      2  C   LIG A   1      -8.521   5.743 132.497  0.00  0.00    +0.200 A 
ATOM      3  C   LIG A   1      -7.156   6.168 132.211  0.00  0.00    +0.064 A 
ATOM      4  C   LIG A   1      -6.063   5.621 132.891  0.00  0.00    +0.015 A 
ATOM      5  C   LIG A   1      -4.776   5.846 132.407  0.00  0.00    +0.001 A 
ATOM      6  C   LIG A   1      -4.585   6.650 131.279  0.00  0.00    +0.004 A 
ATOM      7  C   LIG A   1      -5.675   7.276 130.664  0.00  0.00    +0.047 A 
ATOM      8  C   LIG A   1      -6.965   7.030 131.131  0.00  0.00    +0.139 A 
ATOM      9  O   LIG A   1      -8.026   7.612 130.472  0.00  0.00    -0.454 OA
ATOM     10  C   LIG A   1      -9.251   6.999 130.611  0.00  0.00    +0.149 A 
ATOM     11  C   LIG A   1     -10.354   7.415 129.748  0.00  0.00    +0.059 A 
ATOM     12  C   LIG A   1     -11.664   7.079 130.134  0.00  0.00    +0.132 A 
ATOM     13  C   LIG A   1     -12.769   7.524 129.417  0.00  0.00    +0.046 A 
ATOM     14  C   LIG A   1     -12.569   8.162 128.198  0.00  0.00    +0.004 A 
ATOM     15  C   LIG A   1     -11.271   8.411 127.744  0.00  0.00    +0.001 A 
ATOM     16  C   LIG A   1     -10.166   8.089 128.539  0.00  0.00    +0.015 A 
ATOM     17  O   LIG A   1     -11.933   6.221 131.176  0.00  0.00    -0.483 OA
ATOM     18  C   LIG A   1      -9.539   6.014 131.487  0.00  0.00    +0.083 A 
ATOM     19  C   LIG A   1     -10.864   5.292 131.457  0.00  0.00    +0.211 C 
ENDROOT
BRANCH  19  20
ATOM     20  C   LIG A   1     -10.859   4.078 130.447  0.00  0.00    +0.050 C 
BRANCH  20  21
ATOM     21  C   LIG A   1      -9.901   2.905 130.768  0.00  0.00    +0.004 C 
BRANCH  21  22
ATOM     22  C   LIG A   1      -8.560   2.909 129.996  0.00  0.00    +0.000 C 
BRANCH  22  23
ATOM     23  C   LIG A   1      -8.472   2.370 128.562  0.00  0.00    -0.000 C 
BRANCH  23  24
ATOM     24  C   LIG A   1      -7.944   0.906 128.458  0.00  0.00    -0.000 C 
BRANCH  24  25
ATOM     25  C   LIG A   1      -8.153   0.158 127.100  0.00  0.00    -0.000 C 
BRANCH  25  26
ATOM     26  C   LIG A   1      -9.417   0.552 126.315  0.00  0.00    -0.000 C 
BRANCH  26  27
ATOM     27  C   LIG A   1      -9.324   1.117 124.878  0.00  0.00    -0.000 C 
BRANCH  27  28
ATOM     28  C   LIG A   1      -7.932   1.795 124.738  0.00  0.00    -0.000 C 
BRANCH  28  29
ATOM     29  C   LIG A   1      -7.064   1.458 123.499  0.00  0.00    -0.000 C 
BRANCH  29  30
ATOM     30  C   LIG A   1      -7.055  -0.025 123.202  0.00  0.00    -0.000 C 
BRANCH  30  31
ATOM     31  C   LIG A   1      -6.154  -0.946 124.083  0.00  0.00    -0.000 C 
BRANCH  31  32
ATOM     32  C   LIG A   1      -6.548  -2.368 124.564  0.00  0.00    -0.000 C 
BRANCH  32  33
ATOM     33  C   LIG A   1      -7.962  -2.914 124.280  0.00  0.00    -0.000 C 
BRANCH  33  34
ATOM     34  C   LIG A   1      -8.482  -3.908 125.316  0.00  0.00    -0.000 C 
BRANCH  34  35
ATOM     35  C   LIG A   1      -9.025  -3.234 126.556  0.00  0.00    -0.003 C 
ATOM     36  C   LIG A   1      -8.985  -3.974 127.861  0.00  0.00    +0.004 C 
ENDBRANCH  34  35
ENDBRANCH  33  34
ENDBRANCH  32  33
ENDBRANCH  31  32
ENDBRANCH  30  31
ENDBRANCH  29  30
ENDBRANCH  28  29
ENDBRANCH  27  28
ENDBRANCH  26  27
ENDBRANCH  25  26
ENDBRANCH  24  25
ENDBRANCH  23  24
ENDBRANCH  22  23
ENDBRANCH  21  22
ENDBRANCH  20  21
ENDBRANCH  19  20
TORSDOF 16
ENDMDL
