MODEL 1
REMARK VINA RESULT:      -7.1      0.000      0.000
REMARK  Name = NuBBE_1875
REMARK  15 active torsions:
REMARK  status: ('A' for Active; 'I' for Inactive)
REMARK    1  A    between atoms: C_4  and  O_30
REMARK    2  A    between atoms: C_5  and  O_6
REMARK    3  A    between atoms: O_6  and  C_7
REMARK    4  A    between atoms: C_8  and  O_28
REMARK    5  A    between atoms: C_12  and  C_13
REMARK    6  A    between atoms: C_16  and  O_23
REMARK    7  A    between atoms: C_17  and  O_18
REMARK    8  A    between atoms: O_18  and  C_19
REMARK    9  A    between atoms: C_20  and  O_21
REMARK   10  A    between atoms: O_21  and  C_22
REMARK   11  A    between atoms: O_23  and  C_24
REMARK   12  A    between atoms: C_25  and  O_26
REMARK   13  A    between atoms: O_26  and  C_27
REMARK   14  A    between atoms: O_28  and  C_29
REMARK   15  A    between atoms: O_30  and  C_31
REMARK                            x       y       z     vdW  Elec       q    Type
REMARK                         _______ _______ _______ _____ _____    ______ ____
ROOT
ATOM      1  O   LIG A   1      -5.951   5.417 126.049  0.00  0.00    -0.283 OA
ATOM      2  C   LIG A   1      -5.867   4.437 126.626  0.00  0.00    +0.238 A 
ATOM      3  C   LIG A   1      -6.607   4.043 127.864  0.00  0.00    +0.113 A 
ATOM      4  C   LIG A   1      -6.393   4.617 129.114  0.00  0.00    +0.180 A 
ATOM      5  C   LIG A   1      -7.239   4.197 130.175  0.00  0.00    +0.204 A 
ATOM      6  C   LIG A   1      -8.210   3.194 129.926  0.00  0.00    +0.169 A 
ATOM      7  C   LIG A   1      -8.247   2.518 128.706  0.00  0.00    +0.096 A 
ATOM      8  C   LIG A   1      -7.427   2.935 127.693  0.00  0.00    +0.147 A 
ATOM      9  O   LIG A   1      -7.352   2.174 126.548  0.00  0.00    -0.451 OA
ATOM     10  C   LIG A   1      -6.022   2.051 126.065  0.00  0.00    +0.184 A 
ATOM     11  C   LIG A   1      -5.085   3.204 126.218  0.00  0.00    +0.211 A 
ENDROOT
BRANCH  10  12
ATOM     12  C   LIG A   1      -5.931   0.438 125.446  0.00  0.00    +0.067 A 
ATOM     13  C   LIG A   1      -5.419  -0.590 126.237  0.00  0.00    +0.019 A 
ATOM     14  C   LIG A   1      -5.486  -1.930 125.761  0.00  0.00    +0.050 A 
ATOM     15  C   LIG A   1      -6.067  -2.309 124.516  0.00  0.00    +0.165 A 
ATOM     16  C   LIG A   1      -6.733  -1.389 123.732  0.00  0.00    +0.204 A 
ATOM     17  C   LIG A   1      -6.696  -0.098 124.270  0.00  0.00    +0.176 A 
BRANCH  16  18
ATOM     18  O   LIG A   1      -7.640  -1.861 122.800  0.00  0.00    -0.488 OA
ATOM     19  C   LIG A   1      -8.879  -2.557 123.040  0.00  0.00    +0.277 C 
ENDBRANCH  16  18
BRANCH  17  20
ATOM     20  O   LIG A   1      -7.871   0.494 123.876  0.00  0.00    -0.491 OA
ATOM     21  C   LIG A   1      -7.342   1.456 123.074  0.00  0.00    +0.277 C 
ENDBRANCH  17  20
BRANCH  15  22
ATOM     22  O   LIG A   1      -6.015  -3.644 124.221  0.00  0.00    -0.491 OA
ATOM     23  C   LIG A   1      -4.725  -4.119 123.837  0.00  0.00    +0.277 C 
ENDBRANCH  15  22
ENDBRANCH  10  12
BRANCH   5  24
ATOM     24  O   LIG A   1      -7.259   4.975 131.302  0.00  0.00    -0.488 OA
ATOM     25  C   LIG A   1      -8.057   6.162 131.288  0.00  0.00    +0.277 C 
ENDBRANCH   5  24
BRANCH  11  26
ATOM     26  O   LIG A   1      -3.533   3.485 126.067  0.00  0.00    -0.488 OA
ATOM     27  C   LIG A   1      -2.194   3.160 127.047  0.00  0.00    +0.277 C 
ENDBRANCH  11  26
BRANCH   6  28
ATOM     28  O   LIG A   1      -9.259   2.763 130.686  0.00  0.00    -0.491 OA
ATOM     29  C   LIG A   1     -10.501   3.402 130.586  0.00  0.00    +0.277 C 
ENDBRANCH   6  28
BRANCH   4  30
ATOM     30  O   LIG A   1      -5.393   5.556 129.197  0.00  0.00    -0.490 OA
ATOM     31  C   LIG A   1      -4.131   5.150 129.715  0.00  0.00    +0.277 C 
ENDBRANCH   4  30
TORSDOF 8
ENDMDL
MODEL 2
REMARK VINA RESULT:      -7.0      2.442      4.677
REMARK  Name = NuBBE_1875
REMARK  15 active torsions:
REMARK  status: ('A' for Active; 'I' for Inactive)
REMARK    1  A    between atoms: C_4  and  O_30
REMARK    2  A    between atoms: C_5  and  O_6
REMARK    3  A    between atoms: O_6  and  C_7
REMARK    4  A    between atoms: C_8  and  O_28
REMARK    5  A    between atoms: C_12  and  C_13
REMARK    6  A    between atoms: C_16  and  O_23
REMARK    7  A    between atoms: C_17  and  O_18
REMARK    8  A    between atoms: O_18  and  C_19
REMARK    9  A    between atoms: C_20  and  O_21
REMARK   10  A    between atoms: O_21  and  C_22
REMARK   11  A    between atoms: O_23  and  C_24
REMARK   12  A    between atoms: C_25  and  O_26
REMARK   13  A    between atoms: O_26  and  C_27
REMARK   14  A    between atoms: O_28  and  C_29
REMARK   15  A    between atoms: O_30  and  C_31
REMARK                            x       y       z     vdW  Elec       q    Type
REMARK                         _______ _______ _______ _____ _____    ______ ____
ROOT
ATOM      1  O   LIG A   1      -5.785   1.843 132.081  0.00  0.00    -0.283 OA
ATOM      2  C   LIG A   1      -5.990   2.130 130.996  0.00  0.00    +0.238 A 
ATOM      3  C   LIG A   1      -5.079   2.861 130.061  0.00  0.00    +0.113 A 
ATOM      4  C   LIG A   1      -4.747   4.206 130.192  0.00  0.00    +0.180 A 
ATOM      5  C   LIG A   1      -3.799   4.733 129.274  0.00  0.00    +0.204 A 
ATOM      6  C   LIG A   1      -3.284   3.891 128.256  0.00  0.00    +0.169 A 
ATOM      7  C   LIG A   1      -3.801   2.611 128.055  0.00  0.00    +0.096 A 
ATOM      8  C   LIG A   1      -4.712   2.116 128.947  0.00  0.00    +0.147 A 
ATOM      9  O   LIG A   1      -5.334   0.922 128.664  0.00  0.00    -0.451 OA
ATOM     10  C   LIG A   1      -6.720   0.945 128.973  0.00  0.00    +0.184 A 
ATOM     11  C   LIG A   1      -7.186   1.728 130.157  0.00  0.00    +0.211 A 
ENDROOT
BRANCH  10  12
ATOM     12  C   LIG A   1      -7.461   0.001 127.727  0.00  0.00    +0.067 A 
ATOM     13  C   LIG A   1      -7.624  -1.374 127.891  0.00  0.00    +0.019 A 
ATOM     14  C   LIG A   1      -8.363  -2.105 126.918  0.00  0.00    +0.050 A 
ATOM     15  C   LIG A   1      -8.977  -1.520 125.773  0.00  0.00    +0.165 A 
ATOM     16  C   LIG A   1      -9.002  -0.152 125.601  0.00  0.00    +0.204 A 
ATOM     17  C   LIG A   1      -8.319   0.530 126.613  0.00  0.00    +0.176 A 
BRANCH  16  18
ATOM     18  O   LIG A   1      -9.961   0.382 124.759  0.00  0.00    -0.488 OA
ATOM     19  C   LIG A   1      -9.794   0.847 123.404  0.00  0.00    +0.277 C 
ENDBRANCH  16  18
BRANCH  17  20
ATOM     20  O   LIG A   1      -8.973   1.730 126.750  0.00  0.00    -0.491 OA
ATOM     21  C   LIG A   1      -7.991   2.539 126.267  0.00  0.00    +0.277 C 
ENDBRANCH  17  20
BRANCH  15  22
ATOM     22  O   LIG A   1      -9.625  -2.391 124.939  0.00  0.00    -0.491 OA
ATOM     23  C   LIG A   1      -8.764  -3.251 124.193  0.00  0.00    +0.277 C 
ENDBRANCH  15  22
ENDBRANCH  10  12
BRANCH   5  24
ATOM     24  O   LIG A   1      -3.226   5.937 129.591  0.00  0.00    -0.488 OA
ATOM     25  C   LIG A   1      -3.613   7.087 128.834  0.00  0.00    +0.277 C 
ENDBRANCH   5  24
BRANCH  11  26
ATOM     26  O   LIG A   1      -8.559   2.235 130.764  0.00  0.00    -0.488 OA
ATOM     27  C   LIG A   1      -9.662   1.568 131.857  0.00  0.00    +0.277 C 
ENDBRANCH  11  26
BRANCH   6  28
ATOM     28  O   LIG A   1      -2.241   4.073 127.395  0.00  0.00    -0.491 OA
ATOM     29  C   LIG A   1      -1.800   3.007 126.599  0.00  0.00    +0.277 C 
ENDBRANCH   6  28
BRANCH   4  30
ATOM     30  O   LIG A   1      -5.353   4.894 131.215  0.00  0.00    -0.490 OA
ATOM     31  C   LIG A   1      -6.483   5.703 130.905  0.00  0.00    +0.277 C 
ENDBRANCH   4  30
TORSDOF 8
ENDMDL
MODEL 3
REMARK VINA RESULT:      -6.9      3.926      7.020
REMARK  Name = NuBBE_1875
REMARK  15 active torsions:
REMARK  status: ('A' for Active; 'I' for Inactive)
REMARK    1  A    between atoms: C_4  and  O_30
REMARK    2  A    between atoms: C_5  and  O_6
REMARK    3  A    between atoms: O_6  and  C_7
REMARK    4  A    between atoms: C_8  and  O_28
REMARK    5  A    between atoms: C_12  and  C_13
REMARK    6  A    between atoms: C_16  and  O_23
REMARK    7  A    between atoms: C_17  and  O_18
REMARK    8  A    between atoms: O_18  and  C_19
REMARK    9  A    between atoms: C_20  and  O_21
REMARK   10  A    between atoms: O_21  and  C_22
REMARK   11  A    between atoms: O_23  and  C_24
REMARK   12  A    between atoms: C_25  and  O_26
REMARK   13  A    between atoms: O_26  and  C_27
REMARK   14  A    between atoms: O_28  and  C_29
REMARK   15  A    between atoms: O_30  and  C_31
REMARK                            x       y       z     vdW  Elec       q    Type
REMARK                         _______ _______ _______ _____ _____    ______ ____
ROOT
ATOM      1  O   LIG A   1      -9.762  -2.648 124.987  0.00  0.00    -0.283 OA
ATOM      2  C   LIG A   1      -8.818  -2.075 125.272  0.00  0.00    +0.238 A 
ATOM      3  C   LIG A   1      -8.655  -0.593 125.396  0.00  0.00    +0.113 A 
ATOM      4  C   LIG A   1      -8.675   0.284 124.316  0.00  0.00    +0.180 A 
ATOM      5  C   LIG A   1      -8.597   1.673 124.605  0.00  0.00    +0.204 A 
ATOM      6  C   LIG A   1      -8.454   2.089 125.954  0.00  0.00    +0.169 A 
ATOM      7  C   LIG A   1      -8.244   1.159 126.972  0.00  0.00    +0.096 A 
ATOM      8  C   LIG A   1      -8.324  -0.175 126.679  0.00  0.00    +0.147 A 
ATOM      9  O   LIG A   1      -7.965  -1.087 127.645  0.00  0.00    -0.451 OA
ATOM     10  C   LIG A   1      -7.201  -2.163 127.118  0.00  0.00    +0.184 A 
ATOM     11  C   LIG A   1      -7.503  -2.662 125.743  0.00  0.00    +0.211 A 
ENDROOT
BRANCH  10  12
ATOM     12  C   LIG A   1      -6.049  -2.527 128.356  0.00  0.00    +0.067 A 
ATOM     13  C   LIG A   1      -4.856  -1.810 128.439  0.00  0.00    +0.019 A 
ATOM     14  C   LIG A   1      -3.991  -2.029 129.548  0.00  0.00    +0.050 A 
ATOM     15  C   LIG A   1      -4.268  -2.933 130.614  0.00  0.00    +0.165 A 
ATOM     16  C   LIG A   1      -5.486  -3.575 130.702  0.00  0.00    +0.204 A 
ATOM     17  C   LIG A   1      -6.328  -3.282 129.625  0.00  0.00    +0.176 A 
BRANCH  16  18
ATOM     18  O   LIG A   1      -5.877  -4.065 131.936  0.00  0.00    -0.488 OA
ATOM     19  C   LIG A   1      -5.401  -5.245 132.614  0.00  0.00    +0.277 C 
ENDBRANCH  16  18
BRANCH  17  20
ATOM     20  O   LIG A   1      -7.603  -3.341 130.133  0.00  0.00    -0.491 OA
ATOM     21  C   LIG A   1      -7.655  -2.091 130.667  0.00  0.00    +0.277 C 
ENDBRANCH  17  20
BRANCH  15  22
ATOM     22  O   LIG A   1      -3.303  -3.024 131.580  0.00  0.00    -0.491 OA
ATOM     23  C   LIG A   1      -3.187  -1.872 132.415  0.00  0.00    +0.277 C 
ENDBRANCH  15  22
ENDBRANCH  10  12
BRANCH   5  24
ATOM     24  O   LIG A   1      -8.941   2.540 123.603  0.00  0.00    -0.488 OA
ATOM     25  C   LIG A   1      -7.895   3.082 122.790  0.00  0.00    +0.277 C 
ENDBRANCH   5  24
BRANCH  11  26
ATOM     26  O   LIG A   1      -6.841  -3.621 124.669  0.00  0.00    -0.488 OA
ATOM     27  C   LIG A   1      -5.318  -3.667 123.936  0.00  0.00    +0.277 C 
ENDBRANCH  11  26
BRANCH   6  28
ATOM     28  O   LIG A   1      -8.558   3.327 126.518  0.00  0.00    -0.491 OA
ATOM     29  C   LIG A   1      -7.508   4.244 126.387  0.00  0.00    +0.277 C 
ENDBRANCH   6  28
BRANCH   4  30
ATOM     30  O   LIG A   1      -8.792  -0.278 123.068  0.00  0.00    -0.490 OA
ATOM     31  C   LIG A   1     -10.052  -0.200 122.410  0.00  0.00    +0.277 C 
ENDBRANCH   4  30
TORSDOF 8
ENDMDL
MODEL 4
REMARK VINA RESULT:      -6.9      5.255      8.480
REMARK  Name = NuBBE_1875
REMARK  15 active torsions:
REMARK  status: ('A' for Active; 'I' for Inactive)
REMARK    1  A    between atoms: C_4  and  O_30
REMARK    2  A    between atoms: C_5  and  O_6
REMARK    3  A    between atoms: O_6  and  C_7
REMARK    4  A    between atoms: C_8  and  O_28
REMARK    5  A    between atoms: C_12  and  C_13
REMARK    6  A    between atoms: C_16  and  O_23
REMARK    7  A    between atoms: C_17  and  O_18
REMARK    8  A    between atoms: O_18  and  C_19
REMARK    9  A    between atoms: C_20  and  O_21
REMARK   10  A    between atoms: O_21  and  C_22
REMARK   11  A    between atoms: O_23  and  C_24
REMARK   12  A    between atoms: C_25  and  O_26
REMARK   13  A    between atoms: O_26  and  C_27
REMARK   14  A    between atoms: O_28  and  C_29
REMARK   15  A    between atoms: O_30  and  C_31
REMARK                            x       y       z     vdW  Elec       q    Type
REMARK                         _______ _______ _______ _____ _____    ______ ____
ROOT
ATOM      1  O   LIG A   1      -7.141   4.251 135.197  0.00  0.00    -0.283 OA
ATOM      2  C   LIG A   1      -7.323   4.085 134.083  0.00  0.00    +0.238 A 
ATOM      3  C   LIG A   1      -7.409   2.778 133.360  0.00  0.00    +0.113 A 
ATOM      4  C   LIG A   1      -6.323   1.933 133.150  0.00  0.00    +0.180 A 
ATOM      5  C   LIG A   1      -6.584   0.685 132.523  0.00  0.00    +0.204 A 
ATOM      6  C   LIG A   1      -7.906   0.387 132.104  0.00  0.00    +0.169 A 
ATOM      7  C   LIG A   1      -8.912   1.352 132.164  0.00  0.00    +0.096 A 
ATOM      8  C   LIG A   1      -8.647   2.549 132.772  0.00  0.00    +0.147 A 
ATOM      9  O   LIG A   1      -9.585   3.552 132.694  0.00  0.00    -0.451 OA
ATOM     10  C   LIG A   1      -9.001   4.823 132.450  0.00  0.00    +0.184 A 
ATOM     11  C   LIG A   1      -7.670   5.138 133.050  0.00  0.00    +0.211 A 
ENDROOT
BRANCH  10  12
ATOM     12  C   LIG A   1     -10.125   5.627 131.408  0.00  0.00    +0.067 A 
ATOM     13  C   LIG A   1     -11.257   6.243 131.938  0.00  0.00    +0.019 A 
ATOM     14  C   LIG A   1     -12.090   7.018 131.083  0.00  0.00    +0.050 A 
ATOM     15  C   LIG A   1     -11.836   7.230 129.696  0.00  0.00    +0.165 A 
ATOM     16  C   LIG A   1     -10.667   6.791 129.112  0.00  0.00    +0.204 A 
ATOM     17  C   LIG A   1      -9.850   6.089 130.005  0.00  0.00    +0.176 A 
BRANCH  16  18
ATOM     18  O   LIG A   1     -10.263   7.388 127.931  0.00  0.00    -0.488 OA
ATOM     19  C   LIG A   1     -10.757   7.146 126.599  0.00  0.00    +0.277 C 
ENDBRANCH  16  18
BRANCH  17  20
ATOM     20  O   LIG A   1      -8.563   6.339 129.595  0.00  0.00    -0.491 OA
ATOM     21  C   LIG A   1      -8.230   5.072 129.229  0.00  0.00    +0.277 C 
ENDBRANCH  17  20
BRANCH  15  22
ATOM     22  O   LIG A   1     -12.765   7.986 129.033  0.00  0.00    -0.491 OA
ATOM     23  C   LIG A   1     -12.779   9.366 129.398  0.00  0.00    +0.277 C 
ENDBRANCH  15  22
ENDBRANCH  10  12
BRANCH   5  24
ATOM     24  O   LIG A   1      -5.608  -0.272 132.608  0.00  0.00    -0.488 OA
ATOM     25  C   LIG A   1      -4.757  -0.471 131.475  0.00  0.00    +0.277 C 
ENDBRANCH   5  24
BRANCH  11  26
ATOM     26  O   LIG A   1      -6.550   6.250 132.908  0.00  0.00    -0.488 OA
ATOM     27  C   LIG A   1      -5.394   6.588 131.722  0.00  0.00    +0.277 C 
ENDBRANCH  11  26
BRANCH   6  28
ATOM     28  O   LIG A   1      -8.460  -0.784 131.676  0.00  0.00    -0.491 OA
ATOM     29  C   LIG A   1      -8.109  -1.305 130.423  0.00  0.00    +0.277 C 
ENDBRANCH   6  28
BRANCH   4  30
ATOM     30  O   LIG A   1      -5.101   2.379 133.591  0.00  0.00    -0.490 OA
ATOM     31  C   LIG A   1      -4.226   2.986 132.646  0.00  0.00    +0.277 C 
ENDBRANCH   4  30
TORSDOF 8
ENDMDL
MODEL 5
REMARK VINA RESULT:      -6.8      2.180      2.515
REMARK  Name = NuBBE_1875
REMARK  15 active torsions:
REMARK  status: ('A' for Active; 'I' for Inactive)
REMARK    1  A    between atoms: C_4  and  O_30
REMARK    2  A    between atoms: C_5  and  O_6
REMARK    3  A    between atoms: O_6  and  C_7
REMARK    4  A    between atoms: C_8  and  O_28
REMARK    5  A    between atoms: C_12  and  C_13
REMARK    6  A    between atoms: C_16  and  O_23
REMARK    7  A    between atoms: C_17  and  O_18
REMARK    8  A    between atoms: O_18  and  C_19
REMARK    9  A    between atoms: C_20  and  O_21
REMARK   10  A    between atoms: O_21  and  C_22
REMARK   11  A    between atoms: O_23  and  C_24
REMARK   12  A    between atoms: C_25  and  O_26
REMARK   13  A    between atoms: O_26  and  C_27
REMARK   14  A    between atoms: O_28  and  C_29
REMARK   15  A    between atoms: O_30  and  C_31
REMARK                            x       y       z     vdW  Elec       q    Type
REMARK                         _______ _______ _______ _____ _____    ______ ____
ROOT
ATOM      1  O   LIG A   1      -4.792   5.509 127.487  0.00  0.00    -0.283 OA
ATOM      2  C   LIG A   1      -5.258   4.601 127.996  0.00  0.00    +0.238 A 
ATOM      3  C   LIG A   1      -6.116   4.585 129.221  0.00  0.00    +0.113 A 
ATOM      4  C   LIG A   1      -5.648   4.870 130.502  0.00  0.00    +0.180 A 
ATOM      5  C   LIG A   1      -6.606   4.901 131.551  0.00  0.00    +0.204 A 
ATOM      6  C   LIG A   1      -7.960   4.596 131.257  0.00  0.00    +0.169 A 
ATOM      7  C   LIG A   1      -8.332   4.128 129.996  0.00  0.00    +0.096 A 
ATOM      8  C   LIG A   1      -7.400   4.106 128.995  0.00  0.00    +0.147 A 
ATOM      9  O   LIG A   1      -7.724   3.502 127.802  0.00  0.00    -0.451 OA
ATOM     10  C   LIG A   1      -6.661   2.716 127.284  0.00  0.00    +0.184 A 
ATOM     11  C   LIG A   1      -5.254   3.172 127.492  0.00  0.00    +0.211 A 
ENDROOT
BRANCH  10  12
ATOM     12  C   LIG A   1      -7.440   1.352 126.559  0.00  0.00    +0.067 A 
ATOM     13  C   LIG A   1      -7.485   0.131 127.229  0.00  0.00    +0.019 A 
ATOM     14  C   LIG A   1      -8.253  -0.934 126.679  0.00  0.00    +0.050 A 
ATOM     15  C   LIG A   1      -9.010  -0.837 125.476  0.00  0.00    +0.165 A 
ATOM     16  C   LIG A   1      -9.152   0.369 124.821  0.00  0.00    +0.204 A 
ATOM     17  C   LIG A   1      -8.432   1.401 125.432  0.00  0.00    +0.176 A 
BRANCH  16  18
ATOM     18  O   LIG A   1     -10.220   0.519 123.954  0.00  0.00    -0.488 OA
ATOM     19  C   LIG A   1     -10.211   0.461 122.514  0.00  0.00    +0.277 C 
ENDBRANCH  16  18
BRANCH  17  20
ATOM     20  O   LIG A   1      -9.158   2.542 125.194  0.00  0.00    -0.491 OA
ATOM     21  C   LIG A   1      -8.310   3.126 124.305  0.00  0.00    +0.277 C 
ENDBRANCH  17  20
BRANCH  15  22
ATOM     22  O   LIG A   1      -9.664  -1.977 125.094  0.00  0.00    -0.491 OA
ATOM     23  C   LIG A   1      -8.946  -2.792 124.167  0.00  0.00    +0.277 C 
ENDBRANCH  15  22
ENDBRANCH  10  12
BRANCH   5  24
ATOM     24  O   LIG A   1      -6.225   5.491 132.726  0.00  0.00    -0.488 OA
ATOM     25  C   LIG A   1      -6.016   4.651 133.866  0.00  0.00    +0.277 C 
ENDBRANCH   5  24
BRANCH  11  26
ATOM     26  O   LIG A   1      -3.791   2.584 127.328  0.00  0.00    -0.488 OA
ATOM     27  C   LIG A   1      -2.378   3.173 126.612  0.00  0.00    +0.277 C 
ENDBRANCH  11  26
BRANCH   6  28
ATOM     28  O   LIG A   1      -9.088   4.746 132.009  0.00  0.00    -0.491 OA
ATOM     29  C   LIG A   1      -9.667   6.014 132.152  0.00  0.00    +0.277 C 
ENDBRANCH   6  28
BRANCH   4  30
ATOM     30  O   LIG A   1      -4.303   5.117 130.625  0.00  0.00    -0.490 OA
ATOM     31  C   LIG A   1      -3.466   4.065 131.093  0.00  0.00    +0.277 C 
ENDBRANCH   4  30
TORSDOF 8
ENDMDL
MODEL 6
REMARK VINA RESULT:      -6.8      2.618      7.748
REMARK  Name = NuBBE_1875
REMARK  15 active torsions:
REMARK  status: ('A' for Active; 'I' for Inactive)
REMARK    1  A    between atoms: C_4  and  O_30
REMARK    2  A    between atoms: C_5  and  O_6
REMARK    3  A    between atoms: O_6  and  C_7
REMARK    4  A    between atoms: C_8  and  O_28
REMARK    5  A    between atoms: C_12  and  C_13
REMARK    6  A    between atoms: C_16  and  O_23
REMARK    7  A    between atoms: C_17  and  O_18
REMARK    8  A    between atoms: O_18  and  C_19
REMARK    9  A    between atoms: C_20  and  O_21
REMARK   10  A    between atoms: O_21  and  C_22
REMARK   11  A    between atoms: O_23  and  C_24
REMARK   12  A    between atoms: C_25  and  O_26
REMARK   13  A    between atoms: O_26  and  C_27
REMARK   14  A    between atoms: O_28  and  C_29
REMARK   15  A    between atoms: O_30  and  C_31
REMARK                            x       y       z     vdW  Elec       q    Type
REMARK                         _______ _______ _______ _____ _____    ______ ____
ROOT
ATOM      1  O   LIG A   1      -7.872  -1.306 129.829  0.00  0.00    -0.283 OA
ATOM      2  C   LIG A   1      -7.422  -0.813 128.905  0.00  0.00    +0.238 A 
ATOM      3  C   LIG A   1      -8.057  -0.646 127.561  0.00  0.00    +0.113 A 
ATOM      4  C   LIG A   1      -8.312  -1.698 126.685  0.00  0.00    +0.180 A 
ATOM      5  C   LIG A   1      -9.003  -1.389 125.483  0.00  0.00    +0.204 A 
ATOM      6  C   LIG A   1      -9.349  -0.040 125.214  0.00  0.00    +0.169 A 
ATOM      7  C   LIG A   1      -8.896   0.993 126.034  0.00  0.00    +0.096 A 
ATOM      8  C   LIG A   1      -8.233   0.681 127.190  0.00  0.00    +0.147 A 
ATOM      9  O   LIG A   1      -7.653   1.696 127.915  0.00  0.00    -0.451 OA
ATOM     10  C   LIG A   1      -6.367   1.347 128.405  0.00  0.00    +0.184 A 
ATOM     11  C   LIG A   1      -6.107  -0.064 128.821  0.00  0.00    +0.211 A 
ENDROOT
BRANCH  10  12
ATOM     12  C   LIG A   1      -5.449   2.810 128.300  0.00  0.00    +0.067 A 
ATOM     13  C   LIG A   1      -4.740   3.112 127.138  0.00  0.00    +0.019 A 
ATOM     14  C   LIG A   1      -4.110   4.384 127.021  0.00  0.00    +0.050 A 
ATOM     15  C   LIG A   1      -4.168   5.400 128.018  0.00  0.00    +0.165 A 
ATOM     16  C   LIG A   1      -4.966   5.257 129.134  0.00  0.00    +0.204 A 
ATOM     17  C   LIG A   1      -5.614   4.019 129.176  0.00  0.00    +0.176 A 
BRANCH  16  18
ATOM     18  O   LIG A   1      -5.339   6.400 129.820  0.00  0.00    -0.488 OA
ATOM     19  C   LIG A   1      -4.800   6.910 131.056  0.00  0.00    +0.277 C 
ENDBRANCH  16  18
BRANCH  17  20
ATOM     20  O   LIG A   1      -6.805   4.253 129.820  0.00  0.00    -0.491 OA
ATOM     21  C   LIG A   1      -6.536   3.579 130.970  0.00  0.00    +0.277 C 
ENDBRANCH  17  20
BRANCH  15  22
ATOM     22  O   LIG A   1      -3.478   6.548 127.734  0.00  0.00    -0.491 OA
ATOM     23  C   LIG A   1      -2.194   6.639 128.351  0.00  0.00    +0.277 C 
ENDBRANCH  15  22
ENDBRANCH  10  12
BRANCH   5  24
ATOM     24  O   LIG A   1      -9.541  -2.438 124.785  0.00  0.00    -0.488 OA
ATOM     25  C   LIG A   1      -8.864  -2.881 123.605  0.00  0.00    +0.277 C 
ENDBRANCH   5  24
BRANCH  11  26
ATOM     26  O   LIG A   1      -4.861  -0.968 129.195  0.00  0.00    -0.488 OA
ATOM     27  C   LIG A   1      -4.427  -2.558 128.821  0.00  0.00    +0.277 C 
ENDBRANCH  11  26
BRANCH   6  28
ATOM     28  O   LIG A   1     -10.170   0.494 124.265  0.00  0.00    -0.491 OA
ATOM     29  C   LIG A   1      -9.626   1.249 123.217  0.00  0.00    +0.277 C 
ENDBRANCH   6  28
BRANCH   4  30
ATOM     30  O   LIG A   1      -7.888  -2.944 127.080  0.00  0.00    -0.490 OA
ATOM     31  C   LIG A   1      -8.846  -3.832 127.647  0.00  0.00    +0.277 C 
ENDBRANCH   4  30
TORSDOF 8
ENDMDL
MODEL 7
REMARK VINA RESULT:      -6.7      6.220      7.934
REMARK  Name = NuBBE_1875
REMARK  15 active torsions:
REMARK  status: ('A' for Active; 'I' for Inactive)
REMARK    1  A    between atoms: C_4  and  O_30
REMARK    2  A    between atoms: C_5  and  O_6
REMARK    3  A    between atoms: O_6  and  C_7
REMARK    4  A    between atoms: C_8  and  O_28
REMARK    5  A    between atoms: C_12  and  C_13
REMARK    6  A    between atoms: C_16  and  O_23
REMARK    7  A    between atoms: C_17  and  O_18
REMARK    8  A    between atoms: O_18  and  C_19
REMARK    9  A    between atoms: C_20  and  O_21
REMARK   10  A    between atoms: O_21  and  C_22
REMARK   11  A    between atoms: O_23  and  C_24
REMARK   12  A    between atoms: C_25  and  O_26
REMARK   13  A    between atoms: O_26  and  C_27
REMARK   14  A    between atoms: O_28  and  C_29
REMARK   15  A    between atoms: O_30  and  C_31
REMARK                            x       y       z     vdW  Elec       q    Type
REMARK                         _______ _______ _______ _____ _____    ______ ____
ROOT
ATOM      1  O   LIG A   1      -8.388  -2.834 134.506  0.00  0.00    -0.283 OA
ATOM      2  C   LIG A   1      -7.603  -2.569 133.723  0.00  0.00    +0.238 A 
ATOM      3  C   LIG A   1      -6.155  -2.946 133.721  0.00  0.00    +0.113 A 
ATOM      4  C   LIG A   1      -5.217  -2.431 134.611  0.00  0.00    +0.180 A 
ATOM      5  C   LIG A   1      -3.898  -2.955 134.540  0.00  0.00    +0.204 A 
ATOM      6  C   LIG A   1      -3.595  -3.924 133.550  0.00  0.00    +0.169 A 
ATOM      7  C   LIG A   1      -4.523  -4.256 132.563  0.00  0.00    +0.096 A 
ATOM      8  C   LIG A   1      -5.790  -3.745 132.645  0.00  0.00    +0.147 A 
ATOM      9  O   LIG A   1      -6.654  -3.946 131.594  0.00  0.00    -0.451 OA
ATOM     10  C   LIG A   1      -7.413  -2.786 131.285  0.00  0.00    +0.184 A 
ATOM     11  C   LIG A   1      -7.838  -1.880 132.394  0.00  0.00    +0.211 A 
ENDROOT
BRANCH  10  12
ATOM     12  C   LIG A   1      -7.557  -2.806 129.561  0.00  0.00    +0.067 A 
ATOM     13  C   LIG A   1      -8.572  -3.542 128.950  0.00  0.00    +0.019 A 
ATOM     14  C   LIG A   1      -8.759  -3.429 127.543  0.00  0.00    +0.050 A 
ATOM     15  C   LIG A   1      -7.980  -2.588 126.697  0.00  0.00    +0.165 A 
ATOM     16  C   LIG A   1      -7.056  -1.710 127.223  0.00  0.00    +0.204 A 
ATOM     17  C   LIG A   1      -6.950  -1.810 128.614  0.00  0.00    +0.176 A 
BRANCH  16  18
ATOM     18  O   LIG A   1      -6.666  -0.631 126.449  0.00  0.00    -0.488 OA
ATOM     19  C   LIG A   1      -5.437  -0.463 125.714  0.00  0.00    +0.277 C 
ENDBRANCH  16  18
BRANCH  17  20
ATOM     20  O   LIG A   1      -6.627  -0.547 129.047  0.00  0.00    -0.491 OA
ATOM     21  C   LIG A   1      -5.360  -0.808 129.468  0.00  0.00    +0.277 C 
ENDBRANCH  17  20
BRANCH  15  22
ATOM     22  O   LIG A   1      -8.295  -2.633 125.365  0.00  0.00    -0.491 OA
ATOM     23  C   LIG A   1      -7.620  -3.654 124.629  0.00  0.00    +0.277 C 
ENDBRANCH  15  22
ENDBRANCH  10  12
BRANCH   5  24
ATOM     24  O   LIG A   1      -3.069  -2.705 135.601  0.00  0.00    -0.488 OA
ATOM     25  C   LIG A   1      -1.991  -1.784 135.412  0.00  0.00    +0.277 C 
ENDBRANCH   5  24
BRANCH  11  26
ATOM     26  O   LIG A   1      -8.460  -0.432 132.555  0.00  0.00    -0.488 OA
ATOM     27  C   LIG A   1      -9.012   0.724 131.452  0.00  0.00    +0.277 C 
ENDBRANCH  11  26
BRANCH   6  28
ATOM     28  O   LIG A   1      -2.499  -4.722 133.393  0.00  0.00    -0.491 OA
ATOM     29  C   LIG A   1      -2.390  -5.909 134.128  0.00  0.00    +0.277 C 
ENDBRANCH   6  28
BRANCH   4  30
ATOM     30  O   LIG A   1      -5.663  -1.476 135.493  0.00  0.00    -0.490 OA
ATOM     31  C   LIG A   1      -5.442  -0.107 135.170  0.00  0.00    +0.277 C 
ENDBRANCH   4  30
TORSDOF 8
ENDMDL
MODEL 8
REMARK VINA RESULT:      -6.7      3.719      6.035
REMARK  Name = NuBBE_1875
REMARK  15 active torsions:
REMARK  status: ('A' for Active; 'I' for Inactive)
REMARK    1  A    between atoms: C_4  and  O_30
REMARK    2  A    between atoms: C_5  and  O_6
REMARK    3  A    between atoms: O_6  and  C_7
REMARK    4  A    between atoms: C_8  and  O_28
REMARK    5  A    between atoms: C_12  and  C_13
REMARK    6  A    between atoms: C_16  and  O_23
REMARK    7  A    between atoms: C_17  and  O_18
REMARK    8  A    between atoms: O_18  and  C_19
REMARK    9  A    between atoms: C_20  and  O_21
REMARK   10  A    between atoms: O_21  and  C_22
REMARK   11  A    between atoms: O_23  and  C_24
REMARK   12  A    between atoms: C_25  and  O_26
REMARK   13  A    between atoms: O_26  and  C_27
REMARK   14  A    between atoms: O_28  and  C_29
REMARK   15  A    between atoms: O_30  and  C_31
REMARK                            x       y       z     vdW  Elec       q    Type
REMARK                         _______ _______ _______ _____ _____    ______ ____
ROOT
ATOM      1  O   LIG A   1     -10.143  -0.035 125.442  0.00  0.00    -0.283 OA
ATOM      2  C   LIG A   1      -9.114   0.116 125.911  0.00  0.00    +0.238 A 
ATOM      3  C   LIG A   1      -8.517   1.396 126.402  0.00  0.00    +0.113 A 
ATOM      4  C   LIG A   1      -8.118   2.438 125.569  0.00  0.00    +0.180 A 
ATOM      5  C   LIG A   1      -7.651   3.625 126.194  0.00  0.00    +0.204 A 
ATOM      6  C   LIG A   1      -7.567   3.673 127.609  0.00  0.00    +0.169 A 
ATOM      7  C   LIG A   1      -7.793   2.532 128.379  0.00  0.00    +0.096 A 
ATOM      8  C   LIG A   1      -8.245   1.396 127.764  0.00  0.00    +0.147 A 
ATOM      9  O   LIG A   1      -8.319   0.233 128.496  0.00  0.00    -0.451 OA
ATOM     10  C   LIG A   1      -7.865  -0.897 127.766  0.00  0.00    +0.184 A 
ATOM     11  C   LIG A   1      -8.122  -0.963 126.296  0.00  0.00    +0.211 A 
ENDROOT
BRANCH  10  12
ATOM     12  C   LIG A   1      -7.059  -1.880 128.941  0.00  0.00    +0.067 A 
ATOM     13  C   LIG A   1      -7.410  -3.220 129.095  0.00  0.00    +0.019 A 
ATOM     14  C   LIG A   1      -6.639  -4.043 129.963  0.00  0.00    +0.050 A 
ATOM     15  C   LIG A   1      -5.498  -3.593 130.689  0.00  0.00    +0.165 A 
ATOM     16  C   LIG A   1      -4.981  -2.330 130.489  0.00  0.00    +0.204 A 
ATOM     17  C   LIG A   1      -5.734  -1.578 129.581  0.00  0.00    +0.176 A 
BRANCH  16  18
ATOM     18  O   LIG A   1      -3.665  -2.099 130.848  0.00  0.00    -0.488 OA
ATOM     19  C   LIG A   1      -3.157  -1.647 132.120  0.00  0.00    +0.277 C 
ENDBRANCH  16  18
BRANCH  17  20
ATOM     20  O   LIG A   1      -4.832  -0.751 128.956  0.00  0.00    -0.491 OA
ATOM     21  C   LIG A   1      -5.084   0.379 129.669  0.00  0.00    +0.277 C 
ENDBRANCH  17  20
BRANCH  15  22
ATOM     22  O   LIG A   1      -4.901  -4.527 131.492  0.00  0.00    -0.491 OA
ATOM     23  C   LIG A   1      -5.472  -4.642 132.796  0.00  0.00    +0.277 C 
ENDBRANCH  15  22
ENDBRANCH  10  12
BRANCH   5  24
ATOM     24  O   LIG A   1      -7.572   4.750 125.416  0.00  0.00    -0.488 OA
ATOM     25  C   LIG A   1      -6.273   5.235 125.061  0.00  0.00    +0.277 C 
ENDBRANCH   5  24
BRANCH  11  26
ATOM     26  O   LIG A   1      -7.655  -1.836 125.059  0.00  0.00    -0.488 OA
ATOM     27  C   LIG A   1      -8.110  -3.355 124.473  0.00  0.00    +0.277 C 
ENDBRANCH  11  26
BRANCH   6  28
ATOM     28  O   LIG A   1      -7.354   4.725 128.452  0.00  0.00    -0.491 OA
ATOM     29  C   LIG A   1      -6.480   4.583 129.537  0.00  0.00    +0.277 C 
ENDBRANCH   6  28
BRANCH   4  30
ATOM     30  O   LIG A   1      -8.237   2.226 124.217  0.00  0.00    -0.490 OA
ATOM     31  C   LIG A   1      -7.080   1.815 123.497  0.00  0.00    +0.277 C 
ENDBRANCH   4  30
TORSDOF 8
ENDMDL
MODEL 9
REMARK VINA RESULT:      -6.6      1.599      2.282
REMARK  Name = NuBBE_1875
REMARK  15 active torsions:
REMARK  status: ('A' for Active; 'I' for Inactive)
REMARK    1  A    between atoms: C_4  and  O_30
REMARK    2  A    between atoms: C_5  and  O_6
REMARK    3  A    between atoms: O_6  and  C_7
REMARK    4  A    between atoms: C_8  and  O_28
REMARK    5  A    between atoms: C_12  and  C_13
REMARK    6  A    between atoms: C_16  and  O_23
REMARK    7  A    between atoms: C_17  and  O_18
REMARK    8  A    between atoms: O_18  and  C_19
REMARK    9  A    between atoms: C_20  and  O_21
REMARK   10  A    between atoms: O_21  and  C_22
REMARK   11  A    between atoms: O_23  and  C_24
REMARK   12  A    between atoms: C_25  and  O_26
REMARK   13  A    between atoms: O_26  and  C_27
REMARK   14  A    between atoms: O_28  and  C_29
REMARK   15  A    between atoms: O_30  and  C_31
REMARK                            x       y       z     vdW  Elec       q    Type
REMARK                         _______ _______ _______ _____ _____    ______ ____
ROOT
ATOM      1  O   LIG A   1      -5.064   5.342 126.647  0.00  0.00    -0.283 OA
ATOM      2  C   LIG A   1      -5.377   4.362 127.138  0.00  0.00    +0.238 A 
ATOM      3  C   LIG A   1      -6.221   4.184 128.361  0.00  0.00    +0.113 A 
ATOM      4  C   LIG A   1      -5.805   4.516 129.647  0.00  0.00    +0.180 A 
ATOM      5  C   LIG A   1      -6.754   4.372 130.694  0.00  0.00    +0.204 A 
ATOM      6  C   LIG A   1      -8.041   3.859 130.391  0.00  0.00    +0.169 A 
ATOM      7  C   LIG A   1      -8.334   3.362 129.121  0.00  0.00    +0.096 A 
ATOM      8  C   LIG A   1      -7.411   3.509 128.122  0.00  0.00    +0.147 A 
ATOM      9  O   LIG A   1      -7.635   2.884 126.917  0.00  0.00    -0.451 OA
ATOM     10  C   LIG A   1      -6.459   2.289 126.387  0.00  0.00    +0.184 A 
ATOM     11  C   LIG A   1      -5.143   2.962 126.608  0.00  0.00    +0.211 A 
ENDROOT
BRANCH  10  12
ATOM     12  C   LIG A   1      -7.008   0.832 125.634  0.00  0.00    +0.067 A 
ATOM     13  C   LIG A   1      -6.880   0.661 124.256  0.00  0.00    +0.019 A 
ATOM     14  C   LIG A   1      -7.206  -0.599 123.680  0.00  0.00    +0.050 A 
ATOM     15  C   LIG A   1      -7.647  -1.730 124.426  0.00  0.00    +0.165 A 
ATOM     16  C   LIG A   1      -7.662  -1.711 125.805  0.00  0.00    +0.204 A 
ATOM     17  C   LIG A   1      -7.274  -0.474 126.330  0.00  0.00    +0.176 A 
BRANCH  16  18
ATOM     18  O   LIG A   1      -7.654  -2.921 126.475  0.00  0.00    -0.488 OA
ATOM     19  C   LIG A   1      -8.769  -3.615 127.070  0.00  0.00    +0.277 C 
ENDBRANCH  16  18
BRANCH  17  20
ATOM     20  O   LIG A   1      -6.663  -0.760 127.526  0.00  0.00    -0.491 OA
ATOM     21  C   LIG A   1      -7.634  -0.290 128.354  0.00  0.00    +0.277 C 
ENDBRANCH  17  20
BRANCH  15  22
ATOM     22  O   LIG A   1      -7.935  -2.848 123.691  0.00  0.00    -0.491 OA
ATOM     23  C   LIG A   1      -9.318  -3.013 123.377  0.00  0.00    +0.277 C 
ENDBRANCH  15  22
ENDBRANCH  10  12
BRANCH   5  24
ATOM     24  O   LIG A   1      -6.473   4.993 131.882  0.00  0.00    -0.488 OA
ATOM     25  C   LIG A   1      -6.168   4.175 133.015  0.00  0.00    +0.277 C 
ENDBRANCH   5  24
BRANCH  11  26
ATOM     26  O   LIG A   1      -3.606   2.620 126.436  0.00  0.00    -0.488 OA
ATOM     27  C   LIG A   1      -2.185   3.360 126.975  0.00  0.00    +0.277 C 
ENDBRANCH  11  26
BRANCH   6  28
ATOM     28  O   LIG A   1      -9.179   3.812 131.143  0.00  0.00    -0.491 OA
ATOM     29  C   LIG A   1     -10.420   4.072 130.547  0.00  0.00    +0.277 C 
ENDBRANCH   6  28
BRANCH   4  30
ATOM     30  O   LIG A   1      -4.516   4.974 129.779  0.00  0.00    -0.490 OA
ATOM     31  C   LIG A   1      -3.540   4.090 130.320  0.00  0.00    +0.277 C 
ENDBRANCH   4  30
TORSDOF 8
ENDMDL
