MODEL 1
REMARK VINA RESULT:      -6.2      0.000      0.000
REMARK  Name = NuBBE_2053
REMARK  6 active torsions:
REMARK  status: ('A' for Active; 'I' for Inactive)
REMARK    1  A    between atoms: O_1  and  C_2
REMARK    2  A    between atoms: O_1  and  C_3
REMARK    3  A    between atoms: C_6  and  O_11
REMARK    4  A    between atoms: C_8  and  O_9
REMARK    5  A    between atoms: O_9  and  C_10
REMARK    6  A    between atoms: C_15  and  C_17
REMARK                            x       y       z     vdW  Elec       q    Type
REMARK                         _______ _______ _______ _____ _____    ______ ____
ROOT
ATOM      1  C   LIG A   1     -10.944   7.501 128.567  0.00  0.00    +0.205 A 
ATOM      2  C   LIG A   1     -10.246   6.388 129.070  0.00  0.00    +0.187 A 
ATOM      3  C   LIG A   1     -10.565   5.876 130.328  0.00  0.00    +0.109 A 
ATOM      4  C   LIG A   1     -11.582   6.455 131.083  0.00  0.00    +0.135 A 
ATOM      5  C   LIG A   1     -12.270   7.560 130.599  0.00  0.00    +0.095 A 
ATOM      6  C   LIG A   1     -11.946   8.109 129.349  0.00  0.00    +0.169 A 
ATOM      7  C   LIG A   1      -9.815   4.709 130.820  0.00  0.00    +0.196 A 
ATOM      8  O   LIG A   1     -10.055   4.217 131.918  0.00  0.00    -0.287 OA
ATOM      9  C   LIG A   1      -8.777   4.162 129.949  0.00  0.00    +0.093 A 
ATOM     10  C   LIG A   1      -8.554   4.743 128.760  0.00  0.00    +0.106 A 
ATOM     11  O   LIG A   1      -9.259   5.836 128.288  0.00  0.00    -0.456 OA
ATOM     12  C   LIG A   1      -7.518   4.241 127.801  0.00  0.00    +0.086 C 
ENDROOT
BRANCH   1  13
ATOM     13  O   LIG A   1     -10.500   7.959 127.347  0.00  0.00    -0.488 OA
ATOM     14  C   LIG A   1     -11.265   7.577 126.210  0.00  0.00    +0.277 C 
ENDBRANCH   1  13
BRANCH   6  15
ATOM     15  O   LIG A   1     -12.584   9.213 128.848  0.00  0.00    -0.491 OA
ATOM     16  C   LIG A   1     -13.120  10.123 129.804  0.00  0.00    +0.277 C 
ENDBRANCH   6  15
BRANCH   4  17
ATOM     17  O   LIG A   1     -11.946   5.997 132.322  0.00  0.00    -0.506 OA
ATOM     18  H   LIG A   1     -12.888   5.716 132.284  0.00  0.00    +0.292 HD
ENDBRANCH   4  17
TORSDOF 3
ENDMDL
MODEL 2
REMARK VINA RESULT:      -5.8      1.444      4.442
REMARK  Name = NuBBE_2053
REMARK  6 active torsions:
REMARK  status: ('A' for Active; 'I' for Inactive)
REMARK    1  A    between atoms: O_1  and  C_2
REMARK    2  A    between atoms: O_1  and  C_3
REMARK    3  A    between atoms: C_6  and  O_11
REMARK    4  A    between atoms: C_8  and  O_9
REMARK    5  A    between atoms: O_9  and  C_10
REMARK    6  A    between atoms: C_15  and  C_17
REMARK                            x       y       z     vdW  Elec       q    Type
REMARK                         _______ _______ _______ _____ _____    ______ ____
ROOT
ATOM      1  C   LIG A   1      -8.805   5.404 129.701  0.00  0.00    +0.205 A 
ATOM      2  C   LIG A   1      -9.932   6.119 129.254  0.00  0.00    +0.187 A 
ATOM      3  C   LIG A   1     -11.006   6.337 130.116  0.00  0.00    +0.109 A 
ATOM      4  C   LIG A   1     -10.963   5.862 131.425  0.00  0.00    +0.135 A 
ATOM      5  C   LIG A   1      -9.859   5.147 131.873  0.00  0.00    +0.095 A 
ATOM      6  C   LIG A   1      -8.780   4.891 131.013  0.00  0.00    +0.169 A 
ATOM      7  C   LIG A   1     -12.166   7.091 129.614  0.00  0.00    +0.196 A 
ATOM      8  O   LIG A   1     -13.138   7.314 130.329  0.00  0.00    -0.287 OA
ATOM      9  C   LIG A   1     -12.112   7.563 128.231  0.00  0.00    +0.093 A 
ATOM     10  C   LIG A   1     -11.026   7.287 127.493  0.00  0.00    +0.106 A 
ATOM     11  O   LIG A   1      -9.930   6.584 127.960  0.00  0.00    -0.456 OA
ATOM     12  C   LIG A   1     -10.884   7.741 126.071  0.00  0.00    +0.086 C 
ENDROOT
BRANCH   1  13
ATOM     13  O   LIG A   1      -7.837   5.194 128.746  0.00  0.00    -0.488 OA
ATOM     14  C   LIG A   1      -7.885   3.950 128.058  0.00  0.00    +0.277 C 
ENDBRANCH   1  13
BRANCH   6  15
ATOM     15  O   LIG A   1      -7.684   4.169 131.410  0.00  0.00    -0.491 OA
ATOM     16  C   LIG A   1      -7.884   2.772 131.604  0.00  0.00    +0.277 C 
ENDBRANCH   6  15
BRANCH   4  17
ATOM     17  O   LIG A   1     -11.982   6.047 132.321  0.00  0.00    -0.506 OA
ATOM     18  H   LIG A   1     -11.856   6.919 132.758  0.00  0.00    +0.292 HD
ENDBRANCH   4  17
TORSDOF 3
ENDMDL
MODEL 3
REMARK VINA RESULT:      -5.6      2.260      5.334
REMARK  Name = NuBBE_2053
REMARK  6 active torsions:
REMARK  status: ('A' for Active; 'I' for Inactive)
REMARK    1  A    between atoms: O_1  and  C_2
REMARK    2  A    between atoms: O_1  and  C_3
REMARK    3  A    between atoms: C_6  and  O_11
REMARK    4  A    between atoms: C_8  and  O_9
REMARK    5  A    between atoms: O_9  and  C_10
REMARK    6  A    between atoms: C_15  and  C_17
REMARK                            x       y       z     vdW  Elec       q    Type
REMARK                         _______ _______ _______ _____ _____    ______ ____
ROOT
ATOM      1  C   LIG A   1      -9.175   2.932 129.945  0.00  0.00    +0.205 A 
ATOM      2  C   LIG A   1      -9.607   4.247 130.196  0.00  0.00    +0.187 A 
ATOM      3  C   LIG A   1      -9.798   4.680 131.508  0.00  0.00    +0.109 A 
ATOM      4  C   LIG A   1      -9.548   3.819 132.574  0.00  0.00    +0.135 A 
ATOM      5  C   LIG A   1      -9.131   2.515 132.336  0.00  0.00    +0.095 A 
ATOM      6  C   LIG A   1      -8.961   2.050 131.023  0.00  0.00    +0.169 A 
ATOM      7  C   LIG A   1     -10.248   6.064 131.732  0.00  0.00    +0.196 A 
ATOM      8  O   LIG A   1     -10.431   6.498 132.865  0.00  0.00    -0.287 OA
ATOM      9  C   LIG A   1     -10.468   6.897 130.551  0.00  0.00    +0.093 A 
ATOM     10  C   LIG A   1     -10.258   6.369 129.335  0.00  0.00    +0.106 A 
ATOM     11  O   LIG A   1      -9.829   5.072 129.118  0.00  0.00    -0.456 OA
ATOM     12  C   LIG A   1     -10.449   7.154 128.073  0.00  0.00    +0.086 C 
ENDROOT
BRANCH   1  13
ATOM     13  O   LIG A   1      -9.085   2.597 128.614  0.00  0.00    -0.488 OA
ATOM     14  C   LIG A   1      -7.785   2.629 128.038  0.00  0.00    +0.277 C 
ENDBRANCH   1  13
BRANCH   6  15
ATOM     15  O   LIG A   1      -8.574   0.765 130.747  0.00  0.00    -0.491 OA
ATOM     16  C   LIG A   1      -8.724  -0.181 131.801  0.00  0.00    +0.277 C 
ENDBRANCH   6  15
BRANCH   4  17
ATOM     17  O   LIG A   1      -9.711   4.185 133.884  0.00  0.00    -0.506 OA
ATOM     18  H   LIG A   1      -8.969   3.807 134.406  0.00  0.00    +0.292 HD
ENDBRANCH   4  17
TORSDOF 3
ENDMDL
MODEL 4
REMARK VINA RESULT:      -5.6      6.548      9.140
REMARK  Name = NuBBE_2053
REMARK  6 active torsions:
REMARK  status: ('A' for Active; 'I' for Inactive)
REMARK    1  A    between atoms: O_1  and  C_2
REMARK    2  A    between atoms: O_1  and  C_3
REMARK    3  A    between atoms: C_6  and  O_11
REMARK    4  A    between atoms: C_8  and  O_9
REMARK    5  A    between atoms: O_9  and  C_10
REMARK    6  A    between atoms: C_15  and  C_17
REMARK                            x       y       z     vdW  Elec       q    Type
REMARK                         _______ _______ _______ _____ _____    ______ ____
ROOT
ATOM      1  C   LIG A   1      -7.126   1.465 124.208  0.00  0.00    +0.205 A 
ATOM      2  C   LIG A   1      -7.426   0.109 123.988  0.00  0.00    +0.187 A 
ATOM      3  C   LIG A   1      -8.678  -0.258 123.497  0.00  0.00    +0.109 A 
ATOM      4  C   LIG A   1      -9.632   0.717 123.210  0.00  0.00    +0.135 A 
ATOM      5  C   LIG A   1      -9.349   2.058 123.434  0.00  0.00    +0.095 A 
ATOM      6  C   LIG A   1      -8.105   2.446 123.955  0.00  0.00    +0.169 A 
ATOM      7  C   LIG A   1      -8.955  -1.687 123.276  0.00  0.00    +0.196 A 
ATOM      8  O   LIG A   1     -10.039  -2.066 122.844  0.00  0.00    -0.287 OA
ATOM      9  C   LIG A   1      -7.886  -2.633 123.591  0.00  0.00    +0.093 A 
ATOM     10  C   LIG A   1      -6.722  -2.164 124.065  0.00  0.00    +0.106 A 
ATOM     11  O   LIG A   1      -6.453  -0.822 124.269  0.00  0.00    -0.456 OA
ATOM     12  C   LIG A   1      -5.571  -3.062 124.404  0.00  0.00    +0.086 C 
ENDROOT
BRANCH   1  13
ATOM     13  O   LIG A   1      -5.886   1.703 124.755  0.00  0.00    -0.488 OA
ATOM     14  C   LIG A   1      -5.814   1.730 126.176  0.00  0.00    +0.277 C 
ENDBRANCH   1  13
BRANCH   6  15
ATOM     15  O   LIG A   1      -7.798   3.757 124.212  0.00  0.00    -0.491 OA
ATOM     16  C   LIG A   1      -8.243   4.278 125.460  0.00  0.00    +0.277 C 
ENDBRANCH   6  15
BRANCH   4  17
ATOM     17  O   LIG A   1     -10.878   0.422 122.721  0.00  0.00    -0.506 OA
ATOM     18  H   LIG A   1     -10.967   0.834 121.833  0.00  0.00    +0.292 HD
ENDBRANCH   4  17
TORSDOF 3
ENDMDL
MODEL 5
REMARK VINA RESULT:      -5.5      7.602     10.653
REMARK  Name = NuBBE_2053
REMARK  6 active torsions:
REMARK  status: ('A' for Active; 'I' for Inactive)
REMARK    1  A    between atoms: O_1  and  C_2
REMARK    2  A    between atoms: O_1  and  C_3
REMARK    3  A    between atoms: C_6  and  O_11
REMARK    4  A    between atoms: C_8  and  O_9
REMARK    5  A    between atoms: O_9  and  C_10
REMARK    6  A    between atoms: C_15  and  C_17
REMARK                            x       y       z     vdW  Elec       q    Type
REMARK                         _______ _______ _______ _____ _____    ______ ____
ROOT
ATOM      1  C   LIG A   1      -6.615  -1.032 124.601  0.00  0.00    +0.205 A 
ATOM      2  C   LIG A   1      -7.563  -0.085 124.172  0.00  0.00    +0.187 A 
ATOM      3  C   LIG A   1      -8.737  -0.508 123.548  0.00  0.00    +0.109 A 
ATOM      4  C   LIG A   1      -8.981  -1.867 123.359  0.00  0.00    +0.135 A 
ATOM      5  C   LIG A   1      -8.046  -2.808 123.770  0.00  0.00    +0.095 A 
ATOM      6  C   LIG A   1      -6.845  -2.403 124.374  0.00  0.00    +0.169 A 
ATOM      7  C   LIG A   1      -9.707   0.511 123.115  0.00  0.00    +0.196 A 
ATOM      8  O   LIG A   1     -10.756   0.196 122.562  0.00  0.00    -0.287 OA
ATOM      9  C   LIG A   1      -9.370   1.910 123.370  0.00  0.00    +0.093 A 
ATOM     10  C   LIG A   1      -8.206   2.198 123.974  0.00  0.00    +0.106 A 
ATOM     11  O   LIG A   1      -7.293   1.245 124.389  0.00  0.00    -0.456 OA
ATOM     12  C   LIG A   1      -7.787   3.603 124.284  0.00  0.00    +0.086 C 
ENDROOT
BRANCH   1  13
ATOM     13  O   LIG A   1      -5.469  -0.497 125.143  0.00  0.00    -0.488 OA
ATOM     14  C   LIG A   1      -5.393  -0.466 126.563  0.00  0.00    +0.277 C 
ENDBRANCH   1  13
BRANCH   6  15
ATOM     15  O   LIG A   1      -5.888  -3.300 124.771  0.00  0.00    -0.491 OA
ATOM     16  C   LIG A   1      -4.948  -3.702 123.780  0.00  0.00    +0.277 C 
ENDBRANCH   6  15
BRANCH   4  17
ATOM     17  O   LIG A   1     -10.115  -2.346 122.758  0.00  0.00    -0.506 OA
ATOM     18  H   LIG A   1      -9.900  -2.569 121.825  0.00  0.00    +0.292 HD
ENDBRANCH   4  17
TORSDOF 3
ENDMDL
MODEL 6
REMARK VINA RESULT:      -5.4      6.346      8.790
REMARK  Name = NuBBE_2053
REMARK  6 active torsions:
REMARK  status: ('A' for Active; 'I' for Inactive)
REMARK    1  A    between atoms: O_1  and  C_2
REMARK    2  A    between atoms: O_1  and  C_3
REMARK    3  A    between atoms: C_6  and  O_11
REMARK    4  A    between atoms: C_8  and  O_9
REMARK    5  A    between atoms: O_9  and  C_10
REMARK    6  A    between atoms: C_15  and  C_17
REMARK                            x       y       z     vdW  Elec       q    Type
REMARK                         _______ _______ _______ _____ _____    ______ ____
ROOT
ATOM      1  C   LIG A   1      -8.633   0.943 126.137  0.00  0.00    +0.205 A 
ATOM      2  C   LIG A   1      -8.723  -0.455 126.008  0.00  0.00    +0.187 A 
ATOM      3  C   LIG A   1      -9.154  -1.019 124.808  0.00  0.00    +0.109 A 
ATOM      4  C   LIG A   1      -9.485  -0.202 123.729  0.00  0.00    +0.135 A 
ATOM      5  C   LIG A   1      -9.408   1.179 123.849  0.00  0.00    +0.095 A 
ATOM      6  C   LIG A   1      -9.004   1.768 125.057  0.00  0.00    +0.169 A 
ATOM      7  C   LIG A   1      -9.233  -2.485 124.710  0.00  0.00    +0.196 A 
ATOM      8  O   LIG A   1      -9.605  -3.035 123.678  0.00  0.00    -0.287 OA
ATOM      9  C   LIG A   1      -8.851  -3.258 125.891  0.00  0.00    +0.093 A 
ATOM     10  C   LIG A   1      -8.456  -2.605 126.995  0.00  0.00    +0.106 A 
ATOM     11  O   LIG A   1      -8.374  -1.227 127.092  0.00  0.00    -0.456 OA
ATOM     12  C   LIG A   1      -8.037  -3.318 128.245  0.00  0.00    +0.086 C 
ENDROOT
BRANCH   1  13
ATOM     13  O   LIG A   1      -8.259   1.386 127.385  0.00  0.00    -0.488 OA
ATOM     14  C   LIG A   1      -6.875   1.653 127.575  0.00  0.00    +0.277 C 
ENDBRANCH   1  13
BRANCH   6  15
ATOM     15  O   LIG A   1      -8.940   3.127 125.222  0.00  0.00    -0.491 OA
ATOM     16  C   LIG A   1      -7.781   3.773 124.706  0.00  0.00    +0.277 C 
ENDBRANCH   6  15
BRANCH   4  17
ATOM     17  O   LIG A   1      -9.910  -0.694 122.523  0.00  0.00    -0.506 OA
ATOM     18  H   LIG A   1      -9.136  -0.744 121.918  0.00  0.00    +0.292 HD
ENDBRANCH   4  17
TORSDOF 3
ENDMDL
MODEL 7
REMARK VINA RESULT:      -5.4      7.058      9.804
REMARK  Name = NuBBE_2053
REMARK  6 active torsions:
REMARK  status: ('A' for Active; 'I' for Inactive)
REMARK    1  A    between atoms: O_1  and  C_2
REMARK    2  A    between atoms: O_1  and  C_3
REMARK    3  A    between atoms: C_6  and  O_11
REMARK    4  A    between atoms: C_8  and  O_9
REMARK    5  A    between atoms: O_9  and  C_10
REMARK    6  A    between atoms: C_15  and  C_17
REMARK                            x       y       z     vdW  Elec       q    Type
REMARK                         _______ _______ _______ _____ _____    ______ ____
ROOT
ATOM      1  C   LIG A   1      -7.760  -0.915 126.675  0.00  0.00    +0.205 A 
ATOM      2  C   LIG A   1      -8.250  -0.245 125.539  0.00  0.00    +0.187 A 
ATOM      3  C   LIG A   1      -8.952  -0.950 124.563  0.00  0.00    +0.109 A 
ATOM      4  C   LIG A   1      -9.184  -2.315 124.714  0.00  0.00    +0.135 A 
ATOM      5  C   LIG A   1      -8.696  -2.988 125.827  0.00  0.00    +0.095 A 
ATOM      6  C   LIG A   1      -7.961  -2.303 126.807  0.00  0.00    +0.169 A 
ATOM      7  C   LIG A   1      -9.452  -0.214 123.390  0.00  0.00    +0.196 A 
ATOM      8  O   LIG A   1     -10.077  -0.784 122.501  0.00  0.00    -0.287 OA
ATOM      9  C   LIG A   1      -9.173   1.219 123.328  0.00  0.00    +0.093 A 
ATOM     10  C   LIG A   1      -8.481   1.790 124.326  0.00  0.00    +0.106 A 
ATOM     11  O   LIG A   1      -8.013   1.106 125.434  0.00  0.00    -0.456 OA
ATOM     12  C   LIG A   1      -8.160   3.254 124.348  0.00  0.00    +0.086 C 
ENDROOT
BRANCH   1  13
ATOM     13  O   LIG A   1      -7.027  -0.132 127.537  0.00  0.00    -0.488 OA
ATOM     14  C   LIG A   1      -7.715   0.377 128.673  0.00  0.00    +0.277 C 
ENDBRANCH   1  13
BRANCH   6  15
ATOM     15  O   LIG A   1      -7.443  -2.936 127.907  0.00  0.00    -0.491 OA
ATOM     16  C   LIG A   1      -8.374  -3.322 128.913  0.00  0.00    +0.277 C 
ENDBRANCH   6  15
BRANCH   4  17
ATOM     17  O   LIG A   1      -9.871  -3.063 123.794  0.00  0.00    -0.506 OA
ATOM     18  H   LIG A   1     -10.690  -2.577 123.549  0.00  0.00    +0.292 HD
ENDBRANCH   4  17
TORSDOF 3
ENDMDL
MODEL 8
REMARK VINA RESULT:      -5.3      6.703      9.444
REMARK  Name = NuBBE_2053
REMARK  6 active torsions:
REMARK  status: ('A' for Active; 'I' for Inactive)
REMARK    1  A    between atoms: O_1  and  C_2
REMARK    2  A    between atoms: O_1  and  C_3
REMARK    3  A    between atoms: C_6  and  O_11
REMARK    4  A    between atoms: C_8  and  O_9
REMARK    5  A    between atoms: O_9  and  C_10
REMARK    6  A    between atoms: C_15  and  C_17
REMARK                            x       y       z     vdW  Elec       q    Type
REMARK                         _______ _______ _______ _____ _____    ______ ____
ROOT
ATOM      1  C   LIG A   1      -7.602  -0.733 123.757  0.00  0.00    +0.205 A 
ATOM      2  C   LIG A   1      -7.531   0.672 123.738  0.00  0.00    +0.187 A 
ATOM      3  C   LIG A   1      -8.128   1.415 124.755  0.00  0.00    +0.109 A 
ATOM      4  C   LIG A   1      -8.785   0.770 125.801  0.00  0.00    +0.135 A 
ATOM      5  C   LIG A   1      -8.870  -0.617 125.824  0.00  0.00    +0.095 A 
ATOM      6  C   LIG A   1      -8.301  -1.382 124.795  0.00  0.00    +0.169 A 
ATOM      7  C   LIG A   1      -8.030   2.882 124.702  0.00  0.00    +0.196 A 
ATOM      8  O   LIG A   1      -8.536   3.585 125.572  0.00  0.00    -0.287 OA
ATOM      9  C   LIG A   1      -7.307   3.466 123.575  0.00  0.00    +0.093 A 
ATOM     10  C   LIG A   1      -6.778   2.650 122.650  0.00  0.00    +0.106 A 
ATOM     11  O   LIG A   1      -6.861   1.270 122.696  0.00  0.00    -0.456 OA
ATOM     12  C   LIG A   1      -6.012   3.163 121.468  0.00  0.00    +0.086 C 
ENDROOT
BRANCH   1  13
ATOM     13  O   LIG A   1      -7.035  -1.357 122.670  0.00  0.00    -0.488 OA
ATOM     14  C   LIG A   1      -5.891  -2.162 122.926  0.00  0.00    +0.277 C 
ENDBRANCH   1  13
BRANCH   6  15
ATOM     15  O   LIG A   1      -8.384  -2.750 124.769  0.00  0.00    -0.491 OA
ATOM     16  C   LIG A   1      -9.388  -3.307 123.926  0.00  0.00    +0.277 C 
ENDBRANCH   6  15
BRANCH   4  17
ATOM     17  O   LIG A   1      -9.387   1.441 126.832  0.00  0.00    -0.506 OA
ATOM     18  H   LIG A   1      -8.711   1.619 127.523  0.00  0.00    +0.292 HD
ENDBRANCH   4  17
TORSDOF 3
ENDMDL
MODEL 9
REMARK VINA RESULT:      -5.2      6.833      8.237
REMARK  Name = NuBBE_2053
REMARK  6 active torsions:
REMARK  status: ('A' for Active; 'I' for Inactive)
REMARK    1  A    between atoms: O_1  and  C_2
REMARK    2  A    between atoms: O_1  and  C_3
REMARK    3  A    between atoms: C_6  and  O_11
REMARK    4  A    between atoms: C_8  and  O_9
REMARK    5  A    between atoms: O_9  and  C_10
REMARK    6  A    between atoms: C_15  and  C_17
REMARK                            x       y       z     vdW  Elec       q    Type
REMARK                         _______ _______ _______ _____ _____    ______ ____
ROOT
ATOM      1  C   LIG A   1      -6.275   3.248 124.405  0.00  0.00    +0.205 A 
ATOM      2  C   LIG A   1      -7.323   2.457 124.910  0.00  0.00    +0.187 A 
ATOM      3  C   LIG A   1      -8.416   2.149 124.101  0.00  0.00    +0.109 A 
ATOM      4  C   LIG A   1      -8.469   2.611 122.788  0.00  0.00    +0.135 A 
ATOM      5  C   LIG A   1      -7.443   3.401 122.283  0.00  0.00    +0.095 A 
ATOM      6  C   LIG A   1      -6.348   3.747 123.089  0.00  0.00    +0.169 A 
ATOM      7  C   LIG A   1      -9.492   1.317 124.663  0.00  0.00    +0.196 A 
ATOM      8  O   LIG A   1     -10.476   1.014 123.995  0.00  0.00    -0.287 OA
ATOM      9  C   LIG A   1      -9.340   0.866 126.045  0.00  0.00    +0.093 A 
ATOM     10  C   LIG A   1      -8.245   1.231 126.730  0.00  0.00    +0.106 A 
ATOM     11  O   LIG A   1      -7.227   2.009 126.206  0.00  0.00    -0.456 OA
ATOM     12  C   LIG A   1      -8.003   0.806 128.147  0.00  0.00    +0.086 C 
ENDROOT
BRANCH   1  13
ATOM     13  O   LIG A   1      -5.282   3.542 125.312  0.00  0.00    -0.488 OA
ATOM     14  C   LIG A   1      -5.407   4.773 126.013  0.00  0.00    +0.277 C 
ENDBRANCH   1  13
BRANCH   6  15
ATOM     15  O   LIG A   1      -5.329   4.544 122.636  0.00  0.00    -0.491 OA
ATOM     16  C   LIG A   1      -5.027   4.455 121.247  0.00  0.00    +0.277 C 
ENDBRANCH   6  15
BRANCH   4  17
ATOM     17  O   LIG A   1      -9.511   2.340 121.941  0.00  0.00    -0.506 OA
ATOM     18  H   LIG A   1      -9.745   1.389 122.033  0.00  0.00    +0.292 HD
ENDBRANCH   4  17
TORSDOF 3
ENDMDL
