MODEL 1
REMARK VINA RESULT:      -6.7      0.000      0.000
REMARK  Name = NuBBE_1109
REMARK  4 active torsions:
REMARK  status: ('A' for Active; 'I' for Inactive)
REMARK    1  A    between atoms: C_1  and  C_2
REMARK    2  A    between atoms: C_2  and  C_3
REMARK    3  A    between atoms: C_8  and  C_10
REMARK    4  A    between atoms: N_12  and  C_13
REMARK                            x       y       z     vdW  Elec       q    Type
REMARK                         _______ _______ _______ _____ _____    ______ ____
ROOT
ATOM      1  C   LIG A   1     -10.232   5.750 129.903  0.00  0.00    +0.009 C 
ATOM      2  C   LIG A   1      -9.993   5.082 131.042  0.00  0.00    +0.096 C 
ATOM      3  N   LIG A   1      -9.584   3.769 131.145  0.00  0.00    -0.254 N 
ATOM      4  C   LIG A   1      -9.331   2.852 130.064  0.00  0.00    +0.140 C 
ATOM      5  C   LIG A   1      -9.472   3.413 132.490  0.00  0.00    +0.313 C 
ATOM      6  N   LIG A   1      -9.795   4.514 133.239  0.00  0.00    -0.235 N 
ATOM      7  C   LIG A   1     -10.107   5.584 132.456  0.00  0.00    +0.266 C 
ATOM      8  O   LIG A   1     -10.397   6.703 132.833  0.00  0.00    -0.268 OA
ATOM      9  O   LIG A   1      -9.148   2.329 132.945  0.00  0.00    -0.252 OA
ATOM     10  H   LIG A   1      -9.778   4.529 134.244  0.00  0.00    +0.159 HD
ENDROOT
BRANCH   1  15
ATOM     11  C   LIG A   1     -12.190   7.454 129.770  0.00  0.00    +0.108 C 
ATOM     12  C   LIG A   1     -12.213   8.801 129.088  0.00  0.00    +0.311 C 
ATOM     13  O   LIG A   1     -11.106   8.960 128.304  0.00  0.00    -0.464 OA
ATOM     14  C   LIG A   1     -10.251   7.826 128.458  0.00  0.00    +0.240 C 
ATOM     15  C   LIG A   1     -10.680   7.185 129.767  0.00  0.00    +0.065 C 
ATOM     16  O   LIG A   1     -13.107   9.627 129.177  0.00  0.00    -0.251 OA
BRANCH  11  18
ATOM     17  C   LIG A   1     -13.887   7.060 127.897  0.00  0.00    +0.004 C 
ATOM     18  C   LIG A   1     -13.052   6.436 129.009  0.00  0.00    +0.012 C 
ENDBRANCH  11  18
ENDBRANCH   1  15
TORSDOF 2
ENDMDL
MODEL 2
REMARK VINA RESULT:      -6.5      2.830      5.957
REMARK  Name = NuBBE_1109
REMARK  4 active torsions:
REMARK  status: ('A' for Active; 'I' for Inactive)
REMARK    1  A    between atoms: C_1  and  C_2
REMARK    2  A    between atoms: C_2  and  C_3
REMARK    3  A    between atoms: C_8  and  C_10
REMARK    4  A    between atoms: N_12  and  C_13
REMARK                            x       y       z     vdW  Elec       q    Type
REMARK                         _______ _______ _______ _____ _____    ______ ____
ROOT
ATOM      1  C   LIG A   1      -9.619   6.939 130.446  0.00  0.00    +0.009 C 
ATOM      2  C   LIG A   1     -10.888   7.280 130.178  0.00  0.00    +0.096 C 
ATOM      3  N   LIG A   1     -11.328   7.972 129.068  0.00  0.00    -0.254 N 
ATOM      4  C   LIG A   1     -10.524   8.467 127.980  0.00  0.00    +0.140 C 
ATOM      5  C   LIG A   1     -12.707   8.172 129.152  0.00  0.00    +0.313 C 
ATOM      6  N   LIG A   1     -13.142   7.587 130.311  0.00  0.00    -0.235 N 
ATOM      7  C   LIG A   1     -12.120   7.002 130.996  0.00  0.00    +0.266 C 
ATOM      8  O   LIG A   1     -12.202   6.377 132.036  0.00  0.00    -0.268 OA
ATOM      9  O   LIG A   1     -13.420   8.756 128.353  0.00  0.00    -0.252 OA
ATOM     10  H   LIG A   1     -14.103   7.574 130.602  0.00  0.00    +0.159 HD
ENDROOT
BRANCH   1  15
ATOM     11  C   LIG A   1      -7.627   6.319 131.997  0.00  0.00    +0.108 C 
ATOM     12  C   LIG A   1      -7.440   5.069 132.825  0.00  0.00    +0.311 C 
ATOM     13  O   LIG A   1      -8.374   4.130 132.490  0.00  0.00    -0.464 OA
ATOM     14  C   LIG A   1      -9.271   4.678 131.524  0.00  0.00    +0.240 C 
ATOM     15  C   LIG A   1      -9.116   6.184 131.652  0.00  0.00    +0.065 C 
ATOM     16  O   LIG A   1      -6.558   4.888 133.648  0.00  0.00    -0.251 OA
BRANCH  11  18
ATOM     17  C   LIG A   1      -5.335   7.021 131.105  0.00  0.00    +0.004 C 
ATOM     18  C   LIG A   1      -6.663   6.338 130.801  0.00  0.00    +0.012 C 
ENDBRANCH  11  18
ENDBRANCH   1  15
TORSDOF 2
ENDMDL
MODEL 3
REMARK VINA RESULT:      -6.3      7.674     10.062
REMARK  Name = NuBBE_1109
REMARK  4 active torsions:
REMARK  status: ('A' for Active; 'I' for Inactive)
REMARK    1  A    between atoms: C_1  and  C_2
REMARK    2  A    between atoms: C_2  and  C_3
REMARK    3  A    between atoms: C_8  and  C_10
REMARK    4  A    between atoms: N_12  and  C_13
REMARK                            x       y       z     vdW  Elec       q    Type
REMARK                         _______ _______ _______ _____ _____    ______ ____
ROOT
ATOM      1  C   LIG A   1      -7.517   1.425 123.590  0.00  0.00    +0.009 C 
ATOM      2  C   LIG A   1      -7.427   2.551 124.314  0.00  0.00    +0.096 C 
ATOM      3  N   LIG A   1      -6.682   3.667 123.994  0.00  0.00    -0.254 N 
ATOM      4  C   LIG A   1      -5.853   3.853 122.830  0.00  0.00    +0.140 C 
ATOM      5  C   LIG A   1      -6.809   4.625 125.001  0.00  0.00    +0.313 C 
ATOM      6  N   LIG A   1      -7.654   4.118 125.953  0.00  0.00    -0.235 N 
ATOM      7  C   LIG A   1      -8.100   2.874 125.621  0.00  0.00    +0.266 C 
ATOM      8  O   LIG A   1      -8.885   2.189 126.248  0.00  0.00    -0.268 OA
ATOM      9  O   LIG A   1      -6.278   5.722 125.052  0.00  0.00    -0.252 OA
ATOM     10  H   LIG A   1      -7.926   4.618 126.780  0.00  0.00    +0.159 HD
ENDROOT
BRANCH   1  15
ATOM     11  C   LIG A   1      -7.585  -1.150 123.936  0.00  0.00    +0.108 C 
ATOM     12  C   LIG A   1      -8.753  -2.089 123.745  0.00  0.00    +0.311 C 
ATOM     13  O   LIG A   1      -9.784  -1.449 123.118  0.00  0.00    -0.464 OA
ATOM     14  C   LIG A   1      -9.442  -0.076 122.927  0.00  0.00    +0.240 C 
ATOM     15  C   LIG A   1      -8.325   0.194 123.921  0.00  0.00    +0.065 C 
ATOM     16  O   LIG A   1      -8.775  -3.267 124.059  0.00  0.00    -0.251 OA
BRANCH  11  18
ATOM     17  C   LIG A   1      -5.550  -2.473 123.129  0.00  0.00    +0.004 C 
ATOM     18  C   LIG A   1      -6.534  -1.347 122.834  0.00  0.00    +0.012 C 
ENDBRANCH  11  18
ENDBRANCH   1  15
TORSDOF 2
ENDMDL
MODEL 4
REMARK VINA RESULT:      -6.2      6.695      8.617
REMARK  Name = NuBBE_1109
REMARK  4 active torsions:
REMARK  status: ('A' for Active; 'I' for Inactive)
REMARK    1  A    between atoms: C_1  and  C_2
REMARK    2  A    between atoms: C_2  and  C_3
REMARK    3  A    between atoms: C_8  and  C_10
REMARK    4  A    between atoms: N_12  and  C_13
REMARK                            x       y       z     vdW  Elec       q    Type
REMARK                         _______ _______ _______ _____ _____    ______ ____
ROOT
ATOM      1  C   LIG A   1      -6.211   2.475 125.579  0.00  0.00    +0.009 C 
ATOM      2  C   LIG A   1      -7.399   2.165 125.039  0.00  0.00    +0.096 C 
ATOM      3  N   LIG A   1      -7.759   0.943 124.510  0.00  0.00    -0.254 N 
ATOM      4  C   LIG A   1      -6.944  -0.242 124.430  0.00  0.00    +0.140 C 
ATOM      5  C   LIG A   1      -9.060   1.009 124.010  0.00  0.00    +0.313 C 
ATOM      6  N   LIG A   1      -9.530   2.275 124.240  0.00  0.00    -0.235 N 
ATOM      7  C   LIG A   1      -8.606   3.048 124.877  0.00  0.00    +0.266 C 
ATOM      8  O   LIG A   1      -8.747   4.199 125.244  0.00  0.00    -0.268 OA
ATOM      9  O   LIG A   1      -9.690   0.119 123.464  0.00  0.00    -0.252 OA
ATOM     10  H   LIG A   1     -10.453   2.581 123.989  0.00  0.00    +0.159 HD
ENDROOT
BRANCH   1  15
ATOM     11  C   LIG A   1      -4.292   4.076 126.293  0.00  0.00    +0.108 C 
ATOM     12  C   LIG A   1      -4.316   5.150 127.354  0.00  0.00    +0.311 C 
ATOM     13  O   LIG A   1      -5.449   5.050 128.111  0.00  0.00    -0.464 OA
ATOM     14  C   LIG A   1      -6.276   4.010 127.589  0.00  0.00    +0.240 C 
ATOM     15  C   LIG A   1      -5.796   3.803 126.162  0.00  0.00    +0.065 C 
ATOM     16  O   LIG A   1      -3.436   5.972 127.553  0.00  0.00    -0.251 OA
BRANCH  11  18
ATOM     17  C   LIG A   1      -1.939   3.100 126.529  0.00  0.00    +0.004 C 
ATOM     18  C   LIG A   1      -3.433   2.882 126.736  0.00  0.00    +0.012 C 
ENDBRANCH  11  18
ENDBRANCH   1  15
TORSDOF 2
ENDMDL
MODEL 5
REMARK VINA RESULT:      -6.2      2.366      3.225
REMARK  Name = NuBBE_1109
REMARK  4 active torsions:
REMARK  status: ('A' for Active; 'I' for Inactive)
REMARK    1  A    between atoms: C_1  and  C_2
REMARK    2  A    between atoms: C_2  and  C_3
REMARK    3  A    between atoms: C_8  and  C_10
REMARK    4  A    between atoms: N_12  and  C_13
REMARK                            x       y       z     vdW  Elec       q    Type
REMARK                         _______ _______ _______ _____ _____    ______ ____
ROOT
ATOM      1  C   LIG A   1      -9.616   5.966 131.290  0.00  0.00    +0.009 C 
ATOM      2  C   LIG A   1      -8.688   5.053 130.966  0.00  0.00    +0.096 C 
ATOM      3  N   LIG A   1      -7.366   5.060 131.361  0.00  0.00    -0.254 N 
ATOM      4  C   LIG A   1      -6.715   6.038 132.195  0.00  0.00    +0.140 C 
ATOM      5  C   LIG A   1      -6.699   3.970 130.800  0.00  0.00    +0.313 C 
ATOM      6  N   LIG A   1      -7.609   3.261 130.061  0.00  0.00    -0.235 N 
ATOM      7  C   LIG A   1      -8.849   3.824 130.112  0.00  0.00    +0.266 C 
ATOM      8  O   LIG A   1      -9.863   3.404 129.590  0.00  0.00    -0.268 OA
ATOM      9  O   LIG A   1      -5.522   3.676 130.927  0.00  0.00    -0.252 OA
ATOM     10  H   LIG A   1      -7.387   2.417 129.564  0.00  0.00    +0.159 HD
ENDROOT
BRANCH   1  15
ATOM     11  C   LIG A   1     -11.402   6.637 129.525  0.00  0.00    +0.108 C 
ATOM     12  C   LIG A   1     -12.868   6.929 129.743  0.00  0.00    +0.311 C 
ATOM     13  O   LIG A   1     -13.142   7.033 131.077  0.00  0.00    -0.464 OA
ATOM     14  C   LIG A   1     -11.962   6.744 131.826  0.00  0.00    +0.240 C 
ATOM     15  C   LIG A   1     -11.065   5.978 130.869  0.00  0.00    +0.065 C 
ATOM     16  O   LIG A   1     -13.696   7.099 128.863  0.00  0.00    -0.251 OA
BRANCH  11  18
ATOM     17  C   LIG A   1     -10.672   8.297 127.722  0.00  0.00    +0.004 C 
ATOM     18  C   LIG A   1     -10.626   7.921 129.198  0.00  0.00    +0.012 C 
ENDBRANCH  11  18
ENDBRANCH   1  15
TORSDOF 2
ENDMDL
MODEL 6
REMARK VINA RESULT:      -6.2      9.456     10.569
REMARK  Name = NuBBE_1109
REMARK  4 active torsions:
REMARK  status: ('A' for Active; 'I' for Inactive)
REMARK    1  A    between atoms: C_1  and  C_2
REMARK    2  A    between atoms: C_2  and  C_3
REMARK    3  A    between atoms: C_8  and  C_10
REMARK    4  A    between atoms: N_12  and  C_13
REMARK                            x       y       z     vdW  Elec       q    Type
REMARK                         _______ _______ _______ _____ _____    ______ ____
ROOT
ATOM      1  C   LIG A   1      -6.906  -2.473 127.146  0.00  0.00    +0.009 C 
ATOM      2  C   LIG A   1      -6.853  -2.683 128.470  0.00  0.00    +0.096 C 
ATOM      3  N   LIG A   1      -5.778  -2.418 129.294  0.00  0.00    -0.254 N 
ATOM      4  C   LIG A   1      -4.505  -1.867 128.909  0.00  0.00    +0.140 C 
ATOM      5  C   LIG A   1      -6.081  -2.800 130.602  0.00  0.00    +0.313 C 
ATOM      6  N   LIG A   1      -7.359  -3.291 130.607  0.00  0.00    -0.235 N 
ATOM      7  C   LIG A   1      -7.922  -3.246 129.367  0.00  0.00    +0.266 C 
ATOM      8  O   LIG A   1      -9.053  -3.577 129.066  0.00  0.00    -0.268 OA
ATOM      9  O   LIG A   1      -5.359  -2.721 131.582  0.00  0.00    -0.252 OA
ATOM     10  H   LIG A   1      -7.827  -3.621 131.433  0.00  0.00    +0.159 HD
ENDROOT
BRANCH   1  15
ATOM     11  C   LIG A   1      -7.744  -3.284 124.824  0.00  0.00    +0.108 C 
ATOM     12  C   LIG A   1      -9.019  -2.908 124.106  0.00  0.00    +0.311 C 
ATOM     13  O   LIG A   1      -9.630  -1.859 124.733  0.00  0.00    -0.464 OA
ATOM     14  C   LIG A   1      -8.898  -1.521 125.912  0.00  0.00    +0.240 C 
ATOM     15  C   LIG A   1      -8.069  -2.755 126.227  0.00  0.00    +0.065 C 
ATOM     16  O   LIG A   1      -9.437  -3.425 123.084  0.00  0.00    -0.251 OA
BRANCH  11  18
ATOM     17  C   LIG A   1      -5.360  -3.628 123.965  0.00  0.00    +0.004 C 
ATOM     18  C   LIG A   1      -6.521  -2.657 124.140  0.00  0.00    +0.012 C 
ENDBRANCH  11  18
ENDBRANCH   1  15
TORSDOF 2
ENDMDL
MODEL 7
REMARK VINA RESULT:      -5.9      7.514      9.985
REMARK  Name = NuBBE_1109
REMARK  4 active torsions:
REMARK  status: ('A' for Active; 'I' for Inactive)
REMARK    1  A    between atoms: C_1  and  C_2
REMARK    2  A    between atoms: C_2  and  C_3
REMARK    3  A    between atoms: C_8  and  C_10
REMARK    4  A    between atoms: N_12  and  C_13
REMARK                            x       y       z     vdW  Elec       q    Type
REMARK                         _______ _______ _______ _____ _____    ______ ____
ROOT
ATOM      1  C   LIG A   1      -6.900   0.751 124.630  0.00  0.00    +0.009 C 
ATOM      2  C   LIG A   1      -6.978   2.087 124.718  0.00  0.00    +0.096 C 
ATOM      3  N   LIG A   1      -6.156   2.903 125.469  0.00  0.00    -0.254 N 
ATOM      4  C   LIG A   1      -5.057   2.493 126.306  0.00  0.00    +0.140 C 
ATOM      5  C   LIG A   1      -6.562   4.231 125.338  0.00  0.00    +0.313 C 
ATOM      6  N   LIG A   1      -7.634   4.257 124.486  0.00  0.00    -0.235 N 
ATOM      7  C   LIG A   1      -7.953   3.010 124.038  0.00  0.00    +0.266 C 
ATOM      8  O   LIG A   1      -8.830   2.721 123.247  0.00  0.00    -0.268 OA
ATOM      9  O   LIG A   1      -6.071   5.212 125.872  0.00  0.00    -0.252 OA
ATOM     10  H   LIG A   1      -8.107   5.099 124.210  0.00  0.00    +0.159 HD
ENDROOT
BRANCH   1  15
ATOM     11  C   LIG A   1      -8.623  -1.194 124.579  0.00  0.00    +0.108 C 
ATOM     12  C   LIG A   1      -8.883  -2.184 123.469  0.00  0.00    +0.311 C 
ATOM     13  O   LIG A   1      -7.911  -2.099 122.514  0.00  0.00    -0.464 OA
ATOM     14  C   LIG A   1      -7.015  -1.037 122.844  0.00  0.00    +0.240 C 
ATOM     15  C   LIG A   1      -7.786  -0.159 123.816  0.00  0.00    +0.065 C 
ATOM     16  O   LIG A   1      -9.801  -2.988 123.435  0.00  0.00    -0.251 OA
BRANCH  11  18
ATOM     17  C   LIG A   1      -8.858  -2.747 126.598  0.00  0.00    +0.004 C 
ATOM     18  C   LIG A   1      -7.927  -1.870 125.770  0.00  0.00    +0.012 C 
ENDBRANCH  11  18
ENDBRANCH   1  15
TORSDOF 2
ENDMDL
MODEL 8
REMARK VINA RESULT:      -5.7      6.725      8.508
REMARK  Name = NuBBE_1109
REMARK  4 active torsions:
REMARK  status: ('A' for Active; 'I' for Inactive)
REMARK    1  A    between atoms: C_1  and  C_2
REMARK    2  A    between atoms: C_2  and  C_3
REMARK    3  A    between atoms: C_8  and  C_10
REMARK    4  A    between atoms: N_12  and  C_13
REMARK                            x       y       z     vdW  Elec       q    Type
REMARK                         _______ _______ _______ _____ _____    ______ ____
ROOT
ATOM      1  C   LIG A   1      -5.931   3.716 127.325  0.00  0.00    +0.009 C 
ATOM      2  C   LIG A   1      -6.684   3.688 126.214  0.00  0.00    +0.096 C 
ATOM      3  N   LIG A   1      -7.490   2.647 125.804  0.00  0.00    -0.254 N 
ATOM      4  C   LIG A   1      -7.690   1.387 126.475  0.00  0.00    +0.140 C 
ATOM      5  C   LIG A   1      -8.091   2.966 124.586  0.00  0.00    +0.313 C 
ATOM      6  N   LIG A   1      -7.675   4.223 124.234  0.00  0.00    -0.235 N 
ATOM      7  C   LIG A   1      -6.835   4.756 125.165  0.00  0.00    +0.266 C 
ATOM      8  O   LIG A   1      -6.334   5.864 125.147  0.00  0.00    -0.268 OA
ATOM      9  O   LIG A   1      -8.852   2.274 123.931  0.00  0.00    -0.252 OA
ATOM     10  H   LIG A   1      -7.976   4.697 123.402  0.00  0.00    +0.159 HD
ENDROOT
BRANCH   1  15
ATOM     11  C   LIG A   1      -3.547   4.742 127.463  0.00  0.00    +0.108 C 
ATOM     12  C   LIG A   1      -2.989   5.674 128.513  0.00  0.00    +0.311 C 
ATOM     13  O   LIG A   1      -3.841   5.760 129.577  0.00  0.00    -0.464 OA
ATOM     14  C   LIG A   1      -5.019   5.002 129.303  0.00  0.00    +0.240 C 
ATOM     15  C   LIG A   1      -5.042   4.842 127.792  0.00  0.00    +0.065 C 
ATOM     16  O   LIG A   1      -1.911   6.243 128.457  0.00  0.00    -0.251 OA
BRANCH  11  18
ATOM     17  C   LIG A   1      -1.725   3.129 126.675  0.00  0.00    +0.004 C 
ATOM     18  C   LIG A   1      -2.929   3.341 127.584  0.00  0.00    +0.012 C 
ENDBRANCH  11  18
ENDBRANCH   1  15
TORSDOF 2
ENDMDL
MODEL 9
REMARK VINA RESULT:      -5.7      7.469      8.449
REMARK  Name = NuBBE_1109
REMARK  4 active torsions:
REMARK  status: ('A' for Active; 'I' for Inactive)
REMARK    1  A    between atoms: C_1  and  C_2
REMARK    2  A    between atoms: C_2  and  C_3
REMARK    3  A    between atoms: C_8  and  C_10
REMARK    4  A    between atoms: N_12  and  C_13
REMARK                            x       y       z     vdW  Elec       q    Type
REMARK                         _______ _______ _______ _____ _____    ______ ____
ROOT
ATOM      1  C   LIG A   1      -6.422   1.102 125.141  0.00  0.00    +0.009 C 
ATOM      2  C   LIG A   1      -7.513   0.330 125.267  0.00  0.00    +0.096 C 
ATOM      3  N   LIG A   1      -7.642  -0.973 124.835  0.00  0.00    -0.254 N 
ATOM      4  C   LIG A   1      -6.643  -1.769 124.167  0.00  0.00    +0.140 C 
ATOM      5  C   LIG A   1      -8.930  -1.436 125.109  0.00  0.00    +0.313 C 
ATOM      6  N   LIG A   1      -9.611  -0.425 125.733  0.00  0.00    -0.235 N 
ATOM      7  C   LIG A   1      -8.835   0.683 125.893  0.00  0.00    +0.266 C 
ATOM      8  O   LIG A   1      -9.150   1.721 126.443  0.00  0.00    -0.268 OA
ATOM      9  O   LIG A   1      -9.392  -2.536 124.852  0.00  0.00    -0.252 OA
ATOM     10  H   LIG A   1     -10.560  -0.507 126.051  0.00  0.00    +0.159 HD
ENDROOT
BRANCH   1  15
ATOM     11  C   LIG A   1      -6.715   3.637 124.646  0.00  0.00    +0.108 C 
ATOM     12  C   LIG A   1      -5.914   4.794 125.192  0.00  0.00    +0.311 C 
ATOM     13  O   LIG A   1      -4.802   4.342 125.844  0.00  0.00    -0.464 OA
ATOM     14  C   LIG A   1      -4.813   2.914 125.863  0.00  0.00    +0.240 C 
ATOM     15  C   LIG A   1      -6.260   2.528 125.605  0.00  0.00    +0.065 C 
ATOM     16  O   LIG A   1      -6.181   5.976 125.044  0.00  0.00    -0.251 OA
BRANCH  11  18
ATOM     17  C   LIG A   1      -7.648   3.170 122.311  0.00  0.00    +0.004 C 
ATOM     18  C   LIG A   1      -6.405   3.403 123.160  0.00  0.00    +0.012 C 
ENDBRANCH  11  18
ENDBRANCH   1  15
TORSDOF 2
ENDMDL
