MODEL 1
REMARK VINA RESULT:      -6.6      0.000      0.000
REMARK  Name = NuBBE_1993
REMARK  17 active torsions:
REMARK  status: ('A' for Active; 'I' for Inactive)
REMARK    1  A    between atoms: O_1  and  C_2
REMARK    2  A    between atoms: O_1  and  C_5
REMARK    3  A    between atoms: C_2  and  C_3
REMARK    4  A    between atoms: C_6  and  O_7
REMARK    5  A    between atoms: O_7  and  C_8
REMARK    6  A    between atoms: C_10  and  C_15
REMARK    7  A    between atoms: C_12  and  O_13
REMARK    8  A    between atoms: O_13  and  C_14
REMARK    9  A    between atoms: C_15  and  C_16
REMARK   10  A    between atoms: C_15  and  C_29
REMARK   11  A    between atoms: C_16  and  C_17
REMARK   12  A    between atoms: C_19  and  O_20
REMARK   13  A    between atoms: O_20  and  C_21
REMARK   14  A    between atoms: C_22  and  O_27
REMARK   15  A    between atoms: C_23  and  O_25
REMARK   16  A    between atoms: O_25  and  C_26
REMARK   17  A    between atoms: O_27  and  C_28
REMARK                            x       y       z     vdW  Elec       q    Type
REMARK                         _______ _______ _______ _____ _____    ______ ____
ROOT
ATOM      1  C   LIG A   1      -8.096  -3.693 128.597  0.00  0.00    +0.020 C 
ATOM      2  C   LIG A   1      -9.607  -4.158 128.589  0.00  0.00    +0.013 C 
ENDROOT
BRANCH   1   6
ATOM      3  C   LIG A   1      -7.179  -1.385 124.877  0.00  0.00    +0.204 A 
ATOM      4  C   LIG A   1      -8.372  -2.140 125.104  0.00  0.00    +0.166 A 
ATOM      5  C   LIG A   1      -8.467  -2.926 126.294  0.00  0.00    +0.053 A 
ATOM      6  C   LIG A   1      -7.698  -2.908 127.359  0.00  0.00    -0.037 A 
ATOM      7  C   LIG A   1      -6.553  -2.107 127.183  0.00  0.00    +0.053 A 
ATOM      8  C   LIG A   1      -6.307  -1.364 125.971  0.00  0.00    +0.166 A 
BRANCH   4   9
ATOM      9  O   LIG A   1      -9.472  -2.138 124.262  0.00  0.00    -0.491 OA
ATOM     10  C   LIG A   1      -9.565  -3.351 123.473  0.00  0.00    +0.277 C 
ENDBRANCH   4   9
BRANCH   8  11
ATOM     11  O   LIG A   1      -5.196  -0.542 125.934  0.00  0.00    -0.491 OA
ATOM     12  C   LIG A   1      -5.383   0.782 126.421  0.00  0.00    +0.277 C 
ENDBRANCH   8  11
BRANCH   3  13
ATOM     13  O   LIG A   1      -6.965  -0.785 123.623  0.00  0.00    -0.481 OA
BRANCH  13  14
ATOM     14  C   LIG A   1      -6.326  -1.577 122.569  0.00  0.00    +0.256 C 
BRANCH  14  15
ATOM     15  C   LIG A   1      -5.658  -2.915 122.960  0.00  0.00    +0.006 C 
ATOM     16  C   LIG A   1      -4.447  -3.242 123.432  0.00  0.00    +0.007 C 
ENDBRANCH  14  15
ENDBRANCH  13  14
ENDBRANCH   3  13
ENDBRANCH   1   6
BRANCH   1  17
ATOM     17  C   LIG A   1      -7.886  -2.914 129.972  0.00  0.00    +0.043 C 
BRANCH  17  18
ATOM     18  C   LIG A   1      -6.665  -3.235 130.823  0.00  0.00    -0.040 A 
ATOM     19  C   LIG A   1      -5.385  -3.303 130.275  0.00  0.00    +0.053 A 
ATOM     20  C   LIG A   1      -4.256  -3.481 131.112  0.00  0.00    +0.165 A 
ATOM     21  C   LIG A   1      -4.365  -3.525 132.531  0.00  0.00    +0.203 A 
ATOM     22  C   LIG A   1      -5.642  -3.588 133.068  0.00  0.00    +0.165 A 
ATOM     23  C   LIG A   1      -6.738  -3.412 132.202  0.00  0.00    +0.053 A 
BRANCH  20  24
ATOM     24  O   LIG A   1      -3.035  -3.503 130.456  0.00  0.00    -0.491 OA
ATOM     25  C   LIG A   1      -3.087  -3.757 129.046  0.00  0.00    +0.277 C 
ENDBRANCH  20  24
BRANCH  22  26
ATOM     26  O   LIG A   1      -6.063  -3.825 134.346  0.00  0.00    -0.491 OA
ATOM     27  C   LIG A   1      -6.891  -2.852 134.929  0.00  0.00    +0.277 C 
ENDBRANCH  22  26
BRANCH  21  28
ATOM     28  O   LIG A   1      -3.172  -3.305 133.126  0.00  0.00    -0.488 OA
ATOM     29  C   LIG A   1      -2.594  -2.184 133.743  0.00  0.00    +0.277 C 
ENDBRANCH  21  28
ENDBRANCH  17  18
ENDBRANCH   1  17
TORSDOF 11
ENDMDL
MODEL 2
REMARK VINA RESULT:      -6.6      1.014      3.529
REMARK  Name = NuBBE_1993
REMARK  17 active torsions:
REMARK  status: ('A' for Active; 'I' for Inactive)
REMARK    1  A    between atoms: O_1  and  C_2
REMARK    2  A    between atoms: O_1  and  C_5
REMARK    3  A    between atoms: C_2  and  C_3
REMARK    4  A    between atoms: C_6  and  O_7
REMARK    5  A    between atoms: O_7  and  C_8
REMARK    6  A    between atoms: C_10  and  C_15
REMARK    7  A    between atoms: C_12  and  O_13
REMARK    8  A    between atoms: O_13  and  C_14
REMARK    9  A    between atoms: C_15  and  C_16
REMARK   10  A    between atoms: C_15  and  C_29
REMARK   11  A    between atoms: C_16  and  C_17
REMARK   12  A    between atoms: C_19  and  O_20
REMARK   13  A    between atoms: O_20  and  C_21
REMARK   14  A    between atoms: C_22  and  O_27
REMARK   15  A    between atoms: C_23  and  O_25
REMARK   16  A    between atoms: O_25  and  C_26
REMARK   17  A    between atoms: O_27  and  C_28
REMARK                            x       y       z     vdW  Elec       q    Type
REMARK                         _______ _______ _______ _____ _____    ______ ____
ROOT
ATOM      1  C   LIG A   1      -8.129  -2.367 129.067  0.00  0.00    +0.020 C 
ATOM      2  C   LIG A   1      -7.657  -1.151 129.960  0.00  0.00    +0.013 C 
ENDROOT
BRANCH   1   6
ATOM      3  C   LIG A   1      -6.746  -1.865 124.843  0.00  0.00    +0.204 A 
ATOM      4  C   LIG A   1      -6.192  -1.192 125.976  0.00  0.00    +0.166 A 
ATOM      5  C   LIG A   1      -6.821  -1.362 127.248  0.00  0.00    +0.053 A 
ATOM      6  C   LIG A   1      -7.737  -2.233 127.606  0.00  0.00    -0.037 A 
ATOM      7  C   LIG A   1      -8.244  -2.961 126.512  0.00  0.00    +0.053 A 
ATOM      8  C   LIG A   1      -7.754  -2.780 125.167  0.00  0.00    +0.166 A 
BRANCH   4   9
ATOM      9  O   LIG A   1      -5.052  -0.406 125.939  0.00  0.00    -0.491 OA
ATOM     10  C   LIG A   1      -5.316   0.967 126.326  0.00  0.00    +0.277 C 
ENDBRANCH   4   9
BRANCH   8  11
ATOM     11  O   LIG A   1      -8.260  -3.606 124.180  0.00  0.00    -0.491 OA
ATOM     12  C   LIG A   1      -9.446  -3.153 123.537  0.00  0.00    +0.277 C 
ENDBRANCH   8  11
BRANCH   3  13
ATOM     13  O   LIG A   1      -6.289  -1.544 123.552  0.00  0.00    -0.481 OA
BRANCH  13  14
ATOM     14  C   LIG A   1      -5.562  -2.564 122.795  0.00  0.00    +0.256 C 
BRANCH  14  15
ATOM     15  C   LIG A   1      -4.509  -3.419 123.538  0.00  0.00    +0.006 C 
ATOM     16  C   LIG A   1      -4.240  -4.731 123.574  0.00  0.00    +0.007 C 
ENDBRANCH  14  15
ENDBRANCH  13  14
ENDBRANCH   3  13
ENDBRANCH   1   6
BRANCH   1  17
ATOM     17  C   LIG A   1      -7.573  -3.677 129.786  0.00  0.00    +0.043 C 
BRANCH  17  18
ATOM     18  C   LIG A   1      -6.328  -3.569 130.655  0.00  0.00    -0.040 A 
ATOM     19  C   LIG A   1      -6.402  -3.559 132.048  0.00  0.00    +0.053 A 
ATOM     20  C   LIG A   1      -5.221  -3.582 132.828  0.00  0.00    +0.165 A 
ATOM     21  C   LIG A   1      -3.928  -3.688 132.242  0.00  0.00    +0.203 A 
ATOM     22  C   LIG A   1      -3.844  -3.567 130.863  0.00  0.00    +0.165 A 
ATOM     23  C   LIG A   1      -5.042  -3.542 130.123  0.00  0.00    +0.053 A 
BRANCH  20  24
ATOM     24  O   LIG A   1      -5.422  -3.599 134.200  0.00  0.00    -0.491 OA
ATOM     25  C   LIG A   1      -6.314  -4.609 134.688  0.00  0.00    +0.277 C 
ENDBRANCH  20  24
BRANCH  22  26
ATOM     26  O   LIG A   1      -2.760  -3.438 130.041  0.00  0.00    -0.491 OA
ATOM     27  C   LIG A   1      -2.916  -3.876 128.716  0.00  0.00    +0.277 C 
ENDBRANCH  22  26
BRANCH  21  28
ATOM     28  O   LIG A   1      -3.005  -4.084 133.146  0.00  0.00    -0.488 OA
ATOM     29  C   LIG A   1      -2.649  -5.334 133.676  0.00  0.00    +0.277 C 
ENDBRANCH  21  28
ENDBRANCH  17  18
ENDBRANCH   1  17
TORSDOF 11
ENDMDL
MODEL 3
REMARK VINA RESULT:      -6.6      0.843      2.532
REMARK  Name = NuBBE_1993
REMARK  17 active torsions:
REMARK  status: ('A' for Active; 'I' for Inactive)
REMARK    1  A    between atoms: O_1  and  C_2
REMARK    2  A    between atoms: O_1  and  C_5
REMARK    3  A    between atoms: C_2  and  C_3
REMARK    4  A    between atoms: C_6  and  O_7
REMARK    5  A    between atoms: O_7  and  C_8
REMARK    6  A    between atoms: C_10  and  C_15
REMARK    7  A    between atoms: C_12  and  O_13
REMARK    8  A    between atoms: O_13  and  C_14
REMARK    9  A    between atoms: C_15  and  C_16
REMARK   10  A    between atoms: C_15  and  C_29
REMARK   11  A    between atoms: C_16  and  C_17
REMARK   12  A    between atoms: C_19  and  O_20
REMARK   13  A    between atoms: O_20  and  C_21
REMARK   14  A    between atoms: C_22  and  O_27
REMARK   15  A    between atoms: C_23  and  O_25
REMARK   16  A    between atoms: O_25  and  C_26
REMARK   17  A    between atoms: O_27  and  C_28
REMARK                            x       y       z     vdW  Elec       q    Type
REMARK                         _______ _______ _______ _____ _____    ______ ____
ROOT
ATOM      1  C   LIG A   1      -8.165  -2.174 129.033  0.00  0.00    +0.020 C 
ATOM      2  C   LIG A   1      -7.520  -0.998 129.871  0.00  0.00    +0.013 C 
ENDROOT
BRANCH   1   6
ATOM      3  C   LIG A   1      -6.870  -1.946 124.758  0.00  0.00    +0.204 A 
ATOM      4  C   LIG A   1      -6.290  -1.205 125.834  0.00  0.00    +0.166 A 
ATOM      5  C   LIG A   1      -6.893  -1.291 127.127  0.00  0.00    +0.053 A 
ATOM      6  C   LIG A   1      -7.803  -2.135 127.558  0.00  0.00    -0.037 A 
ATOM      7  C   LIG A   1      -8.335  -2.928 126.524  0.00  0.00    +0.053 A 
ATOM      8  C   LIG A   1      -7.873  -2.835 125.160  0.00  0.00    +0.166 A 
BRANCH   4   9
ATOM      9  O   LIG A   1      -5.149  -0.428 125.723  0.00  0.00    -0.491 OA
ATOM     10  C   LIG A   1      -5.236   0.793 126.501  0.00  0.00    +0.277 C 
ENDBRANCH   4   9
BRANCH   8  11
ATOM     11  O   LIG A   1      -8.403  -3.720 124.239  0.00  0.00    -0.491 OA
ATOM     12  C   LIG A   1      -9.522  -3.250 123.496  0.00  0.00    +0.277 C 
ENDBRANCH   8  11
BRANCH   3  13
ATOM     13  O   LIG A   1      -6.439  -1.710 123.439  0.00  0.00    -0.481 OA
BRANCH  13  14
ATOM     14  C   LIG A   1      -5.437  -2.606 122.860  0.00  0.00    +0.256 C 
BRANCH  14  15
ATOM     15  C   LIG A   1      -4.812  -3.691 123.767  0.00  0.00    +0.006 C 
ATOM     16  C   LIG A   1      -4.086  -4.793 123.527  0.00  0.00    +0.007 C 
ENDBRANCH  14  15
ENDBRANCH  13  14
ENDBRANCH   3  13
ENDBRANCH   1   6
BRANCH   1  17
ATOM     17  C   LIG A   1      -7.752  -3.520 129.782  0.00  0.00    +0.043 C 
BRANCH  17  18
ATOM     18  C   LIG A   1      -6.493  -3.530 130.638  0.00  0.00    -0.040 A 
ATOM     19  C   LIG A   1      -5.220  -3.590 130.073  0.00  0.00    +0.053 A 
ATOM     20  C   LIG A   1      -4.068  -3.473 130.889  0.00  0.00    +0.165 A 
ATOM     21  C   LIG A   1      -4.153  -3.220 132.287  0.00  0.00    +0.203 A 
ATOM     22  C   LIG A   1      -5.409  -3.289 132.869  0.00  0.00    +0.165 A 
ATOM     23  C   LIG A   1      -6.529  -3.411 132.025  0.00  0.00    +0.053 A 
BRANCH  20  24
ATOM     24  O   LIG A   1      -2.860  -3.519 130.210  0.00  0.00    -0.491 OA
ATOM     25  C   LIG A   1      -2.938  -3.823 128.812  0.00  0.00    +0.277 C 
ENDBRANCH  20  24
BRANCH  22  26
ATOM     26  O   LIG A   1      -5.787  -3.284 134.183  0.00  0.00    -0.491 OA
ATOM     27  C   LIG A   1      -7.165  -3.358 134.443  0.00  0.00    +0.277 C 
ENDBRANCH  22  26
BRANCH  21  28
ATOM     28  O   LIG A   1      -2.981  -2.762 132.779  0.00  0.00    -0.488 OA
ATOM     29  C   LIG A   1      -2.539  -1.497 133.198  0.00  0.00    +0.277 C 
ENDBRANCH  21  28
ENDBRANCH  17  18
ENDBRANCH   1  17
TORSDOF 11
ENDMDL
MODEL 4
REMARK VINA RESULT:      -6.5      0.658      2.448
REMARK  Name = NuBBE_1993
REMARK  17 active torsions:
REMARK  status: ('A' for Active; 'I' for Inactive)
REMARK    1  A    between atoms: O_1  and  C_2
REMARK    2  A    between atoms: O_1  and  C_5
REMARK    3  A    between atoms: C_2  and  C_3
REMARK    4  A    between atoms: C_6  and  O_7
REMARK    5  A    between atoms: O_7  and  C_8
REMARK    6  A    between atoms: C_10  and  C_15
REMARK    7  A    between atoms: C_12  and  O_13
REMARK    8  A    between atoms: O_13  and  C_14
REMARK    9  A    between atoms: C_15  and  C_16
REMARK   10  A    between atoms: C_15  and  C_29
REMARK   11  A    between atoms: C_16  and  C_17
REMARK   12  A    between atoms: C_19  and  O_20
REMARK   13  A    between atoms: O_20  and  C_21
REMARK   14  A    between atoms: C_22  and  O_27
REMARK   15  A    between atoms: C_23  and  O_25
REMARK   16  A    between atoms: O_25  and  C_26
REMARK   17  A    between atoms: O_27  and  C_28
REMARK                            x       y       z     vdW  Elec       q    Type
REMARK                         _______ _______ _______ _____ _____    ______ ____
ROOT
ATOM      1  C   LIG A   1      -8.166  -3.666 128.657  0.00  0.00    +0.020 C 
ATOM      2  C   LIG A   1      -9.641  -4.232 128.592  0.00  0.00    +0.013 C 
ENDROOT
BRANCH   1   6
ATOM      3  C   LIG A   1      -7.181  -1.489 124.877  0.00  0.00    +0.204 A 
ATOM      4  C   LIG A   1      -8.389  -2.213 125.118  0.00  0.00    +0.166 A 
ATOM      5  C   LIG A   1      -8.508  -2.961 126.330  0.00  0.00    +0.053 A 
ATOM      6  C   LIG A   1      -7.745  -2.926 127.400  0.00  0.00    -0.037 A 
ATOM      7  C   LIG A   1      -6.584  -2.154 127.208  0.00  0.00    +0.053 A 
ATOM      8  C   LIG A   1      -6.316  -1.452 125.976  0.00  0.00    +0.166 A 
BRANCH   4   9
ATOM      9  O   LIG A   1      -9.484  -2.214 124.269  0.00  0.00    -0.491 OA
ATOM     10  C   LIG A   1      -9.552  -3.415 123.459  0.00  0.00    +0.277 C 
ENDBRANCH   4   9
BRANCH   8  11
ATOM     11  O   LIG A   1      -5.187  -0.653 125.922  0.00  0.00    -0.491 OA
ATOM     12  C   LIG A   1      -5.309   0.637 126.510  0.00  0.00    +0.277 C 
ENDBRANCH   8  11
BRANCH   3  13
ATOM     13  O   LIG A   1      -6.946  -0.931 123.607  0.00  0.00    -0.481 OA
BRANCH  13  14
ATOM     14  C   LIG A   1      -6.330  -1.770 122.578  0.00  0.00    +0.256 C 
BRANCH  14  15
ATOM     15  C   LIG A   1      -5.088  -2.607 122.960  0.00  0.00    +0.006 C 
ATOM     16  C   LIG A   1      -4.920  -3.797 123.555  0.00  0.00    +0.007 C 
ENDBRANCH  14  15
ENDBRANCH  13  14
ENDBRANCH   3  13
ENDBRANCH   1   6
BRANCH   1  17
ATOM     17  C   LIG A   1      -8.091  -2.799 129.994  0.00  0.00    +0.043 C 
BRANCH  17  18
ATOM     18  C   LIG A   1      -6.947  -3.045 130.968  0.00  0.00    -0.040 A 
ATOM     19  C   LIG A   1      -7.157  -3.122 132.344  0.00  0.00    +0.053 A 
ATOM     20  C   LIG A   1      -6.094  -3.474 133.212  0.00  0.00    +0.165 A 
ATOM     21  C   LIG A   1      -4.805  -3.830 132.725  0.00  0.00    +0.203 A 
ATOM     22  C   LIG A   1      -4.559  -3.629 131.376  0.00  0.00    +0.165 A 
ATOM     23  C   LIG A   1      -5.640  -3.275 130.547  0.00  0.00    +0.053 A 
BRANCH  20  24
ATOM     24  O   LIG A   1      -6.432  -3.547 134.555  0.00  0.00    -0.491 OA
ATOM     25  C   LIG A   1      -6.368  -2.315 135.285  0.00  0.00    +0.277 C 
ENDBRANCH  20  24
BRANCH  22  26
ATOM     26  O   LIG A   1      -3.395  -3.691 130.661  0.00  0.00    -0.491 OA
ATOM     27  C   LIG A   1      -3.168  -2.659 129.736  0.00  0.00    +0.277 C 
ENDBRANCH  22  26
BRANCH  21  28
ATOM     28  O   LIG A   1      -4.089  -4.494 133.659  0.00  0.00    -0.488 OA
ATOM     29  C   LIG A   1      -2.838  -4.268 134.255  0.00  0.00    +0.277 C 
ENDBRANCH  21  28
ENDBRANCH  17  18
ENDBRANCH   1  17
TORSDOF 11
ENDMDL
MODEL 5
REMARK VINA RESULT:      -6.4      1.321      3.069
REMARK  Name = NuBBE_1993
REMARK  17 active torsions:
REMARK  status: ('A' for Active; 'I' for Inactive)
REMARK    1  A    between atoms: O_1  and  C_2
REMARK    2  A    between atoms: O_1  and  C_5
REMARK    3  A    between atoms: C_2  and  C_3
REMARK    4  A    between atoms: C_6  and  O_7
REMARK    5  A    between atoms: O_7  and  C_8
REMARK    6  A    between atoms: C_10  and  C_15
REMARK    7  A    between atoms: C_12  and  O_13
REMARK    8  A    between atoms: O_13  and  C_14
REMARK    9  A    between atoms: C_15  and  C_16
REMARK   10  A    between atoms: C_15  and  C_29
REMARK   11  A    between atoms: C_16  and  C_17
REMARK   12  A    between atoms: C_19  and  O_20
REMARK   13  A    between atoms: O_20  and  C_21
REMARK   14  A    between atoms: C_22  and  O_27
REMARK   15  A    between atoms: C_23  and  O_25
REMARK   16  A    between atoms: O_25  and  C_26
REMARK   17  A    between atoms: O_27  and  C_28
REMARK                            x       y       z     vdW  Elec       q    Type
REMARK                         _______ _______ _______ _____ _____    ______ ____
ROOT
ATOM      1  C   LIG A   1      -8.085  -3.535 128.340  0.00  0.00    +0.020 C 
ATOM      2  C   LIG A   1      -9.513  -4.189 128.519  0.00  0.00    +0.013 C 
ENDROOT
BRANCH   1   6
ATOM      3  C   LIG A   1      -7.454  -1.022 124.695  0.00  0.00    +0.204 A 
ATOM      4  C   LIG A   1      -6.552  -1.108 125.801  0.00  0.00    +0.166 A 
ATOM      5  C   LIG A   1      -6.949  -1.859 126.950  0.00  0.00    +0.053 A 
ATOM      6  C   LIG A   1      -7.958  -2.690 127.084  0.00  0.00    -0.037 A 
ATOM      7  C   LIG A   1      -8.820  -2.676 125.971  0.00  0.00    +0.053 A 
ATOM      8  C   LIG A   1      -8.566  -1.863 124.806  0.00  0.00    +0.166 A 
BRANCH   4   9
ATOM      9  O   LIG A   1      -5.289  -0.541 125.826  0.00  0.00    -0.491 OA
ATOM     10  C   LIG A   1      -5.248   0.678 126.612  0.00  0.00    +0.277 C 
ENDBRANCH   4   9
BRANCH   8  11
ATOM     11  O   LIG A   1      -9.430  -1.988 123.733  0.00  0.00    -0.491 OA
ATOM     12  C   LIG A   1      -9.678  -3.315 123.283  0.00  0.00    +0.277 C 
ENDBRANCH   8  11
BRANCH   3  13
ATOM     13  O   LIG A   1      -7.189  -0.116 123.651  0.00  0.00    -0.481 OA
BRANCH  13  14
ATOM     14  C   LIG A   1      -7.593   1.281 123.819  0.00  0.00    +0.256 C 
BRANCH  14  15
ATOM     15  C   LIG A   1      -8.929   1.577 124.540  0.00  0.00    +0.006 C 
ATOM     16  C   LIG A   1     -10.217   1.442 124.195  0.00  0.00    +0.007 C 
ENDBRANCH  14  15
ENDBRANCH  13  14
ENDBRANCH   3  13
ENDBRANCH   1   6
BRANCH   1  17
ATOM     17  C   LIG A   1      -7.792  -2.751 129.698  0.00  0.00    +0.043 C 
BRANCH  17  18
ATOM     18  C   LIG A   1      -6.629  -3.200 130.572  0.00  0.00    -0.040 A 
ATOM     19  C   LIG A   1      -5.341  -3.354 130.060  0.00  0.00    +0.053 A 
ATOM     20  C   LIG A   1      -4.259  -3.652 130.923  0.00  0.00    +0.165 A 
ATOM     21  C   LIG A   1      -4.416  -3.734 132.335  0.00  0.00    +0.203 A 
ATOM     22  C   LIG A   1      -5.710  -3.710 132.832  0.00  0.00    +0.165 A 
ATOM     23  C   LIG A   1      -6.760  -3.416 131.941  0.00  0.00    +0.053 A 
BRANCH  20  24
ATOM     24  O   LIG A   1      -3.023  -3.753 130.302  0.00  0.00    -0.491 OA
ATOM     25  C   LIG A   1      -3.036  -3.703 128.870  0.00  0.00    +0.277 C 
ENDBRANCH  20  24
BRANCH  22  26
ATOM     26  O   LIG A   1      -6.190  -3.954 134.088  0.00  0.00    -0.491 OA
ATOM     27  C   LIG A   1      -6.347  -5.302 134.453  0.00  0.00    +0.277 C 
ENDBRANCH  22  26
BRANCH  21  28
ATOM     28  O   LIG A   1      -3.229  -3.632 132.972  0.00  0.00    -0.488 OA
ATOM     29  C   LIG A   1      -2.664  -4.299 134.071  0.00  0.00    +0.277 C 
ENDBRANCH  21  28
ENDBRANCH  17  18
ENDBRANCH   1  17
TORSDOF 11
ENDMDL
MODEL 6
REMARK VINA RESULT:      -6.3      1.818      2.304
REMARK  Name = NuBBE_1993
REMARK  17 active torsions:
REMARK  status: ('A' for Active; 'I' for Inactive)
REMARK    1  A    between atoms: O_1  and  C_2
REMARK    2  A    between atoms: O_1  and  C_5
REMARK    3  A    between atoms: C_2  and  C_3
REMARK    4  A    between atoms: C_6  and  O_7
REMARK    5  A    between atoms: O_7  and  C_8
REMARK    6  A    between atoms: C_10  and  C_15
REMARK    7  A    between atoms: C_12  and  O_13
REMARK    8  A    between atoms: O_13  and  C_14
REMARK    9  A    between atoms: C_15  and  C_16
REMARK   10  A    between atoms: C_15  and  C_29
REMARK   11  A    between atoms: C_16  and  C_17
REMARK   12  A    between atoms: C_19  and  O_20
REMARK   13  A    between atoms: O_20  and  C_21
REMARK   14  A    between atoms: C_22  and  O_27
REMARK   15  A    between atoms: C_23  and  O_25
REMARK   16  A    between atoms: O_25  and  C_26
REMARK   17  A    between atoms: O_27  and  C_28
REMARK                            x       y       z     vdW  Elec       q    Type
REMARK                         _______ _______ _______ _____ _____    ______ ____
ROOT
ATOM      1  C   LIG A   1      -8.015  -3.364 128.364  0.00  0.00    +0.020 C 
ATOM      2  C   LIG A   1      -9.377  -4.167 128.392  0.00  0.00    +0.013 C 
ENDROOT
BRANCH   1   6
ATOM      3  C   LIG A   1      -8.029  -0.427 124.991  0.00  0.00    +0.204 A 
ATOM      4  C   LIG A   1      -8.771  -1.648 125.022  0.00  0.00    +0.166 A 
ATOM      5  C   LIG A   1      -8.570  -2.544 126.117  0.00  0.00    +0.053 A 
ATOM      6  C   LIG A   1      -7.944  -2.331 127.253  0.00  0.00    -0.037 A 
ATOM      7  C   LIG A   1      -7.266  -1.098 127.272  0.00  0.00    +0.053 A 
ATOM      8  C   LIG A   1      -7.314  -0.171 126.167  0.00  0.00    +0.166 A 
BRANCH   4   9
ATOM      9  O   LIG A   1      -9.714  -2.014 124.075  0.00  0.00    -0.491 OA
ATOM     10  C   LIG A   1      -9.361  -3.246 123.395  0.00  0.00    +0.277 C 
ENDBRANCH   4   9
BRANCH   8  11
ATOM     11  O   LIG A   1      -6.682   1.050 126.322  0.00  0.00    -0.491 OA
ATOM     12  C   LIG A   1      -7.135   1.852 127.406  0.00  0.00    +0.277 C 
ENDBRANCH   8  11
BRANCH   3  13
ATOM     13  O   LIG A   1      -8.038   0.364 123.828  0.00  0.00    -0.481 OA
BRANCH  13  14
ATOM     14  C   LIG A   1      -9.043   1.422 123.710  0.00  0.00    +0.256 C 
BRANCH  14  15
ATOM     15  C   LIG A   1      -8.632   2.753 123.039  0.00  0.00    +0.006 C 
ATOM     16  C   LIG A   1      -8.636   3.192 121.773  0.00  0.00    +0.007 C 
ENDBRANCH  14  15
ENDBRANCH  13  14
ENDBRANCH   3  13
ENDBRANCH   1   6
BRANCH   1  17
ATOM     17  C   LIG A   1      -7.827  -2.773 129.833  0.00  0.00    +0.043 C 
BRANCH  17  18
ATOM     18  C   LIG A   1      -6.643  -3.237 130.669  0.00  0.00    -0.040 A 
ATOM     19  C   LIG A   1      -5.361  -3.348 130.130  0.00  0.00    +0.053 A 
ATOM     20  C   LIG A   1      -4.260  -3.664 130.963  0.00  0.00    +0.165 A 
ATOM     21  C   LIG A   1      -4.392  -3.806 132.373  0.00  0.00    +0.203 A 
ATOM     22  C   LIG A   1      -5.678  -3.824 132.891  0.00  0.00    +0.165 A 
ATOM     23  C   LIG A   1      -6.747  -3.512 132.030  0.00  0.00    +0.053 A 
BRANCH  20  24
ATOM     24  O   LIG A   1      -3.033  -3.718 130.319  0.00  0.00    -0.491 OA
ATOM     25  C   LIG A   1      -3.078  -3.733 128.886  0.00  0.00    +0.277 C 
ENDBRANCH  20  24
BRANCH  22  26
ATOM     26  O   LIG A   1      -6.133  -4.128 134.143  0.00  0.00    -0.491 OA
ATOM     27  C   LIG A   1      -6.193  -5.491 134.480  0.00  0.00    +0.277 C 
ENDBRANCH  22  26
BRANCH  21  28
ATOM     28  O   LIG A   1      -3.196  -3.711 132.994  0.00  0.00    -0.488 OA
ATOM     29  C   LIG A   1      -2.542  -4.501 133.953  0.00  0.00    +0.277 C 
ENDBRANCH  21  28
ENDBRANCH  17  18
ENDBRANCH   1  17
TORSDOF 11
ENDMDL
MODEL 7
REMARK VINA RESULT:      -6.3      1.532      3.908
REMARK  Name = NuBBE_1993
REMARK  17 active torsions:
REMARK  status: ('A' for Active; 'I' for Inactive)
REMARK    1  A    between atoms: O_1  and  C_2
REMARK    2  A    between atoms: O_1  and  C_5
REMARK    3  A    between atoms: C_2  and  C_3
REMARK    4  A    between atoms: C_6  and  O_7
REMARK    5  A    between atoms: O_7  and  C_8
REMARK    6  A    between atoms: C_10  and  C_15
REMARK    7  A    between atoms: C_12  and  O_13
REMARK    8  A    between atoms: O_13  and  C_14
REMARK    9  A    between atoms: C_15  and  C_16
REMARK   10  A    between atoms: C_15  and  C_29
REMARK   11  A    between atoms: C_16  and  C_17
REMARK   12  A    between atoms: C_19  and  O_20
REMARK   13  A    between atoms: O_20  and  C_21
REMARK   14  A    between atoms: C_22  and  O_27
REMARK   15  A    between atoms: C_23  and  O_25
REMARK   16  A    between atoms: O_25  and  C_26
REMARK   17  A    between atoms: O_27  and  C_28
REMARK                            x       y       z     vdW  Elec       q    Type
REMARK                         _______ _______ _______ _____ _____    ______ ____
ROOT
ATOM      1  C   LIG A   1      -7.982  -3.314 128.254  0.00  0.00    +0.020 C 
ATOM      2  C   LIG A   1      -9.294  -4.193 128.335  0.00  0.00    +0.013 C 
ENDROOT
BRANCH   1   6
ATOM      3  C   LIG A   1      -7.419  -0.881 124.543  0.00  0.00    +0.204 A 
ATOM      4  C   LIG A   1      -6.495  -0.946 125.632  0.00  0.00    +0.166 A 
ATOM      5  C   LIG A   1      -6.871  -1.672 126.805  0.00  0.00    +0.053 A 
ATOM      6  C   LIG A   1      -7.879  -2.497 126.977  0.00  0.00    -0.037 A 
ATOM      7  C   LIG A   1      -8.763  -2.504 125.881  0.00  0.00    +0.053 A 
ATOM      8  C   LIG A   1      -8.531  -1.717 124.695  0.00  0.00    +0.166 A 
BRANCH   4   9
ATOM      9  O   LIG A   1      -5.231  -0.382 125.620  0.00  0.00    -0.491 OA
ATOM     10  C   LIG A   1      -5.188   0.890 126.315  0.00  0.00    +0.277 C 
ENDBRANCH   4   9
BRANCH   8  11
ATOM     11  O   LIG A   1      -9.417  -1.862 123.642  0.00  0.00    -0.491 OA
ATOM     12  C   LIG A   1      -9.638  -3.194 123.193  0.00  0.00    +0.277 C 
ENDBRANCH   8  11
BRANCH   3  13
ATOM     13  O   LIG A   1      -7.174   0.001 123.475  0.00  0.00    -0.481 OA
BRANCH  13  14
ATOM     14  C   LIG A   1      -7.740   1.349 123.538  0.00  0.00    +0.256 C 
BRANCH  14  15
ATOM     15  C   LIG A   1      -6.829   2.546 123.181  0.00  0.00    +0.006 C 
ATOM     16  C   LIG A   1      -6.367   3.047 122.027  0.00  0.00    +0.007 C 
ENDBRANCH  14  15
ENDBRANCH  13  14
ENDBRANCH   3  13
ENDBRANCH   1   6
BRANCH   1  17
ATOM     17  C   LIG A   1      -7.951  -2.453 129.596  0.00  0.00    +0.043 C 
BRANCH  17  18
ATOM     18  C   LIG A   1      -6.937  -2.808 130.675  0.00  0.00    -0.040 A 
ATOM     19  C   LIG A   1      -7.304  -2.936 132.015  0.00  0.00    +0.053 A 
ATOM     20  C   LIG A   1      -6.365  -3.387 132.974  0.00  0.00    +0.165 A 
ATOM     21  C   LIG A   1      -5.050  -3.795 132.613  0.00  0.00    +0.203 A 
ATOM     22  C   LIG A   1      -4.644  -3.547 131.311  0.00  0.00    +0.165 A 
ATOM     23  C   LIG A   1      -5.605  -3.093 130.388  0.00  0.00    +0.053 A 
BRANCH  20  24
ATOM     24  O   LIG A   1      -6.854  -3.502 134.266  0.00  0.00    -0.491 OA
ATOM     25  C   LIG A   1      -8.277  -3.623 134.389  0.00  0.00    +0.277 C 
ENDBRANCH  20  24
BRANCH  22  26
ATOM     26  O   LIG A   1      -3.412  -3.642 130.725  0.00  0.00    -0.491 OA
ATOM     27  C   LIG A   1      -3.370  -3.542 129.325  0.00  0.00    +0.277 C 
ENDBRANCH  22  26
BRANCH  21  28
ATOM     28  O   LIG A   1      -4.478  -4.540 133.584  0.00  0.00    -0.488 OA
ATOM     29  C   LIG A   1      -4.003  -5.860 133.633  0.00  0.00    +0.277 C 
ENDBRANCH  21  28
ENDBRANCH  17  18
ENDBRANCH   1  17
TORSDOF 11
ENDMDL
MODEL 8
REMARK VINA RESULT:      -6.2      5.596      8.024
REMARK  Name = NuBBE_1993
REMARK  17 active torsions:
REMARK  status: ('A' for Active; 'I' for Inactive)
REMARK    1  A    between atoms: O_1  and  C_2
REMARK    2  A    between atoms: O_1  and  C_5
REMARK    3  A    between atoms: C_2  and  C_3
REMARK    4  A    between atoms: C_6  and  O_7
REMARK    5  A    between atoms: O_7  and  C_8
REMARK    6  A    between atoms: C_10  and  C_15
REMARK    7  A    between atoms: C_12  and  O_13
REMARK    8  A    between atoms: O_13  and  C_14
REMARK    9  A    between atoms: C_15  and  C_16
REMARK   10  A    between atoms: C_15  and  C_29
REMARK   11  A    between atoms: C_16  and  C_17
REMARK   12  A    between atoms: C_19  and  O_20
REMARK   13  A    between atoms: O_20  and  C_21
REMARK   14  A    between atoms: C_22  and  O_27
REMARK   15  A    between atoms: C_23  and  O_25
REMARK   16  A    between atoms: O_25  and  C_26
REMARK   17  A    between atoms: O_27  and  C_28
REMARK                            x       y       z     vdW  Elec       q    Type
REMARK                         _______ _______ _______ _____ _____    ______ ____
ROOT
ATOM      1  C   LIG A   1      -8.372   1.109 131.629  0.00  0.00    +0.020 C 
ATOM      2  C   LIG A   1      -9.908   1.412 131.856  0.00  0.00    +0.013 C 
ENDROOT
BRANCH   1   6
ATOM      3  C   LIG A   1      -7.635  -1.558 128.116  0.00  0.00    +0.204 A 
ATOM      4  C   LIG A   1      -7.779  -2.000 129.468  0.00  0.00    +0.166 A 
ATOM      5  C   LIG A   1      -7.889  -1.017 130.500  0.00  0.00    +0.053 A 
ATOM      6  C   LIG A   1      -8.096   0.276 130.390  0.00  0.00    -0.037 A 
ATOM      7  C   LIG A   1      -8.033   0.720 129.056  0.00  0.00    +0.053 A 
ATOM      8  C   LIG A   1      -7.811  -0.180 127.950  0.00  0.00    +0.166 A 
BRANCH   4   9
ATOM      9  O   LIG A   1      -7.860  -3.327 129.853  0.00  0.00    -0.491 OA
ATOM     10  C   LIG A   1      -6.561  -3.890 130.169  0.00  0.00    +0.277 C 
ENDBRANCH   4   9
BRANCH   8  11
ATOM     11  O   LIG A   1      -7.851   0.347 126.672  0.00  0.00    -0.491 OA
ATOM     12  C   LIG A   1      -9.140   0.703 126.185  0.00  0.00    +0.277 C 
ENDBRANCH   8  11
BRANCH   3  13
ATOM     13  O   LIG A   1      -7.304  -2.487 127.113  0.00  0.00    -0.481 OA
BRANCH  13  14
ATOM     14  C   LIG A   1      -8.391  -3.148 126.386  0.00  0.00    +0.256 C 
BRANCH  14  15
ATOM     15  C   LIG A   1      -8.583  -2.812 124.890  0.00  0.00    +0.006 C 
ATOM     16  C   LIG A   1      -9.366  -3.310 123.922  0.00  0.00    +0.007 C 
ENDBRANCH  14  15
ENDBRANCH  13  14
ENDBRANCH   3  13
ENDBRANCH   1   6
BRANCH   1  17
ATOM     17  C   LIG A   1      -7.641   2.526 131.653  0.00  0.00    +0.043 C 
BRANCH  17  18
ATOM     18  C   LIG A   1      -8.327   3.721 131.004  0.00  0.00    -0.040 A 
ATOM     19  C   LIG A   1      -9.040   4.655 131.754  0.00  0.00    +0.053 A 
ATOM     20  C   LIG A   1      -9.561   5.819 131.138  0.00  0.00    +0.165 A 
ATOM     21  C   LIG A   1      -9.323   6.122 129.768  0.00  0.00    +0.203 A 
ATOM     22  C   LIG A   1      -8.729   5.137 128.994  0.00  0.00    +0.165 A 
ATOM     23  C   LIG A   1      -8.229   3.992 129.642  0.00  0.00    +0.053 A 
BRANCH  20  24
ATOM     24  O   LIG A   1     -10.226   6.688 131.991  0.00  0.00    -0.491 OA
ATOM     25  C   LIG A   1     -11.655   6.584 132.001  0.00  0.00    +0.277 C 
ENDBRANCH  20  24
BRANCH  22  26
ATOM     26  O   LIG A   1      -8.547   5.052 127.642  0.00  0.00    -0.491 OA
ATOM     27  C   LIG A   1      -7.708   4.024 127.182  0.00  0.00    +0.277 C 
ENDBRANCH  22  26
BRANCH  21  28
ATOM     28  O   LIG A   1      -9.560   7.426 129.501  0.00  0.00    -0.488 OA
ATOM     29  C   LIG A   1     -10.393   8.086 128.584  0.00  0.00    +0.277 C 
ENDBRANCH  21  28
ENDBRANCH  17  18
ENDBRANCH   1  17
TORSDOF 11
ENDMDL
MODEL 9
REMARK VINA RESULT:      -6.2      1.809      3.320
REMARK  Name = NuBBE_1993
REMARK  17 active torsions:
REMARK  status: ('A' for Active; 'I' for Inactive)
REMARK    1  A    between atoms: O_1  and  C_2
REMARK    2  A    between atoms: O_1  and  C_5
REMARK    3  A    between atoms: C_2  and  C_3
REMARK    4  A    between atoms: C_6  and  O_7
REMARK    5  A    between atoms: O_7  and  C_8
REMARK    6  A    between atoms: C_10  and  C_15
REMARK    7  A    between atoms: C_12  and  O_13
REMARK    8  A    between atoms: O_13  and  C_14
REMARK    9  A    between atoms: C_15  and  C_16
REMARK   10  A    between atoms: C_15  and  C_29
REMARK   11  A    between atoms: C_16  and  C_17
REMARK   12  A    between atoms: C_19  and  O_20
REMARK   13  A    between atoms: O_20  and  C_21
REMARK   14  A    between atoms: C_22  and  O_27
REMARK   15  A    between atoms: C_23  and  O_25
REMARK   16  A    between atoms: O_25  and  C_26
REMARK   17  A    between atoms: O_27  and  C_28
REMARK                            x       y       z     vdW  Elec       q    Type
REMARK                         _______ _______ _______ _____ _____    ______ ____
ROOT
ATOM      1  C   LIG A   1      -7.928  -3.219 128.323  0.00  0.00    +0.020 C 
ATOM      2  C   LIG A   1      -9.124  -4.243 128.178  0.00  0.00    +0.013 C 
ENDROOT
BRANCH   1   6
ATOM      3  C   LIG A   1      -7.960  -0.324 124.914  0.00  0.00    +0.204 A 
ATOM      4  C   LIG A   1      -8.697  -1.547 124.961  0.00  0.00    +0.166 A 
ATOM      5  C   LIG A   1      -8.490  -2.429 126.067  0.00  0.00    +0.053 A 
ATOM      6  C   LIG A   1      -7.864  -2.199 127.199  0.00  0.00    -0.037 A 
ATOM      7  C   LIG A   1      -7.191  -0.962 127.202  0.00  0.00    +0.053 A 
ATOM      8  C   LIG A   1      -7.245  -0.050 126.085  0.00  0.00    +0.166 A 
BRANCH   4   9
ATOM      9  O   LIG A   1      -9.639  -1.930 124.021  0.00  0.00    -0.491 OA
ATOM     10  C   LIG A   1      -9.445  -3.295 123.569  0.00  0.00    +0.277 C 
ENDBRANCH   4   9
BRANCH   8  11
ATOM     11  O   LIG A   1      -6.618   1.175 126.224  0.00  0.00    -0.491 OA
ATOM     12  C   LIG A   1      -5.196   1.156 126.184  0.00  0.00    +0.277 C 
ENDBRANCH   8  11
BRANCH   3  13
ATOM     13  O   LIG A   1      -7.975   0.452 123.741  0.00  0.00    -0.481 OA
BRANCH  13  14
ATOM     14  C   LIG A   1      -9.014   1.473 123.591  0.00  0.00    +0.256 C 
BRANCH  14  15
ATOM     15  C   LIG A   1      -8.634   2.815 122.925  0.00  0.00    +0.006 C 
ATOM     16  C   LIG A   1      -8.611   3.245 121.655  0.00  0.00    +0.007 C 
ENDBRANCH  14  15
ENDBRANCH  13  14
ENDBRANCH   3  13
ENDBRANCH   1   6
BRANCH   1  17
ATOM     17  C   LIG A   1      -8.067  -2.590 129.782  0.00  0.00    +0.043 C 
BRANCH  17  18
ATOM     18  C   LIG A   1      -6.950  -2.814 130.791  0.00  0.00    -0.040 A 
ATOM     19  C   LIG A   1      -7.204  -2.920 132.158  0.00  0.00    +0.053 A 
ATOM     20  C   LIG A   1      -6.160  -3.251 133.057  0.00  0.00    +0.165 A 
ATOM     21  C   LIG A   1      -4.844  -3.558 132.609  0.00  0.00    +0.203 A 
ATOM     22  C   LIG A   1      -4.559  -3.328 131.272  0.00  0.00    +0.165 A 
ATOM     23  C   LIG A   1      -5.622  -2.995 130.412  0.00  0.00    +0.053 A 
BRANCH  20  24
ATOM     24  O   LIG A   1      -6.541  -3.357 134.386  0.00  0.00    -0.491 OA
ATOM     25  C   LIG A   1      -7.430  -4.437 134.699  0.00  0.00    +0.277 C 
ENDBRANCH  20  24
BRANCH  22  26
ATOM     26  O   LIG A   1      -3.371  -3.340 130.597  0.00  0.00    -0.491 OA
ATOM     27  C   LIG A   1      -3.419  -3.707 129.242  0.00  0.00    +0.277 C 
ENDBRANCH  22  26
BRANCH  21  28
ATOM     28  O   LIG A   1      -4.139  -4.213 133.558  0.00  0.00    -0.488 OA
ATOM     29  C   LIG A   1      -3.203  -5.258 133.513  0.00  0.00    +0.277 C 
ENDBRANCH  21  28
ENDBRANCH  17  18
ENDBRANCH   1  17
TORSDOF 11
ENDMDL
