MODEL 1
REMARK VINA RESULT:      -6.3      0.000      0.000
REMARK  Name = NuBBE_2051
REMARK  4 active torsions:
REMARK  status: ('A' for Active; 'I' for Inactive)
REMARK    1  A    between atoms: O_1  and  C_2
REMARK    2  A    between atoms: C_6  and  O_8
REMARK    3  A    between atoms: O_8  and  C_9
REMARK    4  A    between atoms: C_12  and  C_16
REMARK                            x       y       z     vdW  Elec       q    Type
REMARK                         _______ _______ _______ _____ _____    ______ ____
ROOT
ATOM      1  C   LIG A   1     -10.502   6.838 128.188  0.00  0.00    +0.135 A 
ATOM      2  C   LIG A   1     -10.223   6.314 129.459  0.00  0.00    +0.110 A 
ATOM      3  C   LIG A   1     -11.025   6.661 130.554  0.00  0.00    +0.018 A 
ATOM      4  C   LIG A   1     -12.110   7.542 130.348  0.00  0.00    +0.091 A 
ATOM      5  C   LIG A   1     -12.389   8.066 129.066  0.00  0.00    +0.142 A 
ATOM      6  C   LIG A   1     -11.574   7.707 127.992  0.00  0.00    +0.093 A 
ATOM      7 CL   LIG A   1     -13.137   8.005 131.678  0.00  0.00    -0.079 Cl
ATOM      8  C   LIG A   1     -10.693   6.087 131.860  0.00  0.00    +0.051 A 
ATOM      9  C   LIG A   1      -9.651   5.257 131.981  0.00  0.00    +0.107 A 
ATOM     10  O   LIG A   1      -8.840   4.903 130.885  0.00  0.00    -0.427 OA
ATOM     11  C   LIG A   1      -9.076   5.392 129.636  0.00  0.00    +0.348 A 
ATOM     12  O   LIG A   1      -8.375   5.091 128.672  0.00  0.00    -0.244 OA
ATOM     13  C   LIG A   1      -9.238   4.623 133.269  0.00  0.00    +0.086 C 
ENDROOT
BRANCH   1  14
ATOM     14  O   LIG A   1      -9.766   6.548 127.070  0.00  0.00    -0.506 OA
ATOM     15  H   LIG A   1      -9.382   7.382 126.713  0.00  0.00    +0.292 HD
ENDBRANCH   1  14
BRANCH   5  16
ATOM     16  O   LIG A   1     -13.463   8.913 128.963  0.00  0.00    -0.493 OA
ATOM     17  C   LIG A   1     -13.249  10.295 129.222  0.00  0.00    +0.277 C 
ENDBRANCH   5  16
TORSDOF 2
ENDMDL
MODEL 2
REMARK VINA RESULT:      -6.0      1.354      4.584
REMARK  Name = NuBBE_2051
REMARK  4 active torsions:
REMARK  status: ('A' for Active; 'I' for Inactive)
REMARK    1  A    between atoms: O_1  and  C_2
REMARK    2  A    between atoms: C_6  and  O_8
REMARK    3  A    between atoms: O_8  and  C_9
REMARK    4  A    between atoms: C_12  and  C_16
REMARK                            x       y       z     vdW  Elec       q    Type
REMARK                         _______ _______ _______ _____ _____    ______ ____
ROOT
ATOM      1  C   LIG A   1      -9.509   5.890 128.196  0.00  0.00    +0.135 A 
ATOM      2  C   LIG A   1     -10.496   6.858 128.432  0.00  0.00    +0.110 A 
ATOM      3  C   LIG A   1     -10.994   7.052 129.727  0.00  0.00    +0.018 A 
ATOM      4  C   LIG A   1     -10.483   6.256 130.776  0.00  0.00    +0.091 A 
ATOM      5  C   LIG A   1      -9.488   5.284 130.535  0.00  0.00    +0.142 A 
ATOM      6  C   LIG A   1      -9.009   5.108 129.236  0.00  0.00    +0.093 A 
ATOM      7 CL   LIG A   1     -11.071   6.459 132.405  0.00  0.00    -0.079 Cl
ATOM      8  C   LIG A   1     -12.023   8.075 129.922  0.00  0.00    +0.051 A 
ATOM      9  C   LIG A   1     -12.459   8.793 128.881  0.00  0.00    +0.107 A 
ATOM     10  O   LIG A   1     -11.962   8.604 127.576  0.00  0.00    -0.427 OA
ATOM     11  C   LIG A   1     -11.007   7.673 127.305  0.00  0.00    +0.348 A 
ATOM     12  O   LIG A   1     -10.566   7.499 126.170  0.00  0.00    -0.244 OA
ATOM     13  C   LIG A   1     -13.503   9.858 128.983  0.00  0.00    +0.086 C 
ENDROOT
BRANCH   1  14
ATOM     14  O   LIG A   1      -8.972   5.639 126.960  0.00  0.00    -0.506 OA
ATOM     15  H   LIG A   1      -8.081   5.236 127.073  0.00  0.00    +0.292 HD
ENDBRANCH   1  14
BRANCH   5  16
ATOM     16  O   LIG A   1      -9.053   4.560 131.616  0.00  0.00    -0.493 OA
ATOM     17  C   LIG A   1      -9.428   3.190 131.696  0.00  0.00    +0.277 C 
ENDBRANCH   5  16
TORSDOF 2
ENDMDL
MODEL 3
REMARK VINA RESULT:      -5.9      7.266      8.763
REMARK  Name = NuBBE_2051
REMARK  4 active torsions:
REMARK  status: ('A' for Active; 'I' for Inactive)
REMARK    1  A    between atoms: O_1  and  C_2
REMARK    2  A    between atoms: C_6  and  O_8
REMARK    3  A    between atoms: O_8  and  C_9
REMARK    4  A    between atoms: C_12  and  C_16
REMARK                            x       y       z     vdW  Elec       q    Type
REMARK                         _______ _______ _______ _____ _____    ______ ____
ROOT
ATOM      1  C   LIG A   1      -8.355   2.941 123.461  0.00  0.00    +0.135 A 
ATOM      2  C   LIG A   1      -7.343   3.339 124.347  0.00  0.00    +0.110 A 
ATOM      3  C   LIG A   1      -6.138   3.855 123.850  0.00  0.00    +0.018 A 
ATOM      4  C   LIG A   1      -5.972   3.962 122.452  0.00  0.00    +0.091 A 
ATOM      5  C   LIG A   1      -6.994   3.561 121.563  0.00  0.00    +0.142 A 
ATOM      6  C   LIG A   1      -8.184   3.049 122.082  0.00  0.00    +0.093 A 
ATOM      7 CL   LIG A   1      -4.491   4.596 121.784  0.00  0.00    -0.079 Cl
ATOM      8  C   LIG A   1      -5.113   4.258 124.815  0.00  0.00    +0.051 A 
ATOM      9  C   LIG A   1      -5.342   4.129 126.127  0.00  0.00    +0.107 A 
ATOM     10  O   LIG A   1      -6.550   3.613 126.633  0.00  0.00    -0.427 OA
ATOM     11  C   LIG A   1      -7.556   3.212 125.808  0.00  0.00    +0.348 A 
ATOM     12  O   LIG A   1      -8.615   2.759 126.238  0.00  0.00    -0.244 OA
ATOM     13  C   LIG A   1      -4.357   4.515 127.184  0.00  0.00    +0.086 C 
ENDROOT
BRANCH   1  14
ATOM     14  O   LIG A   1      -9.559   2.427 123.867  0.00  0.00    -0.506 OA
ATOM     15  H   LIG A   1      -9.531   1.446 123.792  0.00  0.00    +0.292 HD
ENDBRANCH   1  14
BRANCH   5  16
ATOM     16  O   LIG A   1      -6.741   3.703 120.222  0.00  0.00    -0.493 OA
ATOM     17  C   LIG A   1      -7.748   4.299 119.414  0.00  0.00    +0.277 C 
ENDBRANCH   5  16
TORSDOF 2
ENDMDL
MODEL 4
REMARK VINA RESULT:      -5.8      8.204      9.604
REMARK  Name = NuBBE_2051
REMARK  4 active torsions:
REMARK  status: ('A' for Active; 'I' for Inactive)
REMARK    1  A    between atoms: O_1  and  C_2
REMARK    2  A    between atoms: C_6  and  O_8
REMARK    3  A    between atoms: O_8  and  C_9
REMARK    4  A    between atoms: C_12  and  C_16
REMARK                            x       y       z     vdW  Elec       q    Type
REMARK                         _______ _______ _______ _____ _____    ______ ____
ROOT
ATOM      1  C   LIG A   1      -9.611   0.773 123.239  0.00  0.00    +0.135 A 
ATOM      2  C   LIG A   1      -8.603  -0.150 123.554  0.00  0.00    +0.110 A 
ATOM      3  C   LIG A   1      -7.394   0.291 124.108  0.00  0.00    +0.018 A 
ATOM      4  C   LIG A   1      -7.218   1.673 124.338  0.00  0.00    +0.091 A 
ATOM      5  C   LIG A   1      -8.235   2.600 124.022  0.00  0.00    +0.142 A 
ATOM      6  C   LIG A   1      -9.430   2.136 123.469  0.00  0.00    +0.093 A 
ATOM      7 CL   LIG A   1      -5.732   2.273 125.025  0.00  0.00    -0.079 Cl
ATOM      8  C   LIG A   1      -6.373  -0.712 124.420  0.00  0.00    +0.051 A 
ATOM      9  C   LIG A   1      -6.610  -2.006 124.176  0.00  0.00    +0.107 A 
ATOM     10  O   LIG A   1      -7.823  -2.457 123.620  0.00  0.00    -0.427 OA
ATOM     11  C   LIG A   1      -8.825  -1.593 123.298  0.00  0.00    +0.348 A 
ATOM     12  O   LIG A   1      -9.888  -1.975 122.812  0.00  0.00    -0.244 OA
ATOM     13  C   LIG A   1      -5.632  -3.099 124.462  0.00  0.00    +0.086 C 
ENDROOT
BRANCH   1  14
ATOM     14  O   LIG A   1     -10.818   0.423 122.695  0.00  0.00    -0.506 OA
ATOM     15  H   LIG A   1     -10.778   0.541 121.719  0.00  0.00    +0.292 HD
ENDBRANCH   1  14
BRANCH   5  16
ATOM     16  O   LIG A   1      -7.974   3.922 124.281  0.00  0.00    -0.493 OA
ATOM     17  C   LIG A   1      -8.301   4.425 125.571  0.00  0.00    +0.277 C 
ENDBRANCH   5  16
TORSDOF 2
ENDMDL
MODEL 5
REMARK VINA RESULT:      -5.8     10.351     11.239
REMARK  Name = NuBBE_2051
REMARK  4 active torsions:
REMARK  status: ('A' for Active; 'I' for Inactive)
REMARK    1  A    between atoms: O_1  and  C_2
REMARK    2  A    between atoms: C_6  and  O_8
REMARK    3  A    between atoms: O_8  and  C_9
REMARK    4  A    between atoms: C_12  and  C_16
REMARK                            x       y       z     vdW  Elec       q    Type
REMARK                         _______ _______ _______ _____ _____    ______ ____
ROOT
ATOM      1  C   LIG A   1      -6.062  -1.737 127.548  0.00  0.00    +0.135 A 
ATOM      2  C   LIG A   1      -6.935  -2.116 126.516  0.00  0.00    +0.110 A 
ATOM      3  C   LIG A   1      -8.060  -2.901 126.801  0.00  0.00    +0.018 A 
ATOM      4  C   LIG A   1      -8.291  -3.296 128.137  0.00  0.00    +0.091 A 
ATOM      5  C   LIG A   1      -7.411  -2.912 129.173  0.00  0.00    +0.142 A 
ATOM      6  C   LIG A   1      -6.296  -2.131 128.864  0.00  0.00    +0.093 A 
ATOM      7 CL   LIG A   1      -9.677  -4.273 128.543  0.00  0.00    -0.079 Cl
ATOM      8  C   LIG A   1      -8.941  -3.269 125.690  0.00  0.00    +0.051 A 
ATOM      9  C   LIG A   1      -8.660  -2.856 124.449  0.00  0.00    +0.107 A 
ATOM     10  O   LIG A   1      -7.532  -2.067 124.156  0.00  0.00    -0.427 OA
ATOM     11  C   LIG A   1      -6.659  -1.681 125.127  0.00  0.00    +0.348 A 
ATOM     12  O   LIG A   1      -5.670  -0.993 124.883  0.00  0.00    -0.244 OA
ATOM     13  C   LIG A   1      -9.500  -3.180 123.256  0.00  0.00    +0.086 C 
ENDROOT
BRANCH   1  14
ATOM     14  O   LIG A   1      -4.942  -0.974 127.352  0.00  0.00    -0.506 OA
ATOM     15  H   LIG A   1      -4.497  -0.827 128.218  0.00  0.00    +0.292 HD
ENDBRANCH   1  14
BRANCH   5  16
ATOM     16  O   LIG A   1      -7.717  -3.343 130.439  0.00  0.00    -0.493 OA
ATOM     17  C   LIG A   1      -6.686  -3.318 131.419  0.00  0.00    +0.277 C 
ENDBRANCH   5  16
TORSDOF 2
ENDMDL
MODEL 6
REMARK VINA RESULT:      -5.8      2.574      3.918
REMARK  Name = NuBBE_2051
REMARK  4 active torsions:
REMARK  status: ('A' for Active; 'I' for Inactive)
REMARK    1  A    between atoms: O_1  and  C_2
REMARK    2  A    between atoms: C_6  and  O_8
REMARK    3  A    between atoms: O_8  and  C_9
REMARK    4  A    between atoms: C_12  and  C_16
REMARK                            x       y       z     vdW  Elec       q    Type
REMARK                         _______ _______ _______ _____ _____    ______ ____
ROOT
ATOM      1  C   LIG A   1     -10.173   5.748 132.362  0.00  0.00    +0.135 A 
ATOM      2  C   LIG A   1      -8.911   6.169 131.917  0.00  0.00    +0.110 A 
ATOM      3  C   LIG A   1      -8.802   6.993 130.789  0.00  0.00    +0.018 A 
ATOM      4  C   LIG A   1      -9.982   7.384 130.119  0.00  0.00    +0.091 A 
ATOM      5  C   LIG A   1     -11.251   6.959 130.570  0.00  0.00    +0.142 A 
ATOM      6  C   LIG A   1     -11.333   6.138 131.695  0.00  0.00    +0.093 A 
ATOM      7 CL   LIG A   1      -9.900   8.407 128.710  0.00  0.00    -0.079 Cl
ATOM      8  C   LIG A   1      -7.462   7.405 130.365  0.00  0.00    +0.051 A 
ATOM      9  C   LIG A   1      -6.389   6.997 131.051  0.00  0.00    +0.107 A 
ATOM     10  O   LIG A   1      -6.490   6.170 132.186  0.00  0.00    -0.427 OA
ATOM     11  C   LIG A   1      -7.696   5.737 132.648  0.00  0.00    +0.348 A 
ATOM     12  O   LIG A   1      -7.797   5.014 133.637  0.00  0.00    -0.244 OA
ATOM     13  C   LIG A   1      -4.985   7.368 130.695  0.00  0.00    +0.086 C 
ENDROOT
BRANCH   1  14
ATOM     14  O   LIG A   1     -10.364   4.942 133.454  0.00  0.00    -0.506 OA
ATOM     15  H   LIG A   1     -10.054   4.033 133.240  0.00  0.00    +0.292 HD
ENDBRANCH   1  14
BRANCH   5  16
ATOM     16  O   LIG A   1     -12.340   7.390 129.855  0.00  0.00    -0.493 OA
ATOM     17  C   LIG A   1     -12.940   6.481 128.942  0.00  0.00    +0.277 C 
ENDBRANCH   5  16
TORSDOF 2
ENDMDL
MODEL 7
REMARK VINA RESULT:      -5.7      8.137      9.745
REMARK  Name = NuBBE_2051
REMARK  4 active torsions:
REMARK  status: ('A' for Active; 'I' for Inactive)
REMARK    1  A    between atoms: O_1  and  C_2
REMARK    2  A    between atoms: C_6  and  O_8
REMARK    3  A    between atoms: O_8  and  C_9
REMARK    4  A    between atoms: C_12  and  C_16
REMARK                            x       y       z     vdW  Elec       q    Type
REMARK                         _______ _______ _______ _____ _____    ______ ____
ROOT
ATOM      1  C   LIG A   1      -8.281   2.180 123.346  0.00  0.00    +0.135 A 
ATOM      2  C   LIG A   1      -8.471   0.801 123.519  0.00  0.00    +0.110 A 
ATOM      3  C   LIG A   1      -7.591   0.066 124.324  0.00  0.00    +0.018 A 
ATOM      4  C   LIG A   1      -6.520   0.741 124.949  0.00  0.00    +0.091 A 
ATOM      5  C   LIG A   1      -6.332   2.130 124.775  0.00  0.00    +0.142 A 
ATOM      6  C   LIG A   1      -7.222   2.840 123.967  0.00  0.00    +0.093 A 
ATOM      7 CL   LIG A   1      -5.397  -0.129 125.960  0.00  0.00    -0.079 Cl
ATOM      8  C   LIG A   1      -7.832  -1.371 124.473  0.00  0.00    +0.051 A 
ATOM      9  C   LIG A   1      -8.869  -1.943 123.851  0.00  0.00    +0.107 A 
ATOM     10  O   LIG A   1      -9.758  -1.211 123.041  0.00  0.00    -0.427 OA
ATOM     11  C   LIG A   1      -9.607   0.128 122.846  0.00  0.00    +0.348 A 
ATOM     12  O   LIG A   1     -10.376   0.778 122.140  0.00  0.00    -0.244 OA
ATOM     13  C   LIG A   1      -9.195  -3.399 123.946  0.00  0.00    +0.086 C 
ENDROOT
BRANCH   1  14
ATOM     14  O   LIG A   1      -9.095   2.968 122.575  0.00  0.00    -0.506 OA
ATOM     15  H   LIG A   1     -10.003   2.961 122.956  0.00  0.00    +0.292 HD
ENDBRANCH   1  14
BRANCH   5  16
ATOM     16  O   LIG A   1      -5.265   2.699 125.422  0.00  0.00    -0.493 OA
ATOM     17  C   LIG A   1      -5.355   4.073 125.774  0.00  0.00    +0.277 C 
ENDBRANCH   5  16
TORSDOF 2
ENDMDL
MODEL 8
REMARK VINA RESULT:      -5.7      6.730      8.934
REMARK  Name = NuBBE_2051
REMARK  4 active torsions:
REMARK  status: ('A' for Active; 'I' for Inactive)
REMARK    1  A    between atoms: O_1  and  C_2
REMARK    2  A    between atoms: C_6  and  O_8
REMARK    3  A    between atoms: O_8  and  C_9
REMARK    4  A    between atoms: C_12  and  C_16
REMARK                            x       y       z     vdW  Elec       q    Type
REMARK                         _______ _______ _______ _____ _____    ______ ____
ROOT
ATOM      1  C   LIG A   1      -8.532   2.666 124.744  0.00  0.00    +0.135 A 
ATOM      2  C   LIG A   1      -7.697   3.110 123.707  0.00  0.00    +0.110 A 
ATOM      3  C   LIG A   1      -6.403   3.564 123.994  0.00  0.00    +0.018 A 
ATOM      4  C   LIG A   1      -5.966   3.565 125.337  0.00  0.00    +0.091 A 
ATOM      5  C   LIG A   1      -6.809   3.116 126.378  0.00  0.00    +0.142 A 
ATOM      6  C   LIG A   1      -8.094   2.669 126.067  0.00  0.00    +0.093 A 
ATOM      7 CL   LIG A   1      -4.365   4.121 125.746  0.00  0.00    -0.079 Cl
ATOM      8  C   LIG A   1      -5.570   4.016 122.878  0.00  0.00    +0.051 A 
ATOM      9  C   LIG A   1      -6.049   3.986 121.630  0.00  0.00    +0.107 A 
ATOM     10  O   LIG A   1      -7.348   3.530 121.334  0.00  0.00    -0.427 OA
ATOM     11  C   LIG A   1      -8.191   3.094 122.310  0.00  0.00    +0.348 A 
ATOM     12  O   LIG A   1      -9.327   2.694 122.065  0.00  0.00    -0.244 OA
ATOM     13  C   LIG A   1      -5.273   4.424 120.429  0.00  0.00    +0.086 C 
ENDROOT
BRANCH   1  14
ATOM     14  O   LIG A   1      -9.808   2.209 124.546  0.00  0.00    -0.506 OA
ATOM     15  H   LIG A   1     -10.278   2.185 125.411  0.00  0.00    +0.292 HD
ENDBRANCH   1  14
BRANCH   5  16
ATOM     16  O   LIG A   1      -6.298   3.153 127.650  0.00  0.00    -0.493 OA
ATOM     17  C   LIG A   1      -6.873   4.069 128.573  0.00  0.00    +0.277 C 
ENDBRANCH   5  16
TORSDOF 2
ENDMDL
MODEL 9
REMARK VINA RESULT:      -5.6      9.625     10.396
REMARK  Name = NuBBE_2051
REMARK  4 active torsions:
REMARK  status: ('A' for Active; 'I' for Inactive)
REMARK    1  A    between atoms: O_1  and  C_2
REMARK    2  A    between atoms: C_6  and  O_8
REMARK    3  A    between atoms: O_8  and  C_9
REMARK    4  A    between atoms: C_12  and  C_16
REMARK                            x       y       z     vdW  Elec       q    Type
REMARK                         _______ _______ _______ _____ _____    ______ ____
ROOT
ATOM      1  C   LIG A   1      -9.028  -2.498 125.887  0.00  0.00    +0.135 A 
ATOM      2  C   LIG A   1      -8.151  -2.674 126.967  0.00  0.00    +0.110 A 
ATOM      3  C   LIG A   1      -6.924  -1.998 126.993  0.00  0.00    +0.018 A 
ATOM      4  C   LIG A   1      -6.597  -1.145 125.916  0.00  0.00    +0.091 A 
ATOM      5  C   LIG A   1      -7.483  -0.969 124.831  0.00  0.00    +0.142 A 
ATOM      6  C   LIG A   1      -8.699  -1.655 124.827  0.00  0.00    +0.093 A 
ATOM      7 CL   LIG A   1      -5.082  -0.283 125.900  0.00  0.00    -0.079 Cl
ATOM      8  C   LIG A   1      -6.043  -2.215 128.143  0.00  0.00    +0.051 A 
ATOM      9  C   LIG A   1      -6.420  -3.037 129.129  0.00  0.00    +0.107 A 
ATOM     10  O   LIG A   1      -7.652  -3.719 129.110  0.00  0.00    -0.427 OA
ATOM     11  C   LIG A   1      -8.530  -3.578 128.079  0.00  0.00    +0.348 A 
ATOM     12  O   LIG A   1      -9.608  -4.168 128.051  0.00  0.00    -0.244 OA
ATOM     13  C   LIG A   1      -5.591  -3.318 130.340  0.00  0.00    +0.086 C 
ENDROOT
BRANCH   1  14
ATOM     14  O   LIG A   1     -10.244  -3.123 125.787  0.00  0.00    -0.506 OA
ATOM     15  H   LIG A   1     -10.278  -3.865 126.432  0.00  0.00    +0.292 HD
ENDBRANCH   1  14
BRANCH   5  16
ATOM     16  O   LIG A   1      -7.080  -0.121 123.831  0.00  0.00    -0.493 OA
ATOM     17  C   LIG A   1      -7.855   1.048 123.595  0.00  0.00    +0.277 C 
ENDBRANCH   5  16
TORSDOF 2
ENDMDL
