MODEL 1
REMARK VINA RESULT:      -8.1      0.000      0.000
REMARK  Name = NuBBE_226
REMARK  18 active torsions:
REMARK  status: ('A' for Active; 'I' for Inactive)
REMARK    1  A    between atoms: C_1  and  C_2
REMARK    2  A    between atoms: C_4  and  O_6
REMARK    3  A    between atoms: O_6  and  C_7
REMARK    4  A    between atoms: C_7  and  C_8
REMARK    5  A    between atoms: C_8  and  C_9
REMARK    6  A    between atoms: C_9  and  C_10
REMARK    7  A    between atoms: C_15  and  O_17
REMARK    8  A    between atoms: O_17  and  C_18
REMARK    9  A    between atoms: C_18  and  C_19
REMARK   10  A    between atoms: C_22  and  O_24
REMARK   11  A    between atoms: O_24  and  C_25
REMARK   12  A    between atoms: C_25  and  C_26
REMARK   13  A    between atoms: C_29  and  O_31
REMARK   14  A    between atoms: C_35  and  C_36
REMARK   15  A    between atoms: C_35  and  C_37
REMARK   16  A    between atoms: C_37  and  C_38
REMARK   17  A    between atoms: C_39  and  C_40
REMARK   18  A    between atoms: C_39  and  C_42
REMARK                            x       y       z     vdW  Elec       q    Type
REMARK                         _______ _______ _______ _____ _____    ______ ____
ROOT
ATOM      1  C   LIG A   1      -5.052   0.526 126.303  0.00  0.00    +0.012 C 
ATOM      2  C   LIG A   1      -6.363  -0.234 126.062  0.00  0.00    +0.033 C 
ATOM      3  C   LIG A   1      -6.413  -0.732 124.610  0.00  0.00    +0.181 C 
ATOM      4  C   LIG A   1      -6.760   0.388 123.611  0.00  0.00    +0.062 C 
ATOM      5  C   LIG A   1      -7.677   1.560 124.097  0.00  0.00    +0.067 C 
ATOM      6  C   LIG A   1      -8.569   1.954 122.932  0.00  0.00    +0.009 C 
ATOM      7  C   LIG A   1      -7.792   2.815 121.969  0.00  0.00    +0.343 C 
ATOM      8  O   LIG A   1      -6.688   3.311 122.736  0.00  0.00    -0.297 OA
ATOM      9  C   LIG A   1      -6.847   2.900 124.108  0.00  0.00    +0.325 C 
ATOM     10  C   LIG A   1      -9.862   1.668 122.827  0.00  0.00    +0.010 C 
ATOM     11  C   LIG A   1     -10.635   0.942 123.846  0.00  0.00    +0.138 C 
ATOM     12  C   LIG A   1      -9.988   0.883 125.229  0.00  0.00    +0.040 C 
ATOM     13  C   LIG A   1      -8.472   1.264 125.421  0.00  0.00    +0.015 C 
ATOM     14  C   LIG A   1      -7.720   0.396 126.553  0.00  0.00    -0.019 C 
ATOM     15  C   LIG A   1      -8.581  -0.828 127.017  0.00  0.00    +0.012 C 
ENDROOT
BRANCH  11  16
ATOM     16  O   LIG A   1     -11.901   1.582 123.970  0.00  0.00    -0.388 OA
ATOM     17  H   LIG A   1     -12.071   2.055 123.138  0.00  0.00    +0.210 HD
ENDBRANCH  11  16
BRANCH   3  18
ATOM     18  O   LIG A   1      -7.264  -1.876 124.353  0.00  0.00    -0.461 OA
BRANCH  18  19
ATOM     19  C   LIG A   1      -6.653  -3.100 124.412  0.00  0.00    +0.307 C 
ATOM     20  O   LIG A   1      -7.215  -4.185 124.421  0.00  0.00    -0.251 OA
BRANCH  19  21
ATOM     21  C   LIG A   1      -5.158  -2.980 124.534  0.00  0.00    +0.120 C 
BRANCH  21  22
ATOM     22  C   LIG A   1      -4.473  -3.523 123.291  0.00  0.00    +0.008 C 
ATOM     23  C   LIG A   1      -4.090  -4.985 123.438  0.00  0.00    +0.004 C 
ENDBRANCH  21  22
ENDBRANCH  19  21
ENDBRANCH  18  19
ENDBRANCH   3  18
BRANCH   7  24
ATOM     24  O   LIG A   1      -8.571   3.912 121.474  0.00  0.00    -0.431 OA
BRANCH  24  25
ATOM     25  C   LIG A   1      -8.624   4.057 120.122  0.00  0.00    +0.306 C 
ATOM     26  C   LIG A   1      -7.254   4.192 119.547  0.00  0.00    +0.136 C 
ATOM     27  O   LIG A   1      -9.651   4.124 119.450  0.00  0.00    -0.251 OA
ENDBRANCH  24  25
ENDBRANCH   7  24
BRANCH   9  28
ATOM     28  O   LIG A   1      -7.476   3.933 124.879  0.00  0.00    -0.434 OA
BRANCH  28  29
ATOM     29  C   LIG A   1      -6.634   4.849 125.422  0.00  0.00    +0.306 C 
ATOM     30  C   LIG A   1      -5.919   4.247 126.598  0.00  0.00    +0.136 C 
ATOM     31  O   LIG A   1      -6.417   5.978 125.002  0.00  0.00    -0.251 OA
ENDBRANCH  28  29
ENDBRANCH   9  28
BRANCH  14  32
ATOM     32  C   LIG A   1      -7.476   1.257 127.865  0.00  0.00    +0.034 C 
BRANCH  32  33
ATOM     33  C   LIG A   1      -7.989   0.624 129.142  0.00  0.00    -0.023 C 
ATOM     34  C   LIG A   1      -8.340   1.198 130.309  0.00  0.00    -0.055 C 
ATOM     35  C   LIG A   1      -8.823   0.313 131.438  0.00  0.00    +0.043 C 
BRANCH  34  36
ATOM     36  C   LIG A   1      -8.273   2.629 130.545  0.00  0.00    -0.005 C 
ATOM     37  C   LIG A   1      -9.197   3.342 131.207  0.00  0.00    +0.008 C 
ENDBRANCH  34  36
ENDBRANCH  32  33
ENDBRANCH  14  32
TORSDOF 12
ENDMDL
MODEL 2
REMARK VINA RESULT:      -7.7      6.036      9.046
REMARK  Name = NuBBE_226
REMARK  18 active torsions:
REMARK  status: ('A' for Active; 'I' for Inactive)
REMARK    1  A    between atoms: C_1  and  C_2
REMARK    2  A    between atoms: C_4  and  O_6
REMARK    3  A    between atoms: O_6  and  C_7
REMARK    4  A    between atoms: C_7  and  C_8
REMARK    5  A    between atoms: C_8  and  C_9
REMARK    6  A    between atoms: C_9  and  C_10
REMARK    7  A    between atoms: C_15  and  O_17
REMARK    8  A    between atoms: O_17  and  C_18
REMARK    9  A    between atoms: C_18  and  C_19
REMARK   10  A    between atoms: C_22  and  O_24
REMARK   11  A    between atoms: O_24  and  C_25
REMARK   12  A    between atoms: C_25  and  C_26
REMARK   13  A    between atoms: C_29  and  O_31
REMARK   14  A    between atoms: C_35  and  C_36
REMARK   15  A    between atoms: C_35  and  C_37
REMARK   16  A    between atoms: C_37  and  C_38
REMARK   17  A    between atoms: C_39  and  C_40
REMARK   18  A    between atoms: C_39  and  C_42
REMARK                            x       y       z     vdW  Elec       q    Type
REMARK                         _______ _______ _______ _____ _____    ______ ____
ROOT
ATOM      1  C   LIG A   1     -10.045   2.983 130.622  0.00  0.00    +0.012 C 
ATOM      2  C   LIG A   1      -9.664   4.458 130.811  0.00  0.00    +0.033 C 
ATOM      3  C   LIG A   1      -9.259   5.064 129.459  0.00  0.00    +0.181 C 
ATOM      4  C   LIG A   1      -7.842   4.648 129.023  0.00  0.00    +0.062 C 
ATOM      5  C   LIG A   1      -6.777   4.363 130.134  0.00  0.00    +0.067 C 
ATOM      6  C   LIG A   1      -5.437   4.863 129.620  0.00  0.00    +0.009 C 
ATOM      7  C   LIG A   1      -4.860   3.861 128.653  0.00  0.00    +0.343 C 
ATOM      8  O   LIG A   1      -5.547   2.638 128.946  0.00  0.00    -0.297 OA
ATOM      9  C   LIG A   1      -6.387   2.836 130.100  0.00  0.00    +0.325 C 
ATOM     10  C   LIG A   1      -4.822   5.966 130.033  0.00  0.00    +0.010 C 
ATOM     11  C   LIG A   1      -5.341   6.861 131.079  0.00  0.00    +0.138 C 
ATOM     12  C   LIG A   1      -6.423   6.255 131.971  0.00  0.00    +0.040 C 
ATOM     13  C   LIG A   1      -7.147   4.920 131.557  0.00  0.00    +0.015 C 
ATOM     14  C   LIG A   1      -8.700   4.858 131.989  0.00  0.00    -0.019 C 
ATOM     15  C   LIG A   1      -9.225   6.253 132.474  0.00  0.00    +0.012 C 
ENDROOT
BRANCH  11  16
ATOM     16  O   LIG A   1      -4.245   7.248 131.902  0.00  0.00    -0.388 OA
ATOM     17  H   LIG A   1      -4.091   6.530 132.539  0.00  0.00    +0.210 HD
ENDBRANCH  11  16
BRANCH   3  18
ATOM     18  O   LIG A   1      -9.390   6.502 129.337  0.00  0.00    -0.461 OA
BRANCH  18  19
ATOM     19  C   LIG A   1     -10.265   6.943 128.380  0.00  0.00    +0.307 C 
ATOM     20  O   LIG A   1     -10.171   6.752 127.177  0.00  0.00    -0.251 OA
BRANCH  19  21
ATOM     21  C   LIG A   1     -11.371   7.777 128.967  0.00  0.00    +0.120 C 
BRANCH  21  22
ATOM     22  C   LIG A   1     -12.453   6.891 129.562  0.00  0.00    +0.008 C 
ATOM     23  C   LIG A   1     -12.602   7.091 131.060  0.00  0.00    +0.004 C 
ENDBRANCH  21  22
ENDBRANCH  19  21
ENDBRANCH  18  19
ENDBRANCH   3  18
BRANCH   7  24
ATOM     24  O   LIG A   1      -3.450   3.681 128.838  0.00  0.00    -0.431 OA
BRANCH  24  25
ATOM     25  C   LIG A   1      -2.642   4.182 127.864  0.00  0.00    +0.306 C 
ATOM     26  C   LIG A   1      -2.082   3.086 127.021  0.00  0.00    +0.136 C 
ATOM     27  O   LIG A   1      -2.355   5.367 127.713  0.00  0.00    -0.251 OA
ENDBRANCH  24  25
ENDBRANCH   7  24
BRANCH   9  28
ATOM     28  O   LIG A   1      -5.717   2.411 131.295  0.00  0.00    -0.434 OA
BRANCH  28  29
ATOM     29  C   LIG A   1      -6.150   1.237 131.819  0.00  0.00    +0.306 C 
ATOM     30  C   LIG A   1      -5.309   0.870 133.009  0.00  0.00    +0.136 C 
ATOM     31  O   LIG A   1      -7.117   0.585 131.447  0.00  0.00    -0.251 OA
ENDBRANCH  28  29
ENDBRANCH   9  28
BRANCH  14  32
ATOM     32  C   LIG A   1      -8.911   3.881 133.222  0.00  0.00    +0.034 C 
BRANCH  32  33
ATOM     33  C   LIG A   1      -7.662   3.604 134.032  0.00  0.00    -0.023 C 
ATOM     34  C   LIG A   1      -7.092   4.328 135.016  0.00  0.00    -0.055 C 
ATOM     35  C   LIG A   1      -5.826   3.808 135.660  0.00  0.00    +0.043 C 
BRANCH  34  36
ATOM     36  C   LIG A   1      -7.630   5.592 135.487  0.00  0.00    -0.005 C 
ATOM     37  C   LIG A   1      -7.430   6.100 136.713  0.00  0.00    +0.008 C 
ENDBRANCH  34  36
ENDBRANCH  32  33
ENDBRANCH  14  32
TORSDOF 12
ENDMDL
MODEL 3
REMARK VINA RESULT:      -7.7      2.712      6.809
REMARK  Name = NuBBE_226
REMARK  18 active torsions:
REMARK  status: ('A' for Active; 'I' for Inactive)
REMARK    1  A    between atoms: C_1  and  C_2
REMARK    2  A    between atoms: C_4  and  O_6
REMARK    3  A    between atoms: O_6  and  C_7
REMARK    4  A    between atoms: C_7  and  C_8
REMARK    5  A    between atoms: C_8  and  C_9
REMARK    6  A    between atoms: C_9  and  C_10
REMARK    7  A    between atoms: C_15  and  O_17
REMARK    8  A    between atoms: O_17  and  C_18
REMARK    9  A    between atoms: C_18  and  C_19
REMARK   10  A    between atoms: C_22  and  O_24
REMARK   11  A    between atoms: O_24  and  C_25
REMARK   12  A    between atoms: C_25  and  C_26
REMARK   13  A    between atoms: C_29  and  O_31
REMARK   14  A    between atoms: C_35  and  C_36
REMARK   15  A    between atoms: C_35  and  C_37
REMARK   16  A    between atoms: C_37  and  C_38
REMARK   17  A    between atoms: C_39  and  C_40
REMARK   18  A    between atoms: C_39  and  C_42
REMARK                            x       y       z     vdW  Elec       q    Type
REMARK                         _______ _______ _______ _____ _____    ______ ____
ROOT
ATOM      1  C   LIG A   1      -7.099   1.009 130.348  0.00  0.00    +0.012 C 
ATOM      2  C   LIG A   1      -7.256   2.452 129.849  0.00  0.00    +0.033 C 
ATOM      3  C   LIG A   1      -8.691   2.671 129.347  0.00  0.00    +0.181 C 
ATOM      4  C   LIG A   1      -8.934   2.055 127.956  0.00  0.00    +0.062 C 
ATOM      5  C   LIG A   1      -7.730   1.977 126.958  0.00  0.00    +0.067 C 
ATOM      6  C   LIG A   1      -8.276   2.231 125.564  0.00  0.00    +0.009 C 
ATOM      7  C   LIG A   1      -8.934   0.980 125.041  0.00  0.00    +0.343 C 
ATOM      8  O   LIG A   1      -8.389  -0.077 125.841  0.00  0.00    -0.297 OA
ATOM      9  C   LIG A   1      -7.366   0.464 126.700  0.00  0.00    +0.325 C 
ATOM     10  C   LIG A   1      -8.114   3.353 124.870  0.00  0.00    +0.010 C 
ATOM     11  C   LIG A   1      -7.349   4.516 125.347  0.00  0.00    +0.138 C 
ATOM     12  C   LIG A   1      -6.396   4.234 126.507  0.00  0.00    +0.040 C 
ATOM     13  C   LIG A   1      -6.510   2.896 127.329  0.00  0.00    +0.015 C 
ATOM     14  C   LIG A   1      -6.161   3.060 128.895  0.00  0.00    -0.019 C 
ATOM     15  C   LIG A   1      -6.063   4.567 129.315  0.00  0.00    +0.012 C 
ENDROOT
BRANCH  11  16
ATOM     16  O   LIG A   1      -6.587   5.014 124.251  0.00  0.00    -0.388 OA
ATOM     17  H   LIG A   1      -6.232   4.247 123.770  0.00  0.00    +0.210 HD
ENDBRANCH  11  16
BRANCH   3  18
ATOM     18  O   LIG A   1      -9.169   4.039 129.349  0.00  0.00    -0.461 OA
BRANCH  18  19
ATOM     19  C   LIG A   1      -9.846   4.433 130.472  0.00  0.00    +0.307 C 
ATOM     20  O   LIG A   1     -10.213   3.705 131.383  0.00  0.00    -0.251 OA
BRANCH  19  21
ATOM     21  C   LIG A   1     -10.168   5.902 130.452  0.00  0.00    +0.120 C 
BRANCH  21  22
ATOM     22  C   LIG A   1      -8.900   6.730 130.582  0.00  0.00    +0.008 C 
ATOM     23  C   LIG A   1      -8.105   6.375 131.826  0.00  0.00    +0.004 C 
ENDBRANCH  21  22
ENDBRANCH  19  21
ENDBRANCH  18  19
ENDBRANCH   3  18
BRANCH   7  24
ATOM     24  O   LIG A   1      -8.634   0.747 123.659  0.00  0.00    -0.431 OA
BRANCH  24  25
ATOM     25  C   LIG A   1      -9.509  -0.037 122.972  0.00  0.00    +0.306 C 
ATOM     26  C   LIG A   1      -8.963  -1.414 122.795  0.00  0.00    +0.136 C 
ATOM     27  O   LIG A   1     -10.583   0.332 122.504  0.00  0.00    -0.251 OA
ENDBRANCH  24  25
ENDBRANCH   7  24
BRANCH   9  28
ATOM     28  O   LIG A   1      -6.069   0.301 126.111  0.00  0.00    -0.434 OA
BRANCH  28  29
ATOM     29  C   LIG A   1      -5.739  -0.971 125.774  0.00  0.00    +0.306 C 
ATOM     30  C   LIG A   1      -5.588  -1.803 127.017  0.00  0.00    +0.136 C 
ATOM     31  O   LIG A   1      -5.637  -1.423 124.641  0.00  0.00    -0.251 OA
ENDBRANCH  28  29
ENDBRANCH   9  28
BRANCH  14  32
ATOM     32  C   LIG A   1      -4.740   2.439 129.232  0.00  0.00    +0.034 C 
BRANCH  32  33
ATOM     33  C   LIG A   1      -3.753   2.455 128.084  0.00  0.00    -0.023 C 
ATOM     34  C   LIG A   1      -2.824   3.374 127.756  0.00  0.00    -0.055 C 
ATOM     35  C   LIG A   1      -1.963   3.134 126.536  0.00  0.00    +0.043 C 
BRANCH  34  36
ATOM     36  C   LIG A   1      -2.610   4.595 128.513  0.00  0.00    -0.005 C 
ATOM     37  C   LIG A   1      -2.664   5.834 128.001  0.00  0.00    +0.008 C 
ENDBRANCH  34  36
ENDBRANCH  32  33
ENDBRANCH  14  32
TORSDOF 12
ENDMDL
MODEL 4
REMARK VINA RESULT:      -7.6      2.426      3.759
REMARK  Name = NuBBE_226
REMARK  18 active torsions:
REMARK  status: ('A' for Active; 'I' for Inactive)
REMARK    1  A    between atoms: C_1  and  C_2
REMARK    2  A    between atoms: C_4  and  O_6
REMARK    3  A    between atoms: O_6  and  C_7
REMARK    4  A    between atoms: C_7  and  C_8
REMARK    5  A    between atoms: C_8  and  C_9
REMARK    6  A    between atoms: C_9  and  C_10
REMARK    7  A    between atoms: C_15  and  O_17
REMARK    8  A    between atoms: O_17  and  C_18
REMARK    9  A    between atoms: C_18  and  C_19
REMARK   10  A    between atoms: C_22  and  O_24
REMARK   11  A    between atoms: O_24  and  C_25
REMARK   12  A    between atoms: C_25  and  C_26
REMARK   13  A    between atoms: C_29  and  O_31
REMARK   14  A    between atoms: C_35  and  C_36
REMARK   15  A    between atoms: C_35  and  C_37
REMARK   16  A    between atoms: C_37  and  C_38
REMARK   17  A    between atoms: C_39  and  C_40
REMARK   18  A    between atoms: C_39  and  C_42
REMARK                            x       y       z     vdW  Elec       q    Type
REMARK                         _______ _______ _______ _____ _____    ______ ____
ROOT
ATOM      1  C   LIG A   1      -4.742  -2.084 128.631  0.00  0.00    +0.012 C 
ATOM      2  C   LIG A   1      -5.880  -2.409 127.654  0.00  0.00    +0.033 C 
ATOM      3  C   LIG A   1      -5.453  -2.046 126.224  0.00  0.00    +0.181 C 
ATOM      4  C   LIG A   1      -5.516  -0.531 125.952  0.00  0.00    +0.062 C 
ATOM      5  C   LIG A   1      -6.587   0.316 126.718  0.00  0.00    +0.067 C 
ATOM      6  C   LIG A   1      -7.086   1.389 125.764  0.00  0.00    +0.009 C 
ATOM      7  C   LIG A   1      -6.083   2.513 125.697  0.00  0.00    +0.343 C 
ATOM      8  O   LIG A   1      -5.295   2.367 126.885  0.00  0.00    -0.297 OA
ATOM      9  C   LIG A   1      -5.858   1.315 127.695  0.00  0.00    +0.325 C 
ATOM     10  C   LIG A   1      -8.268   1.385 125.158  0.00  0.00    +0.010 C 
ATOM     11  C   LIG A   1      -9.290   0.343 125.344  0.00  0.00    +0.138 C 
ATOM     12  C   LIG A   1      -9.106  -0.530 126.584  0.00  0.00    +0.040 C 
ATOM     13  C   LIG A   1      -7.743  -0.524 127.373  0.00  0.00    +0.015 C 
ATOM     14  C   LIG A   1      -7.347  -1.955 128.002  0.00  0.00    -0.019 C 
ATOM     15  C   LIG A   1      -8.259  -3.106 127.452  0.00  0.00    +0.012 C 
ENDROOT
BRANCH  11  16
ATOM     16  O   LIG A   1     -10.557   0.988 125.433  0.00  0.00    -0.388 OA
ATOM     17  H   LIG A   1     -11.221   0.378 125.068  0.00  0.00    +0.210 HD
ENDBRANCH  11  16
BRANCH   3  18
ATOM     18  O   LIG A   1      -6.133  -2.748 125.154  0.00  0.00    -0.461 OA
BRANCH  18  19
ATOM     19  C   LIG A   1      -5.596  -2.593 123.904  0.00  0.00    +0.307 C 
ATOM     20  O   LIG A   1      -4.441  -2.831 123.582  0.00  0.00    -0.251 OA
BRANCH  19  21
ATOM     21  C   LIG A   1      -6.588  -2.018 122.930  0.00  0.00    +0.120 C 
BRANCH  21  22
ATOM     22  C   LIG A   1      -8.001  -2.452 123.284  0.00  0.00    +0.008 C 
ATOM     23  C   LIG A   1      -9.054  -1.597 122.600  0.00  0.00    +0.004 C 
ENDBRANCH  21  22
ENDBRANCH  19  21
ENDBRANCH  18  19
ENDBRANCH   3  18
BRANCH   7  24
ATOM     24  O   LIG A   1      -6.713   3.800 125.688  0.00  0.00    -0.431 OA
BRANCH  24  25
ATOM     25  C   LIG A   1      -6.185   4.727 124.843  0.00  0.00    +0.306 C 
ATOM     26  C   LIG A   1      -5.596   4.075 123.637  0.00  0.00    +0.136 C 
ATOM     27  O   LIG A   1      -6.139   5.938 125.049  0.00  0.00    -0.251 OA
ENDBRANCH  24  25
ENDBRANCH   7  24
BRANCH   9  28
ATOM     28  O   LIG A   1      -6.738   1.857 128.690  0.00  0.00    -0.434 OA
BRANCH  28  29
ATOM     29  C   LIG A   1      -6.156   2.169 129.875  0.00  0.00    +0.306 C 
ATOM     30  C   LIG A   1      -5.070   1.178 130.185  0.00  0.00    +0.136 C 
ATOM     31  O   LIG A   1      -6.407   3.140 130.577  0.00  0.00    -0.251 OA
ENDBRANCH  28  29
ENDBRANCH   9  28
BRANCH  14  32
ATOM     32  C   LIG A   1      -7.561  -1.967 129.574  0.00  0.00    +0.034 C 
BRANCH  32  33
ATOM     33  C   LIG A   1      -8.301  -0.763 130.122  0.00  0.00    -0.023 C 
ATOM     34  C   LIG A   1      -8.441  -0.341 131.394  0.00  0.00    -0.055 C 
ATOM     35  C   LIG A   1      -9.248   0.911 131.659  0.00  0.00    +0.043 C 
BRANCH  34  36
ATOM     36  C   LIG A   1      -7.861  -1.034 132.531  0.00  0.00    -0.005 C 
ATOM     37  C   LIG A   1      -6.681  -0.731 133.093  0.00  0.00    +0.008 C 
ENDBRANCH  34  36
ENDBRANCH  32  33
ENDBRANCH  14  32
TORSDOF 12
ENDMDL
MODEL 5
REMARK VINA RESULT:      -7.6      3.292      6.805
REMARK  Name = NuBBE_226
REMARK  18 active torsions:
REMARK  status: ('A' for Active; 'I' for Inactive)
REMARK    1  A    between atoms: C_1  and  C_2
REMARK    2  A    between atoms: C_4  and  O_6
REMARK    3  A    between atoms: O_6  and  C_7
REMARK    4  A    between atoms: C_7  and  C_8
REMARK    5  A    between atoms: C_8  and  C_9
REMARK    6  A    between atoms: C_9  and  C_10
REMARK    7  A    between atoms: C_15  and  O_17
REMARK    8  A    between atoms: O_17  and  C_18
REMARK    9  A    between atoms: C_18  and  C_19
REMARK   10  A    between atoms: C_22  and  O_24
REMARK   11  A    between atoms: O_24  and  C_25
REMARK   12  A    between atoms: C_25  and  C_26
REMARK   13  A    between atoms: C_29  and  O_31
REMARK   14  A    between atoms: C_35  and  C_36
REMARK   15  A    between atoms: C_35  and  C_37
REMARK   16  A    between atoms: C_37  and  C_38
REMARK   17  A    between atoms: C_39  and  C_40
REMARK   18  A    between atoms: C_39  and  C_42
REMARK                            x       y       z     vdW  Elec       q    Type
REMARK                         _______ _______ _______ _____ _____    ______ ____
ROOT
ATOM      1  C   LIG A   1      -8.657   0.628 127.144  0.00  0.00    +0.012 C 
ATOM      2  C   LIG A   1      -7.170   0.256 127.233  0.00  0.00    +0.033 C 
ATOM      3  C   LIG A   1      -6.695   0.371 128.690  0.00  0.00    +0.181 C 
ATOM      4  C   LIG A   1      -6.461   1.830 129.123  0.00  0.00    +0.062 C 
ATOM      5  C   LIG A   1      -6.005   2.863 128.038  0.00  0.00    +0.067 C 
ATOM      6  C   LIG A   1      -5.031   3.822 128.702  0.00  0.00    +0.009 C 
ATOM      7  C   LIG A   1      -5.794   4.840 129.511  0.00  0.00    +0.343 C 
ATOM      8  O   LIG A   1      -7.123   4.806 128.975  0.00  0.00    -0.297 OA
ATOM      9  C   LIG A   1      -7.145   3.933 127.829  0.00  0.00    +0.325 C 
ATOM     10  C   LIG A   1      -3.715   3.824 128.520  0.00  0.00    +0.010 C 
ATOM     11  C   LIG A   1      -3.003   2.906 127.618  0.00  0.00    +0.138 C 
ATOM     12  C   LIG A   1      -3.879   2.211 126.577  0.00  0.00    +0.040 C 
ATOM     13  C   LIG A   1      -5.448   2.223 126.715  0.00  0.00    +0.015 C 
ATOM     14  C   LIG A   1      -6.159   0.871 126.196  0.00  0.00    -0.019 C 
ATOM     15  C   LIG A   1      -5.118  -0.270 125.931  0.00  0.00    +0.012 C 
ENDROOT
BRANCH  11  16
ATOM     16  O   LIG A   1      -2.004   3.656 126.934  0.00  0.00    -0.388 OA
ATOM     17  H   LIG A   1      -1.265   3.790 127.552  0.00  0.00    +0.210 HD
ENDBRANCH  11  16
BRANCH   3  18
ATOM     18  O   LIG A   1      -5.538  -0.422 129.051  0.00  0.00    -0.461 OA
BRANCH  18  19
ATOM     19  C   LIG A   1      -5.779  -1.489 129.875  0.00  0.00    +0.307 C 
ATOM     20  O   LIG A   1      -5.667  -1.498 131.092  0.00  0.00    -0.251 OA
BRANCH  19  21
ATOM     21  C   LIG A   1      -6.153  -2.725 129.104  0.00  0.00    +0.120 C 
BRANCH  21  22
ATOM     22  C   LIG A   1      -7.607  -3.092 129.351  0.00  0.00    +0.008 C 
ATOM     23  C   LIG A   1      -8.392  -3.233 128.058  0.00  0.00    +0.004 C 
ENDBRANCH  21  22
ENDBRANCH  19  21
ENDBRANCH  18  19
ENDBRANCH   3  18
BRANCH   7  24
ATOM     24  O   LIG A   1      -5.249   6.159 129.374  0.00  0.00    -0.431 OA
BRANCH  24  25
ATOM     25  C   LIG A   1      -5.455   7.011 130.414  0.00  0.00    +0.306 C 
ATOM     26  C   LIG A   1      -4.203   7.200 131.204  0.00  0.00    +0.136 C 
ATOM     27  O   LIG A   1      -6.530   7.524 130.715  0.00  0.00    -0.251 OA
ENDBRANCH  24  25
ENDBRANCH   7  24
BRANCH   9  28
ATOM     28  O   LIG A   1      -6.983   4.682 126.616  0.00  0.00    -0.434 OA
BRANCH  28  29
ATOM     29  C   LIG A   1      -8.118   4.889 125.904  0.00  0.00    +0.306 C 
ATOM     30  C   LIG A   1      -8.249   3.838 124.838  0.00  0.00    +0.136 C 
ATOM     31  O   LIG A   1      -8.963   5.750 126.112  0.00  0.00    -0.251 OA
ENDBRANCH  28  29
ENDBRANCH   9  28
BRANCH  14  32
ATOM     32  C   LIG A   1      -6.884   1.106 124.803  0.00  0.00    +0.034 C 
BRANCH  32  33
ATOM     33  C   LIG A   1      -6.637   0.026 123.770  0.00  0.00    -0.023 C 
ATOM     34  C   LIG A   1      -7.368  -1.066 123.471  0.00  0.00    -0.055 C 
ATOM     35  C   LIG A   1      -6.877  -1.991 122.379  0.00  0.00    +0.043 C 
BRANCH  34  36
ATOM     36  C   LIG A   1      -8.604  -1.408 124.152  0.00  0.00    -0.005 C 
ATOM     37  C   LIG A   1      -9.017  -2.658 124.409  0.00  0.00    +0.008 C 
ENDBRANCH  34  36
ENDBRANCH  32  33
ENDBRANCH  14  32
TORSDOF 12
ENDMDL
MODEL 6
REMARK VINA RESULT:      -7.6      2.537      5.798
REMARK  Name = NuBBE_226
REMARK  18 active torsions:
REMARK  status: ('A' for Active; 'I' for Inactive)
REMARK    1  A    between atoms: C_1  and  C_2
REMARK    2  A    between atoms: C_4  and  O_6
REMARK    3  A    between atoms: O_6  and  C_7
REMARK    4  A    between atoms: C_7  and  C_8
REMARK    5  A    between atoms: C_8  and  C_9
REMARK    6  A    between atoms: C_9  and  C_10
REMARK    7  A    between atoms: C_15  and  O_17
REMARK    8  A    between atoms: O_17  and  C_18
REMARK    9  A    between atoms: C_18  and  C_19
REMARK   10  A    between atoms: C_22  and  O_24
REMARK   11  A    between atoms: O_24  and  C_25
REMARK   12  A    between atoms: C_25  and  C_26
REMARK   13  A    between atoms: C_29  and  O_31
REMARK   14  A    between atoms: C_35  and  C_36
REMARK   15  A    between atoms: C_35  and  C_37
REMARK   16  A    between atoms: C_37  and  C_38
REMARK   17  A    between atoms: C_39  and  C_40
REMARK   18  A    between atoms: C_39  and  C_42
REMARK                            x       y       z     vdW  Elec       q    Type
REMARK                         _______ _______ _______ _____ _____    ______ ____
ROOT
ATOM      1  C   LIG A   1      -8.314  -1.372 127.675  0.00  0.00    +0.012 C 
ATOM      2  C   LIG A   1      -7.462  -0.234 128.255  0.00  0.00    +0.033 C 
ATOM      3  C   LIG A   1      -8.193   1.104 128.070  0.00  0.00    +0.181 C 
ATOM      4  C   LIG A   1      -8.102   1.635 126.627  0.00  0.00    +0.062 C 
ATOM      5  C   LIG A   1      -6.830   1.284 125.785  0.00  0.00    +0.067 C 
ATOM      6  C   LIG A   1      -6.506   2.492 124.923  0.00  0.00    +0.009 C 
ATOM      7  C   LIG A   1      -7.425   2.523 123.728  0.00  0.00    +0.343 C 
ATOM      8  O   LIG A   1      -7.917   1.182 123.615  0.00  0.00    -0.297 OA
ATOM      9  C   LIG A   1      -7.245   0.352 124.583  0.00  0.00    +0.325 C 
ATOM     10  C   LIG A   1      -5.504   3.338 125.135  0.00  0.00    +0.010 C 
ATOM     11  C   LIG A   1      -4.533   3.211 126.233  0.00  0.00    +0.138 C 
ATOM     12  C   LIG A   1      -4.472   1.832 126.888  0.00  0.00    +0.040 C 
ATOM     13  C   LIG A   1      -5.606   0.771 126.627  0.00  0.00    +0.015 C 
ATOM     14  C   LIG A   1      -5.930  -0.163 127.902  0.00  0.00    -0.019 C 
ATOM     15  C   LIG A   1      -5.246   0.373 129.206  0.00  0.00    +0.012 C 
ENDROOT
BRANCH  11  16
ATOM     16  O   LIG A   1      -3.244   3.518 125.711  0.00  0.00    -0.388 OA
ATOM     17  H   LIG A   1      -3.212   3.187 124.798  0.00  0.00    +0.210 HD
ENDBRANCH  11  16
BRANCH   3  18
ATOM     18  O   LIG A   1      -7.830   2.165 128.989  0.00  0.00    -0.461 OA
BRANCH  18  19
ATOM     19  C   LIG A   1      -8.822   2.589 129.832  0.00  0.00    +0.307 C 
ATOM     20  O   LIG A   1      -9.896   3.065 129.496  0.00  0.00    -0.251 OA
BRANCH  19  21
ATOM     21  C   LIG A   1      -8.425   2.469 131.277  0.00  0.00    +0.120 C 
BRANCH  21  22
ATOM     22  C   LIG A   1      -9.342   1.501 132.007  0.00  0.00    +0.008 C 
ATOM     23  C   LIG A   1      -9.076   0.056 131.623  0.00  0.00    +0.004 C 
ENDBRANCH  21  22
ENDBRANCH  19  21
ENDBRANCH  18  19
ENDBRANCH   3  18
BRANCH   7  24
ATOM     24  O   LIG A   1      -6.737   2.891 122.525  0.00  0.00    -0.431 OA
BRANCH  24  25
ATOM     25  C   LIG A   1      -7.492   3.453 121.543  0.00  0.00    +0.306 C 
ATOM     26  C   LIG A   1      -6.637   3.902 120.405  0.00  0.00    +0.136 C 
ATOM     27  O   LIG A   1      -8.707   3.627 121.587  0.00  0.00    -0.251 OA
ENDBRANCH  24  25
ENDBRANCH   7  24
BRANCH   9  28
ATOM     28  O   LIG A   1      -6.122  -0.314 123.988  0.00  0.00    -0.434 OA
BRANCH  28  29
ATOM     29  C   LIG A   1      -6.386  -1.529 123.445  0.00  0.00    +0.306 C 
ATOM     30  C   LIG A   1      -7.074  -2.401 124.458  0.00  0.00    +0.136 C 
ATOM     31  O   LIG A   1      -6.173  -1.874 122.290  0.00  0.00    -0.251 OA
ENDBRANCH  28  29
ENDBRANCH   9  28
BRANCH  14  32
ATOM     32  C   LIG A   1      -5.350  -1.627 127.698  0.00  0.00    +0.034 C 
BRANCH  32  33
ATOM     33  C   LIG A   1      -4.620  -2.192 128.899  0.00  0.00    -0.023 C 
ATOM     34  C   LIG A   1      -5.058  -3.025 129.863  0.00  0.00    -0.055 C 
ATOM     35  C   LIG A   1      -4.101  -3.431 130.962  0.00  0.00    +0.043 C 
BRANCH  34  36
ATOM     36  C   LIG A   1      -6.411  -3.550 129.907  0.00  0.00    -0.005 C 
ATOM     37  C   LIG A   1      -7.351  -3.175 130.788  0.00  0.00    +0.008 C 
ENDBRANCH  34  36
ENDBRANCH  32  33
ENDBRANCH  14  32
TORSDOF 12
ENDMDL
MODEL 7
REMARK VINA RESULT:      -7.5      5.617      7.218
REMARK  Name = NuBBE_226
REMARK  18 active torsions:
REMARK  status: ('A' for Active; 'I' for Inactive)
REMARK    1  A    between atoms: C_1  and  C_2
REMARK    2  A    between atoms: C_4  and  O_6
REMARK    3  A    between atoms: O_6  and  C_7
REMARK    4  A    between atoms: C_7  and  C_8
REMARK    5  A    between atoms: C_8  and  C_9
REMARK    6  A    between atoms: C_9  and  C_10
REMARK    7  A    between atoms: C_15  and  O_17
REMARK    8  A    between atoms: O_17  and  C_18
REMARK    9  A    between atoms: C_18  and  C_19
REMARK   10  A    between atoms: C_22  and  O_24
REMARK   11  A    between atoms: O_24  and  C_25
REMARK   12  A    between atoms: C_25  and  C_26
REMARK   13  A    between atoms: C_29  and  O_31
REMARK   14  A    between atoms: C_35  and  C_36
REMARK   15  A    between atoms: C_35  and  C_37
REMARK   16  A    between atoms: C_37  and  C_38
REMARK   17  A    between atoms: C_39  and  C_40
REMARK   18  A    between atoms: C_39  and  C_42
REMARK                            x       y       z     vdW  Elec       q    Type
REMARK                         _______ _______ _______ _____ _____    ______ ____
ROOT
ATOM      1  C   LIG A   1      -4.625   1.263 129.714  0.00  0.00    +0.012 C 
ATOM      2  C   LIG A   1      -5.697   0.815 130.717  0.00  0.00    +0.033 C 
ATOM      3  C   LIG A   1      -7.039   0.634 129.992  0.00  0.00    +0.181 C 
ATOM      4  C   LIG A   1      -7.737   1.974 129.690  0.00  0.00    +0.062 C 
ATOM      5  C   LIG A   1      -7.501   3.171 130.671  0.00  0.00    +0.067 C 
ATOM      6  C   LIG A   1      -8.806   3.943 130.769  0.00  0.00    +0.009 C 
ATOM      7  C   LIG A   1      -8.964   4.824 129.556  0.00  0.00    +0.343 C 
ATOM      8  O   LIG A   1      -7.640   4.951 129.024  0.00  0.00    -0.297 OA
ATOM      9  C   LIG A   1      -6.711   4.310 129.921  0.00  0.00    +0.325 C 
ATOM     10  C   LIG A   1      -9.633   3.922 131.809  0.00  0.00    +0.010 C 
ATOM     11  C   LIG A   1      -9.390   3.159 133.043  0.00  0.00    +0.138 C 
ATOM     12  C   LIG A   1      -7.945   2.711 133.254  0.00  0.00    +0.040 C 
ATOM     13  C   LIG A   1      -6.908   2.767 132.070  0.00  0.00    +0.015 C 
ATOM     14  C   LIG A   1      -5.827   1.570 132.093  0.00  0.00    -0.019 C 
ATOM     15  C   LIG A   1      -6.216   0.453 133.122  0.00  0.00    +0.012 C 
ENDROOT
BRANCH  11  16
ATOM     16  O   LIG A   1      -9.771   3.979 134.143  0.00  0.00    -0.388 OA
ATOM     17  H   LIG A   1      -9.047   4.608 134.303  0.00  0.00    +0.210 HD
ENDBRANCH  11  16
BRANCH   3  18
ATOM     18  O   LIG A   1      -7.989  -0.264 130.618  0.00  0.00    -0.461 OA
BRANCH  18  19
ATOM     19  C   LIG A   1      -7.730  -1.601 130.476  0.00  0.00    +0.307 C 
ATOM     20  O   LIG A   1      -7.461  -2.381 131.377  0.00  0.00    -0.251 OA
BRANCH  19  21
ATOM     21  C   LIG A   1      -7.746  -2.029 129.034  0.00  0.00    +0.120 C 
BRANCH  21  22
ATOM     22  C   LIG A   1      -8.410  -3.387 128.885  0.00  0.00    +0.008 C 
ATOM     23  C   LIG A   1      -8.897  -3.638 127.468  0.00  0.00    +0.004 C 
ENDBRANCH  21  22
ENDBRANCH  19  21
ENDBRANCH  18  19
ENDBRANCH   3  18
BRANCH   7  24
ATOM     24  O   LIG A   1      -9.479   6.120 129.891  0.00  0.00    -0.431 OA
BRANCH  24  25
ATOM     25  C   LIG A   1     -10.560   6.544 129.183  0.00  0.00    +0.306 C 
ATOM     26  C   LIG A   1     -10.364   7.943 128.700  0.00  0.00    +0.136 C 
ATOM     27  O   LIG A   1     -11.592   5.902 129.000  0.00  0.00    -0.251 OA
ENDBRANCH  24  25
ENDBRANCH   7  24
BRANCH   9  28
ATOM     28  O   LIG A   1      -6.132   5.266 130.820  0.00  0.00    -0.434 OA
BRANCH  28  29
ATOM     29  C   LIG A   1      -5.130   6.020 130.303  0.00  0.00    +0.306 C 
ATOM     30  C   LIG A   1      -4.040   5.127 129.779  0.00  0.00    +0.136 C 
ATOM     31  O   LIG A   1      -5.113   7.240 130.201  0.00  0.00    -0.251 OA
ENDBRANCH  28  29
ENDBRANCH   9  28
BRANCH  14  32
ATOM     32  C   LIG A   1      -4.404   2.094 132.562  0.00  0.00    +0.034 C 
BRANCH  32  33
ATOM     33  C   LIG A   1      -4.415   3.467 133.203  0.00  0.00    -0.023 C 
ATOM     34  C   LIG A   1      -3.429   4.379 133.306  0.00  0.00    -0.055 C 
ATOM     35  C   LIG A   1      -3.719   5.686 134.010  0.00  0.00    +0.043 C 
BRANCH  34  36
ATOM     36  C   LIG A   1      -2.092   4.169 132.780  0.00  0.00    -0.005 C 
ATOM     37  C   LIG A   1      -1.233   5.148 132.454  0.00  0.00    +0.008 C 
ENDBRANCH  34  36
ENDBRANCH  32  33
ENDBRANCH  14  32
TORSDOF 12
ENDMDL
MODEL 8
REMARK VINA RESULT:      -7.5      4.130      7.141
REMARK  Name = NuBBE_226
REMARK  18 active torsions:
REMARK  status: ('A' for Active; 'I' for Inactive)
REMARK    1  A    between atoms: C_1  and  C_2
REMARK    2  A    between atoms: C_4  and  O_6
REMARK    3  A    between atoms: O_6  and  C_7
REMARK    4  A    between atoms: C_7  and  C_8
REMARK    5  A    between atoms: C_8  and  C_9
REMARK    6  A    between atoms: C_9  and  C_10
REMARK    7  A    between atoms: C_15  and  O_17
REMARK    8  A    between atoms: O_17  and  C_18
REMARK    9  A    between atoms: C_18  and  C_19
REMARK   10  A    between atoms: C_22  and  O_24
REMARK   11  A    between atoms: O_24  and  C_25
REMARK   12  A    between atoms: C_25  and  C_26
REMARK   13  A    between atoms: C_29  and  O_31
REMARK   14  A    between atoms: C_35  and  C_36
REMARK   15  A    between atoms: C_35  and  C_37
REMARK   16  A    between atoms: C_37  and  C_38
REMARK   17  A    between atoms: C_39  and  C_40
REMARK   18  A    between atoms: C_39  and  C_42
REMARK                            x       y       z     vdW  Elec       q    Type
REMARK                         _______ _______ _______ _____ _____    ______ ____
ROOT
ATOM      1  C   LIG A   1      -8.069   0.489 127.512  0.00  0.00    +0.012 C 
ATOM      2  C   LIG A   1      -7.073   0.599 128.675  0.00  0.00    +0.033 C 
ATOM      3  C   LIG A   1      -7.839   0.739 129.999  0.00  0.00    +0.181 C 
ATOM      4  C   LIG A   1      -8.401   2.157 130.213  0.00  0.00    +0.062 C 
ATOM      5  C   LIG A   1      -7.620   3.366 129.597  0.00  0.00    +0.067 C 
ATOM      6  C   LIG A   1      -7.732   4.526 130.572  0.00  0.00    +0.009 C 
ATOM      7  C   LIG A   1      -9.081   5.181 130.427  0.00  0.00    +0.343 C 
ATOM      8  O   LIG A   1      -9.545   4.774 129.134  0.00  0.00    -0.297 OA
ATOM      9  C   LIG A   1      -8.499   4.035 128.472  0.00  0.00    +0.325 C 
ATOM     10  C   LIG A   1      -6.755   4.959 131.363  0.00  0.00    +0.010 C 
ATOM     11  C   LIG A   1      -5.399   4.389 131.390  0.00  0.00    +0.138 C 
ATOM     12  C   LIG A   1      -5.028   3.540 130.175  0.00  0.00    +0.040 C 
ATOM     13  C   LIG A   1      -6.140   3.045 129.175  0.00  0.00    +0.015 C 
ATOM     14  C   LIG A   1      -5.853   1.585 128.551  0.00  0.00    -0.019 C 
ATOM     15  C   LIG A   1      -4.678   0.857 129.290  0.00  0.00    +0.012 C 
ENDROOT
BRANCH  11  16
ATOM     16  O   LIG A   1      -4.476   5.469 131.481  0.00  0.00    -0.388 OA
ATOM     17  H   LIG A   1      -3.587   5.108 131.320  0.00  0.00    +0.210 HD
ENDBRANCH  11  16
BRANCH   3  18
ATOM     18  O   LIG A   1      -7.132   0.325 131.195  0.00  0.00    -0.461 OA
BRANCH  18  19
ATOM     19  C   LIG A   1      -7.462  -0.910 131.685  0.00  0.00    +0.307 C 
ATOM     20  O   LIG A   1      -8.292  -1.141 132.553  0.00  0.00    -0.251 OA
BRANCH  19  21
ATOM     21  C   LIG A   1      -6.628  -2.002 131.074  0.00  0.00    +0.120 C 
BRANCH  21  22
ATOM     22  C   LIG A   1      -7.499  -3.179 130.667  0.00  0.00    +0.008 C 
ATOM     23  C   LIG A   1      -8.157  -2.967 129.314  0.00  0.00    +0.004 C 
ENDBRANCH  21  22
ENDBRANCH  19  21
ENDBRANCH  18  19
ENDBRANCH   3  18
BRANCH   7  24
ATOM     24  O   LIG A   1      -8.998   6.611 130.484  0.00  0.00    -0.431 OA
BRANCH  24  25
ATOM     25  C   LIG A   1      -9.964   7.302 129.821  0.00  0.00    +0.306 C 
ATOM     26  C   LIG A   1     -11.269   7.214 130.538  0.00  0.00    +0.136 C 
ATOM     27  O   LIG A   1      -9.818   7.882 128.747  0.00  0.00    -0.251 OA
ENDBRANCH  24  25
ENDBRANCH   7  24
BRANCH   9  28
ATOM     28  O   LIG A   1      -7.737   4.893 127.612  0.00  0.00    -0.434 OA
BRANCH  28  29
ATOM     29  C   LIG A   1      -8.238   5.059 126.362  0.00  0.00    +0.306 C 
ATOM     30  C   LIG A   1      -7.572   4.101 125.415  0.00  0.00    +0.136 C 
ATOM     31  O   LIG A   1      -9.142   5.817 126.034  0.00  0.00    -0.251 OA
ENDBRANCH  28  29
ENDBRANCH   9  28
BRANCH  14  32
ATOM     32  C   LIG A   1      -5.391   1.693 127.037  0.00  0.00    +0.034 C 
BRANCH  32  33
ATOM     33  C   LIG A   1      -3.925   2.023 126.843  0.00  0.00    -0.023 C 
ATOM     34  C   LIG A   1      -3.324   3.217 126.676  0.00  0.00    -0.055 C 
ATOM     35  C   LIG A   1      -1.822   3.256 126.499  0.00  0.00    +0.043 C 
BRANCH  34  36
ATOM     36  C   LIG A   1      -4.047   4.476 126.649  0.00  0.00    -0.005 C 
ATOM     37  C   LIG A   1      -3.823   5.507 127.478  0.00  0.00    +0.008 C 
ENDBRANCH  34  36
ENDBRANCH  32  33
ENDBRANCH  14  32
TORSDOF 12
ENDMDL
MODEL 9
REMARK VINA RESULT:      -7.5      3.073      7.541
REMARK  Name = NuBBE_226
REMARK  18 active torsions:
REMARK  status: ('A' for Active; 'I' for Inactive)
REMARK    1  A    between atoms: C_1  and  C_2
REMARK    2  A    between atoms: C_4  and  O_6
REMARK    3  A    between atoms: O_6  and  C_7
REMARK    4  A    between atoms: C_7  and  C_8
REMARK    5  A    between atoms: C_8  and  C_9
REMARK    6  A    between atoms: C_9  and  C_10
REMARK    7  A    between atoms: C_15  and  O_17
REMARK    8  A    between atoms: O_17  and  C_18
REMARK    9  A    between atoms: C_18  and  C_19
REMARK   10  A    between atoms: C_22  and  O_24
REMARK   11  A    between atoms: O_24  and  C_25
REMARK   12  A    between atoms: C_25  and  C_26
REMARK   13  A    between atoms: C_29  and  O_31
REMARK   14  A    between atoms: C_35  and  C_36
REMARK   15  A    between atoms: C_35  and  C_37
REMARK   16  A    between atoms: C_37  and  C_38
REMARK   17  A    between atoms: C_39  and  C_40
REMARK   18  A    between atoms: C_39  and  C_42
REMARK                            x       y       z     vdW  Elec       q    Type
REMARK                         _______ _______ _______ _____ _____    ______ ____
ROOT
ATOM      1  C   LIG A   1      -6.550   2.231 131.467  0.00  0.00    +0.012 C 
ATOM      2  C   LIG A   1      -6.927   3.080 130.246  0.00  0.00    +0.033 C 
ATOM      3  C   LIG A   1      -8.357   2.737 129.800  0.00  0.00    +0.181 C 
ATOM      4  C   LIG A   1      -8.435   1.407 129.027  0.00  0.00    +0.062 C 
ATOM      5  C   LIG A   1      -7.195   0.968 128.178  0.00  0.00    +0.067 C 
ATOM      6  C   LIG A   1      -7.719   0.287 126.925  0.00  0.00    +0.009 C 
ATOM      7  C   LIG A   1      -8.134  -1.125 127.252  0.00  0.00    +0.343 C 
ATOM      8  O   LIG A   1      -7.452  -1.429 128.474  0.00  0.00    -0.297 OA
ATOM      9  C   LIG A   1      -6.572  -0.337 128.806  0.00  0.00    +0.325 C 
ATOM     10  C   LIG A   1      -7.719   0.819 125.708  0.00  0.00    +0.010 C 
ATOM     11  C   LIG A   1      -7.182   2.151 125.386  0.00  0.00    +0.138 C 
ATOM     12  C   LIG A   1      -6.244   2.741 126.438  0.00  0.00    +0.040 C 
ATOM     13  C   LIG A   1      -6.163   2.116 127.881  0.00  0.00    +0.015 C 
ATOM     14  C   LIG A   1      -5.912   3.201 129.048  0.00  0.00    -0.019 C 
ATOM     15  C   LIG A   1      -6.087   4.668 128.527  0.00  0.00    +0.012 C 
ENDROOT
BRANCH  11  16
ATOM     16  O   LIG A   1      -6.470   2.048 124.157  0.00  0.00    -0.388 OA
ATOM     17  H   LIG A   1      -5.917   2.843 124.072  0.00  0.00    +0.210 HD
ENDBRANCH  11  16
BRANCH   3  18
ATOM     18  O   LIG A   1      -9.059   3.761 129.053  0.00  0.00    -0.461 OA
BRANCH  18  19
ATOM     19  C   LIG A   1      -9.964   4.504 129.763  0.00  0.00    +0.307 C 
ATOM     20  O   LIG A   1     -10.984   4.084 130.289  0.00  0.00    -0.251 OA
BRANCH  19  21
ATOM     21  C   LIG A   1      -9.603   5.964 129.785  0.00  0.00    +0.120 C 
BRANCH  21  22
ATOM     22  C   LIG A   1      -9.094   6.370 131.157  0.00  0.00    +0.008 C 
ATOM     23  C   LIG A   1      -7.622   6.744 131.138  0.00  0.00    +0.004 C 
ENDBRANCH  21  22
ENDBRANCH  19  21
ENDBRANCH  18  19
ENDBRANCH   3  18
BRANCH   7  24
ATOM     24  O   LIG A   1      -7.742  -2.054 126.233  0.00  0.00    -0.431 OA
BRANCH  24  25
ATOM     25  C   LIG A   1      -8.747  -2.709 125.592  0.00  0.00    +0.306 C 
ATOM     26  C   LIG A   1      -8.203  -3.763 124.685  0.00  0.00    +0.136 C 
ATOM     27  O   LIG A   1      -9.945  -2.451 125.688  0.00  0.00    -0.251 OA
ENDBRANCH  24  25
ENDBRANCH   7  24
BRANCH   9  28
ATOM     28  O   LIG A   1      -5.242  -0.596 128.334  0.00  0.00    -0.434 OA
BRANCH  28  29
ATOM     29  C   LIG A   1      -4.468  -1.346 129.157  0.00  0.00    +0.306 C 
ATOM     30  C   LIG A   1      -4.061  -0.533 130.354  0.00  0.00    +0.136 C 
ATOM     31  O   LIG A   1      -4.180  -2.527 129.012  0.00  0.00    -0.251 OA
ENDBRANCH  28  29
ENDBRANCH   9  28
BRANCH  14  32
ATOM     32  C   LIG A   1      -4.422   3.123 129.589  0.00  0.00    +0.034 C 
BRANCH  32  33
ATOM     33  C   LIG A   1      -3.382   2.803 128.535  0.00  0.00    -0.023 C 
ATOM     34  C   LIG A   1      -2.692   3.629 127.724  0.00  0.00    -0.055 C 
ATOM     35  C   LIG A   1      -1.703   3.029 126.749  0.00  0.00    +0.043 C 
BRANCH  34  36
ATOM     36  C   LIG A   1      -2.854   5.071 127.732  0.00  0.00    -0.005 C 
ATOM     37  C   LIG A   1      -2.311   5.899 128.638  0.00  0.00    +0.008 C 
ENDBRANCH  34  36
ENDBRANCH  32  33
ENDBRANCH  14  32
TORSDOF 12
ENDMDL
