MODEL 1
REMARK VINA RESULT:      -9.3      0.000      0.000
REMARK  Name = NuBBE_1038
REMARK  9 active torsions:
REMARK  status: ('A' for Active; 'I' for Inactive)
REMARK    1  A    between atoms: C_5  and  C_6
REMARK    2  A    between atoms: C_10  and  C_11
REMARK    3  A    between atoms: C_17  and  C_18
REMARK    4  A    between atoms: C_21  and  C_22
REMARK    5  A    between atoms: C_22  and  O_23
REMARK    6  A    between atoms: C_30  and  C_31
REMARK    7  A    between atoms: C_30  and  C_32
REMARK    8  A    between atoms: C_36  and  C_37
REMARK    9  A    between atoms: C_36  and  C_38
REMARK                            x       y       z     vdW  Elec       q    Type
REMARK                         _______ _______ _______ _____ _____    ______ ____
ROOT
ATOM      1  O   LIG A   1      -4.902  -3.474 133.766  0.00  0.00    -0.297 OA
ATOM      2  C   LIG A   1      -5.570  -3.356 132.738  0.00  0.00    +0.139 C 
ATOM      3  C   LIG A   1      -5.898  -4.576 131.887  0.00  0.00    +0.075 C 
ATOM      4  C   LIG A   1      -5.680  -4.384 130.376  0.00  0.00    +0.015 C 
ATOM      5  C   LIG A   1      -5.598  -2.893 129.921  0.00  0.00    -0.024 C 
ATOM      6  C   LIG A   1      -4.108  -2.503 130.149  0.00  0.00    +0.012 C 
ATOM      7  C   LIG A   1      -6.607  -2.111 130.830  0.00  0.00    +0.008 C 
ATOM      8  C   LIG A   1      -7.078  -0.830 130.149  0.00  0.00    +0.005 C 
ATOM      9  C   LIG A   1      -7.944  -1.153 128.914  0.00  0.00    +0.008 C 
ATOM     10  C   LIG A   1      -7.508  -2.411 128.074  0.00  0.00    -0.019 C 
ATOM     11  C   LIG A   1      -8.393  -3.622 128.492  0.00  0.00    +0.012 C 
ATOM     12  C   LIG A   1      -5.979  -2.720 128.363  0.00  0.00    +0.006 C 
ATOM     13  C   LIG A   1      -5.054  -1.698 127.615  0.00  0.00    +0.031 C 
ATOM     14  C   LIG A   1      -5.637  -0.843 126.533  0.00  0.00    -0.026 C 
ATOM     15  C   LIG A   1      -6.885  -0.957 126.056  0.00  0.00    -0.063 C 
ATOM     16  C   LIG A   1      -7.733  -2.152 126.492  0.00  0.00    -0.005 C 
ATOM     17  C   LIG A   1      -7.286  -3.390 125.657  0.00  0.00    +0.016 C 
ATOM     18  C   LIG A   1      -9.220  -1.865 126.132  0.00  0.00    +0.012 C 
ATOM     19  C   LIG A   1      -9.451  -1.493 124.652  0.00  0.00    +0.019 C 
ATOM     20  C   LIG A   1      -8.446  -0.454 124.066  0.00  0.00    +0.074 C 
ATOM     21  C   LIG A   1      -7.571   0.128 125.213  0.00  0.00    +0.033 C 
ATOM     22  C   LIG A   1      -6.687   1.320 124.765  0.00  0.00    +0.015 C 
ATOM     23  C   LIG A   1      -7.468   2.445 124.045  0.00  0.00    -0.034 C 
ATOM     24  C   LIG A   1      -6.461   3.433 123.425  0.00  0.00    +0.011 C 
ATOM     25  C   LIG A   1      -8.334   3.234 125.050  0.00  0.00    +0.011 C 
ATOM     26  C   LIG A   1      -8.344   1.853 122.925  0.00  0.00    +0.007 C 
ATOM     27  C   LIG A   1      -9.237   0.705 123.400  0.00  0.00    +0.019 C 
ATOM     28  C   LIG A   1      -6.202  -2.013 132.332  0.00  0.00    +0.027 C 
ATOM     29  C   LIG A   1      -5.257  -0.848 132.665  0.00  0.00    +0.019 C 
ATOM     30  C   LIG A   1      -7.466  -1.843 133.206  0.00  0.00    +0.019 C 
ENDROOT
BRANCH  20  31
ATOM     31  C   LIG A   1      -7.583  -1.123 122.971  0.00  0.00    +0.311 C 
ATOM     32  O   LIG A   1      -6.400  -0.903 122.766  0.00  0.00    -0.250 OA
BRANCH  31  33
ATOM     33  O   LIG A   1      -8.261  -1.995 122.183  0.00  0.00    -0.480 OA
ATOM     34  H   LIG A   1      -9.169  -2.196 122.472  0.00  0.00    +0.295 HD
ENDBRANCH  31  33
ENDBRANCH  20  31
TORSDOF 2
ENDMDL
MODEL 2
REMARK VINA RESULT:      -9.0      3.880      7.251
REMARK  Name = NuBBE_1038
REMARK  9 active torsions:
REMARK  status: ('A' for Active; 'I' for Inactive)
REMARK    1  A    between atoms: C_5  and  C_6
REMARK    2  A    between atoms: C_10  and  C_11
REMARK    3  A    between atoms: C_17  and  C_18
REMARK    4  A    between atoms: C_21  and  C_22
REMARK    5  A    between atoms: C_22  and  O_23
REMARK    6  A    between atoms: C_30  and  C_31
REMARK    7  A    between atoms: C_30  and  C_32
REMARK    8  A    between atoms: C_36  and  C_37
REMARK    9  A    between atoms: C_36  and  C_38
REMARK                            x       y       z     vdW  Elec       q    Type
REMARK                         _______ _______ _______ _____ _____    ______ ____
ROOT
ATOM      1  O   LIG A   1      -8.860  -3.469 123.150  0.00  0.00    -0.297 OA
ATOM      2  C   LIG A   1      -8.313  -3.027 124.161  0.00  0.00    +0.139 C 
ATOM      3  C   LIG A   1      -8.857  -3.365 125.544  0.00  0.00    +0.075 C 
ATOM      4  C   LIG A   1      -8.977  -2.166 126.500  0.00  0.00    +0.015 C 
ATOM      5  C   LIG A   1      -8.132  -0.921 126.081  0.00  0.00    -0.024 C 
ATOM      6  C   LIG A   1      -9.041  -0.162 125.071  0.00  0.00    +0.012 C 
ATOM      7  C   LIG A   1      -6.815  -1.490 125.450  0.00  0.00    +0.008 C 
ATOM      8  C   LIG A   1      -5.680  -0.475 125.546  0.00  0.00    +0.005 C 
ATOM      9  C   LIG A   1      -5.263  -0.257 127.014  0.00  0.00    +0.008 C 
ATOM     10  C   LIG A   1      -6.427  -0.283 128.074  0.00  0.00    -0.019 C 
ATOM     11  C   LIG A   1      -6.473  -1.692 128.734  0.00  0.00    +0.012 C 
ATOM     12  C   LIG A   1      -7.799   0.027 127.342  0.00  0.00    +0.006 C 
ATOM     13  C   LIG A   1      -7.918   1.556 127.008  0.00  0.00    +0.031 C 
ATOM     14  C   LIG A   1      -6.980   2.521 127.663  0.00  0.00    -0.026 C 
ATOM     15  C   LIG A   1      -6.099   2.201 128.622  0.00  0.00    -0.063 C 
ATOM     16  C   LIG A   1      -6.163   0.806 129.243  0.00  0.00    -0.005 C 
ATOM     17  C   LIG A   1      -7.323   0.794 130.286  0.00  0.00    +0.016 C 
ATOM     18  C   LIG A   1      -4.840   0.547 130.023  0.00  0.00    +0.012 C 
ATOM     19  C   LIG A   1      -4.496   1.634 131.062  0.00  0.00    +0.019 C 
ATOM     20  C   LIG A   1      -4.660   3.103 130.563  0.00  0.00    +0.074 C 
ATOM     21  C   LIG A   1      -4.927   3.104 129.030  0.00  0.00    +0.033 C 
ATOM     22  C   LIG A   1      -4.894   4.522 128.404  0.00  0.00    +0.015 C 
ATOM     23  C   LIG A   1      -3.616   5.327 128.740  0.00  0.00    -0.034 C 
ATOM     24  C   LIG A   1      -3.814   6.787 128.290  0.00  0.00    +0.011 C 
ATOM     25  C   LIG A   1      -2.401   4.765 127.971  0.00  0.00    +0.011 C 
ATOM     26  C   LIG A   1      -3.353   5.302 130.257  0.00  0.00    +0.007 C 
ATOM     27  C   LIG A   1      -3.350   3.889 130.845  0.00  0.00    +0.019 C 
ATOM     28  C   LIG A   1      -7.000  -2.227 124.089  0.00  0.00    +0.027 C 
ATOM     29  C   LIG A   1      -6.996  -1.306 122.858  0.00  0.00    +0.019 C 
ATOM     30  C   LIG A   1      -5.868  -3.261 123.894  0.00  0.00    +0.019 C 
ENDROOT
BRANCH  20  31
ATOM     31  C   LIG A   1      -5.801   3.796 131.343  0.00  0.00    +0.311 C 
ATOM     32  O   LIG A   1      -6.733   4.407 130.845  0.00  0.00    -0.250 OA
BRANCH  31  33
ATOM     33  O   LIG A   1      -5.685   3.709 132.692  0.00  0.00    -0.480 OA
ATOM     34  H   LIG A   1      -4.930   4.190 133.075  0.00  0.00    +0.295 HD
ENDBRANCH  31  33
ENDBRANCH  20  31
TORSDOF 2
ENDMDL
MODEL 3
REMARK VINA RESULT:      -8.9      2.818      4.695
REMARK  Name = NuBBE_1038
REMARK  9 active torsions:
REMARK  status: ('A' for Active; 'I' for Inactive)
REMARK    1  A    between atoms: C_5  and  C_6
REMARK    2  A    between atoms: C_10  and  C_11
REMARK    3  A    between atoms: C_17  and  C_18
REMARK    4  A    between atoms: C_21  and  C_22
REMARK    5  A    between atoms: C_22  and  O_23
REMARK    6  A    between atoms: C_30  and  C_31
REMARK    7  A    between atoms: C_30  and  C_32
REMARK    8  A    between atoms: C_36  and  C_37
REMARK    9  A    between atoms: C_36  and  C_38
REMARK                            x       y       z     vdW  Elec       q    Type
REMARK                         _______ _______ _______ _____ _____    ______ ____
ROOT
ATOM      1  O   LIG A   1      -6.808  -1.741 134.677  0.00  0.00    -0.297 OA
ATOM      2  C   LIG A   1      -6.455  -1.064 133.711  0.00  0.00    +0.139 C 
ATOM      3  C   LIG A   1      -6.013   0.381 133.900  0.00  0.00    +0.075 C 
ATOM      4  C   LIG A   1      -6.620   1.377 132.896  0.00  0.00    +0.015 C 
ATOM      5  C   LIG A   1      -7.208   0.716 131.609  0.00  0.00    -0.024 C 
ATOM      6  C   LIG A   1      -8.653   0.303 132.016  0.00  0.00    +0.012 C 
ATOM      7  C   LIG A   1      -6.268  -0.494 131.280  0.00  0.00    +0.008 C 
ATOM      8  C   LIG A   1      -6.336  -0.851 129.799  0.00  0.00    +0.005 C 
ATOM      9  C   LIG A   1      -5.725   0.272 128.936  0.00  0.00    +0.008 C 
ATOM     10  C   LIG A   1      -5.985   1.743 129.433  0.00  0.00    -0.019 C 
ATOM     11  C   LIG A   1      -4.732   2.235 130.215  0.00  0.00    +0.012 C 
ATOM     12  C   LIG A   1      -7.261   1.753 130.375  0.00  0.00    +0.006 C 
ATOM     13  C   LIG A   1      -8.577   1.633 129.530  0.00  0.00    +0.031 C 
ATOM     14  C   LIG A   1      -8.517   1.857 128.051  0.00  0.00    -0.026 C 
ATOM     15  C   LIG A   1      -7.431   2.274 127.383  0.00  0.00    -0.063 C 
ATOM     16  C   LIG A   1      -6.213   2.741 128.179  0.00  0.00    -0.005 C 
ATOM     17  C   LIG A   1      -6.486   4.196 128.669  0.00  0.00    +0.016 C 
ATOM     18  C   LIG A   1      -4.986   2.800 127.222  0.00  0.00    +0.012 C 
ATOM     19  C   LIG A   1      -5.214   3.647 125.953  0.00  0.00    +0.019 C 
ATOM     20  C   LIG A   1      -6.572   3.397 125.226  0.00  0.00    +0.074 C 
ATOM     21  C   LIG A   1      -7.282   2.165 125.859  0.00  0.00    +0.033 C 
ATOM     22  C   LIG A   1      -8.536   1.709 125.070  0.00  0.00    +0.015 C 
ATOM     23  C   LIG A   1      -8.281   1.481 123.561  0.00  0.00    -0.034 C 
ATOM     24  C   LIG A   1      -9.634   1.290 122.849  0.00  0.00    +0.011 C 
ATOM     25  C   LIG A   1      -7.453   0.197 123.338  0.00  0.00    +0.011 C 
ATOM     26  C   LIG A   1      -7.561   2.699 122.952  0.00  0.00    +0.007 C 
ATOM     27  C   LIG A   1      -6.304   3.106 123.724  0.00  0.00    +0.019 C 
ATOM     28  C   LIG A   1      -6.325  -1.670 132.301  0.00  0.00    +0.027 C 
ATOM     29  C   LIG A   1      -7.448  -2.687 132.044  0.00  0.00    +0.019 C 
ATOM     30  C   LIG A   1      -4.988  -2.446 132.282  0.00  0.00    +0.019 C 
ENDROOT
BRANCH  20  31
ATOM     31  C   LIG A   1      -7.450   4.667 125.309  0.00  0.00    +0.311 C 
ATOM     32  O   LIG A   1      -8.644   4.691 125.562  0.00  0.00    -0.250 OA
BRANCH  31  33
ATOM     33  O   LIG A   1      -6.788   5.820 125.036  0.00  0.00    -0.480 OA
ATOM     34  H   LIG A   1      -5.925   5.709 124.597  0.00  0.00    +0.295 HD
ENDBRANCH  31  33
ENDBRANCH  20  31
TORSDOF 2
ENDMDL
MODEL 4
REMARK VINA RESULT:      -8.8      1.924      4.084
REMARK  Name = NuBBE_1038
REMARK  9 active torsions:
REMARK  status: ('A' for Active; 'I' for Inactive)
REMARK    1  A    between atoms: C_5  and  C_6
REMARK    2  A    between atoms: C_10  and  C_11
REMARK    3  A    between atoms: C_17  and  C_18
REMARK    4  A    between atoms: C_21  and  C_22
REMARK    5  A    between atoms: C_22  and  O_23
REMARK    6  A    between atoms: C_30  and  C_31
REMARK    7  A    between atoms: C_30  and  C_32
REMARK    8  A    between atoms: C_36  and  C_37
REMARK    9  A    between atoms: C_36  and  C_38
REMARK                            x       y       z     vdW  Elec       q    Type
REMARK                         _______ _______ _______ _____ _____    ______ ____
ROOT
ATOM      1  O   LIG A   1      -4.889  -4.042 135.472  0.00  0.00    -0.297 OA
ATOM      2  C   LIG A   1      -4.843  -3.411 134.415  0.00  0.00    +0.139 C 
ATOM      3  C   LIG A   1      -4.861  -1.887 134.425  0.00  0.00    +0.075 C 
ATOM      4  C   LIG A   1      -5.826  -1.248 133.411  0.00  0.00    +0.015 C 
ATOM      5  C   LIG A   1      -6.279  -2.204 132.263  0.00  0.00    -0.024 C 
ATOM      6  C   LIG A   1      -7.486  -2.983 132.865  0.00  0.00    +0.012 C 
ATOM      7  C   LIG A   1      -5.038  -3.104 131.938  0.00  0.00    +0.008 C 
ATOM      8  C   LIG A   1      -5.109  -3.640 130.512  0.00  0.00    +0.005 C 
ATOM      9  C   LIG A   1      -4.950  -2.496 129.489  0.00  0.00    +0.008 C 
ATOM     10  C   LIG A   1      -5.615  -1.123 129.880  0.00  0.00    -0.019 C 
ATOM     11  C   LIG A   1      -4.520  -0.186 130.469  0.00  0.00    +0.012 C 
ATOM     12  C   LIG A   1      -6.751  -1.386 130.955  0.00  0.00    +0.006 C 
ATOM     13  C   LIG A   1      -8.027  -1.997 130.277  0.00  0.00    +0.031 C 
ATOM     14  C   LIG A   1      -8.158  -1.943 128.787  0.00  0.00    -0.026 C 
ATOM     15  C   LIG A   1      -7.313  -1.302 127.967  0.00  0.00    -0.063 C 
ATOM     16  C   LIG A   1      -6.242  -0.397 128.576  0.00  0.00    -0.005 C 
ATOM     17  C   LIG A   1      -6.916   0.955 128.963  0.00  0.00    +0.016 C 
ATOM     18  C   LIG A   1      -5.175  -0.085 127.485  0.00  0.00    +0.012 C 
ATOM     19  C   LIG A   1      -5.757   0.496 126.180  0.00  0.00    +0.019 C 
ATOM     20  C   LIG A   1      -7.023  -0.237 125.636  0.00  0.00    +0.074 C 
ATOM     21  C   LIG A   1      -7.260  -1.541 126.451  0.00  0.00    +0.033 C 
ATOM     22  C   LIG A   1      -8.368  -2.444 125.852  0.00  0.00    +0.015 C 
ATOM     23  C   LIG A   1      -8.175  -2.763 124.350  0.00  0.00    -0.034 C 
ATOM     24  C   LIG A   1      -9.453  -3.436 123.815  0.00  0.00    +0.011 C 
ATOM     25  C   LIG A   1      -7.009  -3.755 124.150  0.00  0.00    +0.011 C 
ATOM     26  C   LIG A   1      -7.922  -1.466 123.559  0.00  0.00    +0.007 C 
ATOM     27  C   LIG A   1      -6.797  -0.610 124.145  0.00  0.00    +0.019 C 
ATOM     28  C   LIG A   1      -4.643  -4.112 133.060  0.00  0.00    +0.027 C 
ATOM     29  C   LIG A   1      -5.410  -5.443 133.022  0.00  0.00    +0.019 C 
ATOM     30  C   LIG A   1      -3.137  -4.446 132.959  0.00  0.00    +0.019 C 
ENDROOT
BRANCH  20  31
ATOM     31  C   LIG A   1      -8.243   0.710 125.704  0.00  0.00    +0.311 C 
ATOM     32  O   LIG A   1      -9.385   0.378 125.978  0.00  0.00    -0.250 OA
BRANCH  31  33
ATOM     33  O   LIG A   1      -7.964   2.000 125.391  0.00  0.00    -0.480 OA
ATOM     34  H   LIG A   1      -8.686   2.489 124.958  0.00  0.00    +0.295 HD
ENDBRANCH  31  33
ENDBRANCH  20  31
TORSDOF 2
ENDMDL
MODEL 5
REMARK VINA RESULT:      -8.8      7.616      9.572
REMARK  Name = NuBBE_1038
REMARK  9 active torsions:
REMARK  status: ('A' for Active; 'I' for Inactive)
REMARK    1  A    between atoms: C_5  and  C_6
REMARK    2  A    between atoms: C_10  and  C_11
REMARK    3  A    between atoms: C_17  and  C_18
REMARK    4  A    between atoms: C_21  and  C_22
REMARK    5  A    between atoms: C_22  and  O_23
REMARK    6  A    between atoms: C_30  and  C_31
REMARK    7  A    between atoms: C_30  and  C_32
REMARK    8  A    between atoms: C_36  and  C_37
REMARK    9  A    between atoms: C_36  and  C_38
REMARK                            x       y       z     vdW  Elec       q    Type
REMARK                         _______ _______ _______ _____ _____    ______ ____
ROOT
ATOM      1  O   LIG A   1       0.186   8.585 134.601  0.00  0.00    -0.297 OA
ATOM      2  C   LIG A   1      -0.647   7.777 134.190  0.00  0.00    +0.139 C 
ATOM      3  C   LIG A   1      -0.256   6.716 133.169  0.00  0.00    +0.075 C 
ATOM      4  C   LIG A   1      -1.239   6.556 131.996  0.00  0.00    +0.015 C 
ATOM      5  C   LIG A   1      -2.657   7.156 132.259  0.00  0.00    -0.024 C 
ATOM      6  C   LIG A   1      -2.512   8.660 131.885  0.00  0.00    +0.012 C 
ATOM      7  C   LIG A   1      -2.956   6.902 133.776  0.00  0.00    +0.008 C 
ATOM      8  C   LIG A   1      -4.458   6.874 134.039  0.00  0.00    +0.005 C 
ATOM      9  C   LIG A   1      -5.108   5.643 133.375  0.00  0.00    +0.008 C 
ATOM     10  C   LIG A   1      -4.517   5.219 131.979  0.00  0.00    -0.019 C 
ATOM     11  C   LIG A   1      -3.512   4.050 132.196  0.00  0.00    +0.012 C 
ATOM     12  C   LIG A   1      -3.780   6.465 131.330  0.00  0.00    +0.006 C 
ATOM     13  C   LIG A   1      -4.820   7.491 130.759  0.00  0.00    +0.031 C 
ATOM     14  C   LIG A   1      -6.245   7.065 130.587  0.00  0.00    -0.026 C 
ATOM     15  C   LIG A   1      -6.700   5.818 130.774  0.00  0.00    -0.063 C 
ATOM     16  C   LIG A   1      -5.689   4.692 130.994  0.00  0.00    -0.005 C 
ATOM     17  C   LIG A   1      -5.108   4.287 129.605  0.00  0.00    +0.016 C 
ATOM     18  C   LIG A   1      -6.441   3.451 131.559  0.00  0.00    +0.012 C 
ATOM     19  C   LIG A   1      -7.643   2.998 130.705  0.00  0.00    +0.019 C 
ATOM     20  C   LIG A   1      -8.585   4.146 130.226  0.00  0.00    +0.074 C 
ATOM     21  C   LIG A   1      -8.188   5.474 130.932  0.00  0.00    +0.033 C 
ATOM     22  C   LIG A   1      -9.196   6.625 130.684  0.00  0.00    +0.015 C 
ATOM     23  C   LIG A   1     -10.664   6.254 131.000  0.00  0.00    -0.034 C 
ATOM     24  C   LIG A   1     -11.585   7.371 130.473  0.00  0.00    +0.011 C 
ATOM     25  C   LIG A   1     -10.883   6.151 132.525  0.00  0.00    +0.011 C 
ATOM     26  C   LIG A   1     -11.038   4.928 130.310  0.00  0.00    +0.007 C 
ATOM     27  C   LIG A   1     -10.051   3.796 130.603  0.00  0.00    +0.019 C 
ATOM     28  C   LIG A   1      -2.073   7.717 134.768  0.00  0.00    +0.027 C 
ATOM     29  C   LIG A   1      -2.592   9.131 135.073  0.00  0.00    +0.019 C 
ATOM     30  C   LIG A   1      -1.966   6.966 136.115  0.00  0.00    +0.019 C 
ENDROOT
BRANCH  20  31
ATOM     31  C   LIG A   1      -8.513   4.273 128.687  0.00  0.00    +0.311 C 
ATOM     32  O   LIG A   1      -8.562   5.317 128.057  0.00  0.00    -0.250 OA
BRANCH  31  33
ATOM     33  O   LIG A   1      -8.421   3.087 128.035  0.00  0.00    -0.480 OA
ATOM     34  H   LIG A   1      -9.194   2.850 127.492  0.00  0.00    +0.295 HD
ENDBRANCH  31  33
ENDBRANCH  20  31
TORSDOF 2
ENDMDL
MODEL 6
REMARK VINA RESULT:      -8.8      1.854      8.528
REMARK  Name = NuBBE_1038
REMARK  9 active torsions:
REMARK  status: ('A' for Active; 'I' for Inactive)
REMARK    1  A    between atoms: C_5  and  C_6
REMARK    2  A    between atoms: C_10  and  C_11
REMARK    3  A    between atoms: C_17  and  C_18
REMARK    4  A    between atoms: C_21  and  C_22
REMARK    5  A    between atoms: C_22  and  O_23
REMARK    6  A    between atoms: C_30  and  C_31
REMARK    7  A    between atoms: C_30  and  C_32
REMARK    8  A    between atoms: C_36  and  C_37
REMARK    9  A    between atoms: C_36  and  C_38
REMARK                            x       y       z     vdW  Elec       q    Type
REMARK                         _______ _______ _______ _____ _____    ______ ____
ROOT
ATOM      1  O   LIG A   1      -7.936  -2.102 123.002  0.00  0.00    -0.297 OA
ATOM      2  C   LIG A   1      -7.744  -1.776 124.174  0.00  0.00    +0.139 C 
ATOM      3  C   LIG A   1      -7.090  -0.441 124.507  0.00  0.00    +0.075 C 
ATOM      4  C   LIG A   1      -5.976  -0.517 125.566  0.00  0.00    +0.015 C 
ATOM      5  C   LIG A   1      -5.999  -1.815 126.434  0.00  0.00    -0.024 C 
ATOM      6  C   LIG A   1      -5.213  -2.857 125.586  0.00  0.00    +0.012 C 
ATOM      7  C   LIG A   1      -7.513  -2.169 126.635  0.00  0.00    +0.008 C 
ATOM      8  C   LIG A   1      -7.715  -3.004 127.896  0.00  0.00    +0.005 C 
ATOM      9  C   LIG A   1      -7.411  -2.173 129.159  0.00  0.00    +0.008 C 
ATOM     10  C   LIG A   1      -6.220  -1.149 129.041  0.00  0.00    -0.019 C 
ATOM     11  C   LIG A   1      -6.804   0.267 128.758  0.00  0.00    +0.012 C 
ATOM     12  C   LIG A   1      -5.268  -1.598 127.854  0.00  0.00    +0.006 C 
ATOM     13  C   LIG A   1      -4.386  -2.823 128.283  0.00  0.00    +0.031 C 
ATOM     14  C   LIG A   1      -4.289  -3.180 129.733  0.00  0.00    -0.026 C 
ATOM     15  C   LIG A   1      -4.811  -2.458 130.736  0.00  0.00    -0.063 C 
ATOM     16  C   LIG A   1      -5.385  -1.076 130.426  0.00  0.00    -0.005 C 
ATOM     17  C   LIG A   1      -4.196  -0.075 130.306  0.00  0.00    +0.016 C 
ATOM     18  C   LIG A   1      -6.255  -0.616 131.633  0.00  0.00    +0.012 C 
ATOM     19  C   LIG A   1      -5.523  -0.654 132.990  0.00  0.00    +0.019 C 
ATOM     20  C   LIG A   1      -4.698  -1.949 133.262  0.00  0.00    +0.074 C 
ATOM     21  C   LIG A   1      -5.005  -3.003 132.159  0.00  0.00    +0.033 C 
ATOM     22  C   LIG A   1      -4.396  -4.397 132.457  0.00  0.00    +0.015 C 
ATOM     23  C   LIG A   1      -4.749  -4.950 133.858  0.00  0.00    -0.034 C 
ATOM     24  C   LIG A   1      -3.887  -6.197 134.133  0.00  0.00    +0.011 C 
ATOM     25  C   LIG A   1      -6.229  -5.386 133.913  0.00  0.00    +0.011 C 
ATOM     26  C   LIG A   1      -4.458  -3.891 134.937  0.00  0.00    +0.007 C 
ATOM     27  C   LIG A   1      -5.103  -2.535 134.642  0.00  0.00    +0.019 C 
ATOM     28  C   LIG A   1      -8.260  -2.628 125.347  0.00  0.00    +0.027 C 
ATOM     29  C   LIG A   1      -8.124  -4.125 125.028  0.00  0.00    +0.019 C 
ATOM     30  C   LIG A   1      -9.770  -2.322 125.479  0.00  0.00    +0.019 C 
ENDROOT
BRANCH  20  31
ATOM     31  C   LIG A   1      -3.191  -1.606 133.321  0.00  0.00    +0.311 C 
ATOM     32  O   LIG A   1      -2.317  -2.127 132.648  0.00  0.00    -0.250 OA
BRANCH  31  33
ATOM     33  O   LIG A   1      -2.872  -0.661 134.241  0.00  0.00    -0.480 OA
ATOM     34  H   LIG A   1      -3.050  -0.905 135.166  0.00  0.00    +0.295 HD
ENDBRANCH  31  33
ENDBRANCH  20  31
TORSDOF 2
ENDMDL
MODEL 7
REMARK VINA RESULT:      -8.7      7.131      9.210
REMARK  Name = NuBBE_1038
REMARK  9 active torsions:
REMARK  status: ('A' for Active; 'I' for Inactive)
REMARK    1  A    between atoms: C_5  and  C_6
REMARK    2  A    between atoms: C_10  and  C_11
REMARK    3  A    between atoms: C_17  and  C_18
REMARK    4  A    between atoms: C_21  and  C_22
REMARK    5  A    between atoms: C_22  and  O_23
REMARK    6  A    between atoms: C_30  and  C_31
REMARK    7  A    between atoms: C_30  and  C_32
REMARK    8  A    between atoms: C_36  and  C_37
REMARK    9  A    between atoms: C_36  and  C_38
REMARK                            x       y       z     vdW  Elec       q    Type
REMARK                         _______ _______ _______ _____ _____    ______ ____
ROOT
ATOM      1  O   LIG A   1      -3.111   6.351 138.786  0.00  0.00    -0.297 OA
ATOM      2  C   LIG A   1      -3.873   5.772 138.011  0.00  0.00    +0.139 C 
ATOM      3  C   LIG A   1      -3.423   4.511 137.285  0.00  0.00    +0.075 C 
ATOM      4  C   LIG A   1      -3.750   4.482 135.781  0.00  0.00    +0.015 C 
ATOM      5  C   LIG A   1      -4.849   5.501 135.342  0.00  0.00    -0.024 C 
ATOM      6  C   LIG A   1      -4.071   6.830 135.111  0.00  0.00    +0.012 C 
ATOM      7  C   LIG A   1      -5.876   5.561 136.524  0.00  0.00    +0.008 C 
ATOM      8  C   LIG A   1      -7.249   6.010 136.034  0.00  0.00    +0.005 C 
ATOM      9  C   LIG A   1      -7.879   4.942 135.117  0.00  0.00    +0.008 C 
ATOM     10  C   LIG A   1      -6.886   4.172 134.169  0.00  0.00    -0.019 C 
ATOM     11  C   LIG A   1      -6.532   2.803 134.820  0.00  0.00    +0.012 C 
ATOM     12  C   LIG A   1      -5.575   5.045 133.976  0.00  0.00    +0.006 C 
ATOM     13  C   LIG A   1      -5.842   6.240 132.994  0.00  0.00    +0.031 C 
ATOM     14  C   LIG A   1      -7.078   6.229 132.152  0.00  0.00    -0.026 C 
ATOM     15  C   LIG A   1      -7.945   5.207 132.075  0.00  0.00    -0.063 C 
ATOM     16  C   LIG A   1      -7.573   3.878 132.733  0.00  0.00    -0.005 C 
ATOM     17  C   LIG A   1      -6.586   3.130 131.786  0.00  0.00    +0.016 C 
ATOM     18  C   LIG A   1      -8.857   3.003 132.845  0.00  0.00    +0.012 C 
ATOM     19  C   LIG A   1      -9.605   2.806 131.511  0.00  0.00    +0.019 C 
ATOM     20  C   LIG A   1      -9.793   4.099 130.659  0.00  0.00    +0.074 C 
ATOM     21  C   LIG A   1      -9.359   5.339 131.494  0.00  0.00    +0.033 C 
ATOM     22  C   LIG A   1      -9.706   6.688 130.813  0.00  0.00    +0.015 C 
ATOM     23  C   LIG A   1     -11.186   6.809 130.378  0.00  0.00    -0.034 C 
ATOM     24  C   LIG A   1     -11.345   8.061 129.494  0.00  0.00    +0.011 C 
ATOM     25  C   LIG A   1     -12.101   6.990 131.609  0.00  0.00    +0.011 C 
ATOM     26  C   LIG A   1     -11.608   5.568 129.570  0.00  0.00    +0.007 C 
ATOM     27  C   LIG A   1     -11.292   4.249 130.280  0.00  0.00    +0.019 C 
ATOM     28  C   LIG A   1      -5.337   6.213 137.833  0.00  0.00    +0.027 C 
ATOM     29  C   LIG A   1      -5.449   7.745 137.877  0.00  0.00    +0.019 C 
ATOM     30  C   LIG A   1      -6.111   5.660 139.052  0.00  0.00    +0.019 C 
ENDROOT
BRANCH  20  31
ATOM     31  C   LIG A   1      -8.986   3.983 129.346  0.00  0.00    +0.311 C 
ATOM     32  O   LIG A   1      -8.351   4.883 128.820  0.00  0.00    -0.250 OA
BRANCH  31  33
ATOM     33  O   LIG A   1      -9.053   2.761 128.759  0.00  0.00    -0.480 OA
ATOM     34  H   LIG A   1      -9.568   2.725 127.933  0.00  0.00    +0.295 HD
ENDBRANCH  31  33
ENDBRANCH  20  31
TORSDOF 2
ENDMDL
MODEL 8
REMARK VINA RESULT:      -8.6      8.609     11.846
REMARK  Name = NuBBE_1038
REMARK  9 active torsions:
REMARK  status: ('A' for Active; 'I' for Inactive)
REMARK    1  A    between atoms: C_5  and  C_6
REMARK    2  A    between atoms: C_10  and  C_11
REMARK    3  A    between atoms: C_17  and  C_18
REMARK    4  A    between atoms: C_21  and  C_22
REMARK    5  A    between atoms: C_22  and  O_23
REMARK    6  A    between atoms: C_30  and  C_31
REMARK    7  A    between atoms: C_30  and  C_32
REMARK    8  A    between atoms: C_36  and  C_37
REMARK    9  A    between atoms: C_36  and  C_38
REMARK                            x       y       z     vdW  Elec       q    Type
REMARK                         _______ _______ _______ _____ _____    ______ ____
ROOT
ATOM      1  O   LIG A   1     -10.291   3.320 131.117  0.00  0.00    -0.297 OA
ATOM      2  C   LIG A   1      -9.111   3.673 131.116  0.00  0.00    +0.139 C 
ATOM      3  C   LIG A   1      -7.995   2.637 131.178  0.00  0.00    +0.075 C 
ATOM      4  C   LIG A   1      -6.876   2.955 132.185  0.00  0.00    +0.015 C 
ATOM      5  C   LIG A   1      -6.823   4.449 132.638  0.00  0.00    -0.024 C 
ATOM      6  C   LIG A   1      -7.849   4.533 133.806  0.00  0.00    +0.012 C 
ATOM      7  C   LIG A   1      -7.221   5.293 131.379  0.00  0.00    +0.008 C 
ATOM      8  C   LIG A   1      -6.655   6.707 131.468  0.00  0.00    +0.005 C 
ATOM      9  C   LIG A   1      -5.116   6.689 131.367  0.00  0.00    +0.008 C 
ATOM     10  C   LIG A   1      -4.393   5.476 132.063  0.00  0.00    -0.019 C 
ATOM     11  C   LIG A   1      -4.059   4.406 130.982  0.00  0.00    +0.012 C 
ATOM     12  C   LIG A   1      -5.356   4.863 133.165  0.00  0.00    +0.006 C 
ATOM     13  C   LIG A   1      -5.397   5.778 134.438  0.00  0.00    +0.031 C 
ATOM     14  C   LIG A   1      -4.357   6.841 134.606  0.00  0.00    -0.026 C 
ATOM     15  C   LIG A   1      -3.298   7.011 133.800  0.00  0.00    -0.063 C 
ATOM     16  C   LIG A   1      -3.002   5.948 132.742  0.00  0.00    -0.005 C 
ATOM     17  C   LIG A   1      -2.292   4.752 133.446  0.00  0.00    +0.016 C 
ATOM     18  C   LIG A   1      -1.996   6.539 131.711  0.00  0.00    +0.012 C 
ATOM     19  C   LIG A   1      -0.709   7.112 132.341  0.00  0.00    +0.019 C 
ATOM     20  C   LIG A   1      -0.930   8.010 133.597  0.00  0.00    +0.074 C 
ATOM     21  C   LIG A   1      -2.450   8.290 133.776  0.00  0.00    +0.033 C 
ATOM     22  C   LIG A   1      -2.754   9.345 134.871  0.00  0.00    +0.015 C 
ATOM     23  C   LIG A   1      -1.968  10.667 134.705  0.00  0.00    -0.034 C 
ATOM     24  C   LIG A   1      -2.151  11.519 135.975  0.00  0.00    +0.011 C 
ATOM     25  C   LIG A   1      -2.520  11.482 133.515  0.00  0.00    +0.011 C 
ATOM     26  C   LIG A   1      -0.468  10.374 134.510  0.00  0.00    +0.007 C 
ATOM     27  C   LIG A   1      -0.191   9.362 133.397  0.00  0.00    +0.019 C 
ATOM     28  C   LIG A   1      -8.705   5.146 130.927  0.00  0.00    +0.027 C 
ATOM     29  C   LIG A   1      -9.690   6.074 131.656  0.00  0.00    +0.019 C 
ATOM     30  C   LIG A   1      -8.826   5.442 129.415  0.00  0.00    +0.019 C 
ENDROOT
BRANCH  20  31
ATOM     31  C   LIG A   1      -0.324   7.324 134.843  0.00  0.00    +0.311 C 
ATOM     32  O   LIG A   1      -0.954   6.915 135.805  0.00  0.00    -0.250 OA
BRANCH  31  33
ATOM     33  O   LIG A   1       1.029   7.225 134.821  0.00  0.00    -0.480 OA
ATOM     34  H   LIG A   1       1.419   7.051 133.945  0.00  0.00    +0.295 HD
ENDBRANCH  31  33
ENDBRANCH  20  31
TORSDOF 2
ENDMDL
MODEL 9
REMARK VINA RESULT:      -8.5      5.302      7.468
REMARK  Name = NuBBE_1038
REMARK  9 active torsions:
REMARK  status: ('A' for Active; 'I' for Inactive)
REMARK    1  A    between atoms: C_5  and  C_6
REMARK    2  A    between atoms: C_10  and  C_11
REMARK    3  A    between atoms: C_17  and  C_18
REMARK    4  A    between atoms: C_21  and  C_22
REMARK    5  A    between atoms: C_22  and  O_23
REMARK    6  A    between atoms: C_30  and  C_31
REMARK    7  A    between atoms: C_30  and  C_32
REMARK    8  A    between atoms: C_36  and  C_37
REMARK    9  A    between atoms: C_36  and  C_38
REMARK                            x       y       z     vdW  Elec       q    Type
REMARK                         _______ _______ _______ _____ _____    ______ ____
ROOT
ATOM      1  O   LIG A   1      -2.736   8.033 133.357  0.00  0.00    -0.297 OA
ATOM      2  C   LIG A   1      -2.994   7.359 132.360  0.00  0.00    +0.139 C 
ATOM      3  C   LIG A   1      -3.532   8.021 131.098  0.00  0.00    +0.075 C 
ATOM      4  C   LIG A   1      -4.736   7.307 130.458  0.00  0.00    +0.015 C 
ATOM      5  C   LIG A   1      -4.925   5.826 130.918  0.00  0.00    -0.024 C 
ATOM      6  C   LIG A   1      -5.738   5.935 132.240  0.00  0.00    +0.012 C 
ATOM      7  C   LIG A   1      -3.480   5.248 131.105  0.00  0.00    +0.008 C 
ATOM      8  C   LIG A   1      -3.477   3.729 130.962  0.00  0.00    +0.005 C 
ATOM      9  C   LIG A   1      -3.802   3.314 129.512  0.00  0.00    +0.008 C 
ATOM     10  C   LIG A   1      -4.864   4.202 128.762  0.00  0.00    -0.019 C 
ATOM     11  C   LIG A   1      -4.113   5.224 127.858  0.00  0.00    +0.012 C 
ATOM     12  C   LIG A   1      -5.751   4.964 129.834  0.00  0.00    +0.006 C 
ATOM     13  C   LIG A   1      -6.791   3.989 130.489  0.00  0.00    +0.031 C 
ATOM     14  C   LIG A   1      -7.050   2.662 129.848  0.00  0.00    -0.026 C 
ATOM     15  C   LIG A   1      -6.545   2.268 128.669  0.00  0.00    -0.063 C 
ATOM     16  C   LIG A   1      -5.804   3.292 127.809  0.00  0.00    -0.005 C 
ATOM     17  C   LIG A   1      -6.867   4.167 127.077  0.00  0.00    +0.016 C 
ATOM     18  C   LIG A   1      -5.000   2.532 126.714  0.00  0.00    +0.012 C 
ATOM     19  C   LIG A   1      -5.848   1.561 125.867  0.00  0.00    +0.019 C 
ATOM     20  C   LIG A   1      -6.825   0.654 126.678  0.00  0.00    +0.074 C 
ATOM     21  C   LIG A   1      -6.534   0.807 128.199  0.00  0.00    +0.033 C 
ATOM     22  C   LIG A   1      -7.310  -0.210 129.075  0.00  0.00    +0.015 C 
ATOM     23  C   LIG A   1      -7.140  -1.681 128.629  0.00  0.00    -0.034 C 
ATOM     24  C   LIG A   1      -8.149  -2.555 129.399  0.00  0.00    +0.011 C 
ATOM     25  C   LIG A   1      -5.724  -2.194 128.972  0.00  0.00    +0.011 C 
ATOM     26  C   LIG A   1      -7.412  -1.815 127.119  0.00  0.00    +0.007 C 
ATOM     27  C   LIG A   1      -6.605  -0.828 126.271  0.00  0.00    +0.019 C 
ATOM     28  C   LIG A   1      -2.675   5.854 132.293  0.00  0.00    +0.027 C 
ATOM     29  C   LIG A   1      -2.940   5.186 133.652  0.00  0.00    +0.019 C 
ATOM     30  C   LIG A   1      -1.159   5.741 132.012  0.00  0.00    +0.019 C 
ENDROOT
BRANCH  20  31
ATOM     31  C   LIG A   1      -8.286   1.024 126.334  0.00  0.00    +0.311 C 
ATOM     32  O   LIG A   1      -9.113   1.457 127.121  0.00  0.00    -0.250 OA
BRANCH  31  33
ATOM     33  O   LIG A   1      -8.629   0.796 125.041  0.00  0.00    -0.480 OA
ATOM     34  H   LIG A   1      -8.318  -0.049 124.672  0.00  0.00    +0.295 HD
ENDBRANCH  31  33
ENDBRANCH  20  31
TORSDOF 2
ENDMDL
