MODEL 1
REMARK VINA RESULT:     -10.0      0.000      0.000
REMARK  Name = NuBBE_1039
REMARK  10 active torsions:
REMARK  status: ('A' for Active; 'I' for Inactive)
REMARK    1  A    between atoms: C_1  and  C_2
REMARK    2  A    between atoms: C_8  and  C_9
REMARK    3  A    between atoms: C_14  and  C_15
REMARK    4  A    between atoms: N_19  and  O_20
REMARK    5  A    between atoms: C_21  and  C_22
REMARK    6  A    between atoms: C_21  and  C_23
REMARK    7  A    between atoms: C_26  and  C_29
REMARK    8  A    between atoms: C_29  and  O_31
REMARK    9  A    between atoms: C_34  and  C_36
REMARK   10  A    between atoms: C_34  and  C_37
REMARK                            x       y       z     vdW  Elec       q    Type
REMARK                         _______ _______ _______ _____ _____    ______ ____
ROOT
ATOM      1  C   LIG A   1      -5.078  -2.160 128.961  0.00  0.00    +0.016 C 
ATOM      2  C   LIG A   1      -6.242  -1.170 128.669  0.00  0.00    -0.005 C 
ATOM      3  C   LIG A   1      -6.192  -0.705 127.191  0.00  0.00    -0.063 C 
ATOM      4  C   LIG A   1      -6.227   0.596 126.844  0.00  0.00    -0.026 C 
ATOM      5  C   LIG A   1      -6.460   1.735 127.787  0.00  0.00    +0.031 C 
ATOM      6  C   LIG A   1      -7.009   1.260 129.150  0.00  0.00    +0.006 C 
ATOM      7  C   LIG A   1      -6.130   0.083 129.711  0.00  0.00    -0.019 C 
ATOM      8  C   LIG A   1      -4.646   0.562 129.823  0.00  0.00    +0.012 C 
ATOM      9  C   LIG A   1      -6.567  -0.335 131.155  0.00  0.00    +0.008 C 
ATOM     10  C   LIG A   1      -7.673   0.524 131.765  0.00  0.00    +0.005 C 
ATOM     11  C   LIG A   1      -7.301   2.002 131.625  0.00  0.00    +0.006 C 
ATOM     12  C   LIG A   1      -7.393   2.448 130.131  0.00  0.00    -0.024 C 
ATOM     13  C   LIG A   1      -8.837   2.864 129.716  0.00  0.00    +0.012 C 
ATOM     14  C   LIG A   1      -6.510   3.714 129.985  0.00  0.00    +0.013 C 
ATOM     15  C   LIG A   1      -6.474   4.610 131.227  0.00  0.00    +0.055 C 
ATOM     16  C   LIG A   1      -7.656   4.434 132.178  0.00  0.00    +0.063 C 
ATOM     17  N   LIG A   1      -8.212   5.541 132.580  0.00  0.00    -0.096 NA
ATOM     18  C   LIG A   1      -7.979   2.989 132.650  0.00  0.00    +0.010 C 
ATOM     19  C   LIG A   1      -9.489   2.716 132.815  0.00  0.00    +0.017 C 
ATOM     20  C   LIG A   1      -7.307   2.811 134.030  0.00  0.00    +0.017 C 
ATOM     21  C   LIG A   1      -6.309  -1.821 126.141  0.00  0.00    +0.033 C 
ATOM     22  C   LIG A   1      -7.712  -2.499 126.272  0.00  0.00    +0.074 C 
ATOM     23  C   LIG A   1      -7.842  -3.023 127.728  0.00  0.00    +0.019 C 
ATOM     24  C   LIG A   1      -7.597  -1.946 128.803  0.00  0.00    +0.012 C 
ATOM     25  C   LIG A   1      -7.810  -3.692 125.291  0.00  0.00    +0.019 C 
ATOM     26  C   LIG A   1      -7.464  -3.314 123.849  0.00  0.00    +0.007 C 
ATOM     27  C   LIG A   1      -6.075  -2.659 123.702  0.00  0.00    -0.034 C 
ATOM     28  C   LIG A   1      -5.951  -1.464 124.679  0.00  0.00    +0.015 C 
ATOM     29  C   LIG A   1      -5.919  -2.140 122.259  0.00  0.00    +0.011 C 
ATOM     30  C   LIG A   1      -4.959  -3.693 123.948  0.00  0.00    +0.011 C 
ENDROOT
BRANCH  17  31
ATOM     31  O   LIG A   1      -9.207   5.353 133.532  0.00  0.00    -0.409 OA
ATOM     32  H   LIG A   1      -9.083   6.119 134.122  0.00  0.00    +0.328 HD
ENDBRANCH  17  31
BRANCH  22  33
ATOM     33  C   LIG A   1      -8.876  -1.528 125.943  0.00  0.00    +0.311 C 
ATOM     34  O   LIG A   1      -8.773  -0.319 125.794  0.00  0.00    -0.250 OA
BRANCH  33  35
ATOM     35  O   LIG A   1     -10.073  -2.128 125.731  0.00  0.00    -0.480 OA
ATOM     36  H   LIG A   1     -10.827  -1.532 125.582  0.00  0.00    +0.295 HD
ENDBRANCH  33  35
ENDBRANCH  22  33
TORSDOF 3
ENDMDL
MODEL 2
REMARK VINA RESULT:      -9.3      1.979      3.634
REMARK  Name = NuBBE_1039
REMARK  10 active torsions:
REMARK  status: ('A' for Active; 'I' for Inactive)
REMARK    1  A    between atoms: C_1  and  C_2
REMARK    2  A    between atoms: C_8  and  C_9
REMARK    3  A    between atoms: C_14  and  C_15
REMARK    4  A    between atoms: N_19  and  O_20
REMARK    5  A    between atoms: C_21  and  C_22
REMARK    6  A    between atoms: C_21  and  C_23
REMARK    7  A    between atoms: C_26  and  C_29
REMARK    8  A    between atoms: C_29  and  O_31
REMARK    9  A    between atoms: C_34  and  C_36
REMARK   10  A    between atoms: C_34  and  C_37
REMARK                            x       y       z     vdW  Elec       q    Type
REMARK                         _______ _______ _______ _____ _____    ______ ____
ROOT
ATOM      1  C   LIG A   1      -6.383   2.563 124.635  0.00  0.00    +0.016 C 
ATOM      2  C   LIG A   1      -6.483   1.952 126.062  0.00  0.00    -0.005 C 
ATOM      3  C   LIG A   1      -7.575   0.853 126.099  0.00  0.00    -0.063 C 
ATOM      4  C   LIG A   1      -8.551   0.839 127.028  0.00  0.00    -0.026 C 
ATOM      5  C   LIG A   1      -8.637   1.761 128.203  0.00  0.00    +0.031 C 
ATOM      6  C   LIG A   1      -7.311   2.509 128.457  0.00  0.00    +0.006 C 
ATOM      7  C   LIG A   1      -6.788   3.157 127.122  0.00  0.00    -0.019 C 
ATOM      8  C   LIG A   1      -7.888   4.112 126.553  0.00  0.00    +0.012 C 
ATOM      9  C   LIG A   1      -5.519   4.042 127.361  0.00  0.00    +0.008 C 
ATOM     10  C   LIG A   1      -5.099   4.182 128.824  0.00  0.00    +0.005 C 
ATOM     11  C   LIG A   1      -6.314   4.586 129.662  0.00  0.00    +0.006 C 
ATOM     12  C   LIG A   1      -7.321   3.398 129.772  0.00  0.00    -0.024 C 
ATOM     13  C   LIG A   1      -6.963   2.413 130.927  0.00  0.00    +0.012 C 
ATOM     14  C   LIG A   1      -8.702   4.008 130.126  0.00  0.00    +0.013 C 
ATOM     15  C   LIG A   1      -8.634   5.261 131.005  0.00  0.00    +0.055 C 
ATOM     16  C   LIG A   1      -7.345   5.413 131.808  0.00  0.00    +0.063 C 
ATOM     17  N   LIG A   1      -7.507   5.713 133.064  0.00  0.00    -0.096 NA
ATOM     18  C   LIG A   1      -6.005   5.316 131.025  0.00  0.00    +0.010 C 
ATOM     19  C   LIG A   1      -4.875   4.625 131.816  0.00  0.00    +0.017 C 
ATOM     20  C   LIG A   1      -5.561   6.765 130.722  0.00  0.00    +0.017 C 
ATOM     21  C   LIG A   1      -7.356  -0.330 125.144  0.00  0.00    +0.033 C 
ATOM     22  C   LIG A   1      -6.051  -1.086 125.559  0.00  0.00    +0.074 C 
ATOM     23  C   LIG A   1      -4.887  -0.059 125.524  0.00  0.00    +0.019 C 
ATOM     24  C   LIG A   1      -5.142   1.202 126.374  0.00  0.00    +0.012 C 
ATOM     25  C   LIG A   1      -5.760  -2.220 124.546  0.00  0.00    +0.019 C 
ATOM     26  C   LIG A   1      -6.950  -3.159 124.336  0.00  0.00    +0.007 C 
ATOM     27  C   LIG A   1      -8.241  -2.428 123.910  0.00  0.00    -0.034 C 
ATOM     28  C   LIG A   1      -8.551  -1.284 124.906  0.00  0.00    +0.015 C 
ATOM     29  C   LIG A   1      -9.410  -3.433 123.926  0.00  0.00    +0.011 C 
ATOM     30  C   LIG A   1      -8.109  -1.889 122.473  0.00  0.00    +0.011 C 
ENDROOT
BRANCH  17  31
ATOM     31  O   LIG A   1      -6.316   5.957 133.739  0.00  0.00    -0.409 OA
ATOM     32  H   LIG A   1      -5.670   5.443 133.220  0.00  0.00    +0.328 HD
ENDBRANCH  17  31
BRANCH  22  33
ATOM     33  C   LIG A   1      -6.158  -1.733 126.965  0.00  0.00    +0.311 C 
ATOM     34  O   LIG A   1      -7.165  -2.239 127.440  0.00  0.00    -0.250 OA
BRANCH  33  35
ATOM     35  O   LIG A   1      -4.993  -1.791 127.653  0.00  0.00    -0.480 OA
ATOM     36  H   LIG A   1      -4.851  -1.087 128.308  0.00  0.00    +0.295 HD
ENDBRANCH  33  35
ENDBRANCH  22  33
TORSDOF 3
ENDMDL
MODEL 3
REMARK VINA RESULT:      -9.2      2.793      8.344
REMARK  Name = NuBBE_1039
REMARK  10 active torsions:
REMARK  status: ('A' for Active; 'I' for Inactive)
REMARK    1  A    between atoms: C_1  and  C_2
REMARK    2  A    between atoms: C_8  and  C_9
REMARK    3  A    between atoms: C_14  and  C_15
REMARK    4  A    between atoms: N_19  and  O_20
REMARK    5  A    between atoms: C_21  and  C_22
REMARK    6  A    between atoms: C_21  and  C_23
REMARK    7  A    between atoms: C_26  and  C_29
REMARK    8  A    between atoms: C_29  and  O_31
REMARK    9  A    between atoms: C_34  and  C_36
REMARK   10  A    between atoms: C_34  and  C_37
REMARK                            x       y       z     vdW  Elec       q    Type
REMARK                         _______ _______ _______ _____ _____    ______ ____
ROOT
ATOM      1  C   LIG A   1      -4.253   2.065 129.539  0.00  0.00    +0.016 C 
ATOM      2  C   LIG A   1      -5.702   2.009 128.976  0.00  0.00    -0.005 C 
ATOM      3  C   LIG A   1      -6.730   2.082 130.133  0.00  0.00    -0.063 C 
ATOM      4  C   LIG A   1      -7.733   1.192 130.263  0.00  0.00    -0.026 C 
ATOM      5  C   LIG A   1      -8.079   0.131 129.265  0.00  0.00    +0.031 C 
ATOM      6  C   LIG A   1      -7.400   0.371 127.899  0.00  0.00    +0.006 C 
ATOM      7  C   LIG A   1      -5.864   0.643 128.096  0.00  0.00    -0.019 C 
ATOM      8  C   LIG A   1      -5.224  -0.566 128.852  0.00  0.00    +0.012 C 
ATOM      9  C   LIG A   1      -5.111   0.752 126.728  0.00  0.00    +0.008 C 
ATOM     10  C   LIG A   1      -5.975   0.485 125.496  0.00  0.00    +0.005 C 
ATOM     11  C   LIG A   1      -6.738  -0.827 125.689  0.00  0.00    +0.006 C 
ATOM     12  C   LIG A   1      -7.846  -0.659 126.776  0.00  0.00    -0.024 C 
ATOM     13  C   LIG A   1      -9.171  -0.076 126.197  0.00  0.00    +0.012 C 
ATOM     14  C   LIG A   1      -8.181  -2.079 127.301  0.00  0.00    +0.013 C 
ATOM     15  C   LIG A   1      -8.063  -3.188 126.251  0.00  0.00    +0.055 C 
ATOM     16  C   LIG A   1      -8.157  -2.712 124.803  0.00  0.00    +0.063 C 
ATOM     17  N   LIG A   1      -8.957  -3.404 124.044  0.00  0.00    -0.096 NA
ATOM     18  C   LIG A   1      -7.212  -1.556 124.373  0.00  0.00    +0.010 C 
ATOM     19  C   LIG A   1      -7.849  -0.580 123.361  0.00  0.00    +0.017 C 
ATOM     20  C   LIG A   1      -5.985  -2.211 123.699  0.00  0.00    +0.017 C 
ATOM     21  C   LIG A   1      -6.660   3.347 131.003  0.00  0.00    +0.033 C 
ATOM     22  C   LIG A   1      -7.002   4.592 130.121  0.00  0.00    +0.074 C 
ATOM     23  C   LIG A   1      -5.996   4.615 128.938  0.00  0.00    +0.019 C 
ATOM     24  C   LIG A   1      -5.954   3.304 128.129  0.00  0.00    +0.012 C 
ATOM     25  C   LIG A   1      -6.837   5.885 130.956  0.00  0.00    +0.019 C 
ATOM     26  C   LIG A   1      -7.618   5.855 132.271  0.00  0.00    +0.007 C 
ATOM     27  C   LIG A   1      -7.278   4.640 133.160  0.00  0.00    -0.034 C 
ATOM     28  C   LIG A   1      -7.431   3.332 132.344  0.00  0.00    +0.015 C 
ATOM     29  C   LIG A   1      -8.259   4.603 134.349  0.00  0.00    +0.011 C 
ATOM     30  C   LIG A   1      -5.854   4.771 133.734  0.00  0.00    +0.011 C 
ENDROOT
BRANCH  17  31
ATOM     31  O   LIG A   1      -8.932  -3.019 122.708  0.00  0.00    -0.409 OA
ATOM     32  H   LIG A   1      -9.540  -3.659 122.293  0.00  0.00    +0.328 HD
ENDBRANCH  17  31
BRANCH  22  33
ATOM     33  C   LIG A   1      -8.459   4.563 129.589  0.00  0.00    +0.311 C 
ATOM     34  O   LIG A   1      -9.421   4.091 130.178  0.00  0.00    -0.250 OA
BRANCH  33  35
ATOM     35  O   LIG A   1      -8.645   5.199 128.408  0.00  0.00    -0.480 OA
ATOM     36  H   LIG A   1      -7.996   5.002 127.712  0.00  0.00    +0.295 HD
ENDBRANCH  33  35
ENDBRANCH  22  33
TORSDOF 3
ENDMDL
MODEL 4
REMARK VINA RESULT:      -9.1      3.853      9.006
REMARK  Name = NuBBE_1039
REMARK  10 active torsions:
REMARK  status: ('A' for Active; 'I' for Inactive)
REMARK    1  A    between atoms: C_1  and  C_2
REMARK    2  A    between atoms: C_8  and  C_9
REMARK    3  A    between atoms: C_14  and  C_15
REMARK    4  A    between atoms: N_19  and  O_20
REMARK    5  A    between atoms: C_21  and  C_22
REMARK    6  A    between atoms: C_21  and  C_23
REMARK    7  A    between atoms: C_26  and  C_29
REMARK    8  A    between atoms: C_29  and  O_31
REMARK    9  A    between atoms: C_34  and  C_36
REMARK   10  A    between atoms: C_34  and  C_37
REMARK                            x       y       z     vdW  Elec       q    Type
REMARK                         _______ _______ _______ _____ _____    ______ ____
ROOT
ATOM      1  C   LIG A   1      -2.167   4.906 127.490  0.00  0.00    +0.016 C 
ATOM      2  C   LIG A   1      -3.630   4.702 127.978  0.00  0.00    -0.005 C 
ATOM      3  C   LIG A   1      -3.652   4.412 129.500  0.00  0.00    -0.063 C 
ATOM      4  C   LIG A   1      -4.308   3.358 130.023  0.00  0.00    -0.026 C 
ATOM      5  C   LIG A   1      -5.201   2.432 129.259  0.00  0.00    +0.031 C 
ATOM      6  C   LIG A   1      -5.586   3.001 127.876  0.00  0.00    +0.006 C 
ATOM      7  C   LIG A   1      -4.301   3.490 127.112  0.00  0.00    -0.019 C 
ATOM      8  C   LIG A   1      -3.298   2.297 126.985  0.00  0.00    +0.012 C 
ATOM      9  C   LIG A   1      -4.628   3.946 125.651  0.00  0.00    +0.008 C 
ATOM     10  C   LIG A   1      -6.081   3.743 125.225  0.00  0.00    +0.005 C 
ATOM     11  C   LIG A   1      -6.506   2.308 125.545  0.00  0.00    +0.006 C 
ATOM     12  C   LIG A   1      -6.637   2.109 127.089  0.00  0.00    -0.024 C 
ATOM     13  C   LIG A   1      -8.029   2.549 127.635  0.00  0.00    +0.012 C 
ATOM     14  C   LIG A   1      -6.518   0.587 127.358  0.00  0.00    +0.013 C 
ATOM     15  C   LIG A   1      -7.094  -0.300 126.250  0.00  0.00    +0.055 C 
ATOM     16  C   LIG A   1      -8.121   0.383 125.350  0.00  0.00    +0.063 C 
ATOM     17  N   LIG A   1      -9.209  -0.299 125.135  0.00  0.00    -0.096 NA
ATOM     18  C   LIG A   1      -7.710   1.736 124.704  0.00  0.00    +0.010 C 
ATOM     19  C   LIG A   1      -8.873   2.743 124.586  0.00  0.00    +0.017 C 
ATOM     20  C   LIG A   1      -7.210   1.413 123.277  0.00  0.00    +0.017 C 
ATOM     21  C   LIG A   1      -3.055   5.511 130.393  0.00  0.00    +0.033 C 
ATOM     22  C   LIG A   1      -3.916   6.809 130.247  0.00  0.00    +0.074 C 
ATOM     23  C   LIG A   1      -3.929   7.193 128.743  0.00  0.00    +0.019 C 
ATOM     24  C   LIG A   1      -4.400   6.057 127.813  0.00  0.00    +0.012 C 
ATOM     25  C   LIG A   1      -3.271   7.958 131.061  0.00  0.00    +0.019 C 
ATOM     26  C   LIG A   1      -3.001   7.583 132.520  0.00  0.00    +0.007 C 
ATOM     27  C   LIG A   1      -2.138   6.313 132.678  0.00  0.00    -0.034 C 
ATOM     28  C   LIG A   1      -2.761   5.150 131.868  0.00  0.00    +0.015 C 
ATOM     29  C   LIG A   1      -2.102   5.919 134.168  0.00  0.00    +0.011 C 
ATOM     30  C   LIG A   1      -0.688   6.584 132.232  0.00  0.00    +0.011 C 
ENDROOT
BRANCH  17  31
ATOM     31  O   LIG A   1     -10.071   0.298 124.222  0.00  0.00    -0.409 OA
ATOM     32  H   LIG A   1     -10.936  -0.077 124.473  0.00  0.00    +0.328 HD
ENDBRANCH  17  31
BRANCH  22  33
ATOM     33  C   LIG A   1      -5.365   6.625 130.770  0.00  0.00    +0.311 C 
ATOM     34  O   LIG A   1      -5.731   5.769 131.563  0.00  0.00    -0.250 OA
BRANCH  33  35
ATOM     35  O   LIG A   1      -6.244   7.564 130.347  0.00  0.00    -0.480 OA
ATOM     36  H   LIG A   1      -5.860   8.413 130.071  0.00  0.00    +0.295 HD
ENDBRANCH  33  35
ENDBRANCH  22  33
TORSDOF 3
ENDMDL
MODEL 5
REMARK VINA RESULT:      -9.1      3.875      7.987
REMARK  Name = NuBBE_1039
REMARK  10 active torsions:
REMARK  status: ('A' for Active; 'I' for Inactive)
REMARK    1  A    between atoms: C_1  and  C_2
REMARK    2  A    between atoms: C_8  and  C_9
REMARK    3  A    between atoms: C_14  and  C_15
REMARK    4  A    between atoms: N_19  and  O_20
REMARK    5  A    between atoms: C_21  and  C_22
REMARK    6  A    between atoms: C_21  and  C_23
REMARK    7  A    between atoms: C_26  and  C_29
REMARK    8  A    between atoms: C_29  and  O_31
REMARK    9  A    between atoms: C_34  and  C_36
REMARK   10  A    between atoms: C_34  and  C_37
REMARK                            x       y       z     vdW  Elec       q    Type
REMARK                         _______ _______ _______ _____ _____    ______ ____
ROOT
ATOM      1  C   LIG A   1      -9.319   2.586 133.105  0.00  0.00    +0.016 C 
ATOM      2  C   LIG A   1      -8.308   2.525 131.924  0.00  0.00    -0.005 C 
ATOM      3  C   LIG A   1      -8.952   3.098 130.637  0.00  0.00    -0.063 C 
ATOM      4  C   LIG A   1      -8.942   2.429 129.467  0.00  0.00    -0.026 C 
ATOM      5  C   LIG A   1      -8.206   1.151 129.211  0.00  0.00    +0.031 C 
ATOM      6  C   LIG A   1      -7.167   0.845 130.311  0.00  0.00    +0.006 C 
ATOM      7  C   LIG A   1      -7.825   0.976 131.733  0.00  0.00    -0.019 C 
ATOM      8  C   LIG A   1      -9.054   0.014 131.818  0.00  0.00    +0.012 C 
ATOM      9  C   LIG A   1      -6.845   0.539 132.873  0.00  0.00    +0.008 C 
ATOM     10  C   LIG A   1      -5.503  -0.009 132.390  0.00  0.00    +0.005 C 
ATOM     11  C   LIG A   1      -5.748  -1.082 131.327  0.00  0.00    +0.006 C 
ATOM     12  C   LIG A   1      -6.276  -0.433 130.008  0.00  0.00    -0.024 C 
ATOM     13  C   LIG A   1      -5.125   0.085 129.093  0.00  0.00    +0.012 C 
ATOM     14  C   LIG A   1      -7.001  -1.550 129.215  0.00  0.00    +0.013 C 
ATOM     15  C   LIG A   1      -6.399  -2.948 129.393  0.00  0.00    +0.055 C 
ATOM     16  C   LIG A   1      -4.945  -2.965 129.858  0.00  0.00    +0.063 C 
ATOM     17  N   LIG A   1      -4.161  -3.764 129.192  0.00  0.00    -0.096 NA
ATOM     18  C   LIG A   1      -4.595  -2.138 131.126  0.00  0.00    +0.010 C 
ATOM     19  C   LIG A   1      -3.201  -1.477 131.068  0.00  0.00    +0.017 C 
ATOM     20  C   LIG A   1      -4.609  -3.122 132.317  0.00  0.00    +0.017 C 
ATOM     21  C   LIG A   1      -9.419   4.560 130.723  0.00  0.00    +0.033 C 
ATOM     22  C   LIG A   1      -8.176   5.479 130.960  0.00  0.00    +0.074 C 
ATOM     23  C   LIG A   1      -7.476   4.990 132.256  0.00  0.00    +0.019 C 
ATOM     24  C   LIG A   1      -7.116   3.492 132.245  0.00  0.00    +0.012 C 
ATOM     25  C   LIG A   1      -8.639   6.944 131.151  0.00  0.00    +0.019 C 
ATOM     26  C   LIG A   1      -9.541   7.442 130.019  0.00  0.00    +0.007 C 
ATOM     27  C   LIG A   1     -10.780   6.553 129.786  0.00  0.00    -0.034 C 
ATOM     28  C   LIG A   1     -10.343   5.080 129.597  0.00  0.00    +0.015 C 
ATOM     29  C   LIG A   1     -11.499   7.027 128.507  0.00  0.00    +0.011 C 
ATOM     30  C   LIG A   1     -11.773   6.690 130.956  0.00  0.00    +0.011 C 
ENDROOT
BRANCH  17  31
ATOM     31  O   LIG A   1      -2.874  -3.844 129.712  0.00  0.00    -0.409 OA
ATOM     32  H   LIG A   1      -2.651  -4.785 129.581  0.00  0.00    +0.328 HD
ENDBRANCH  17  31
BRANCH  22  33
ATOM     33  C   LIG A   1      -7.182   5.456 129.768  0.00  0.00    +0.311 C 
ATOM     34  O   LIG A   1      -7.438   5.071 128.636  0.00  0.00    -0.250 OA
BRANCH  33  35
ATOM     35  O   LIG A   1      -5.967   5.993 130.032  0.00  0.00    -0.480 OA
ATOM     36  H   LIG A   1      -5.213   5.583 129.576  0.00  0.00    +0.295 HD
ENDBRANCH  33  35
ENDBRANCH  22  33
TORSDOF 3
ENDMDL
MODEL 6
REMARK VINA RESULT:      -9.1      3.365      4.520
REMARK  Name = NuBBE_1039
REMARK  10 active torsions:
REMARK  status: ('A' for Active; 'I' for Inactive)
REMARK    1  A    between atoms: C_1  and  C_2
REMARK    2  A    between atoms: C_8  and  C_9
REMARK    3  A    between atoms: C_14  and  C_15
REMARK    4  A    between atoms: N_19  and  O_20
REMARK    5  A    between atoms: C_21  and  C_22
REMARK    6  A    between atoms: C_21  and  C_23
REMARK    7  A    between atoms: C_26  and  C_29
REMARK    8  A    between atoms: C_29  and  O_31
REMARK    9  A    between atoms: C_34  and  C_36
REMARK   10  A    between atoms: C_34  and  C_37
REMARK                            x       y       z     vdW  Elec       q    Type
REMARK                         _______ _______ _______ _____ _____    ______ ____
ROOT
ATOM      1  C   LIG A   1      -8.375  -3.220 128.898  0.00  0.00    +0.016 C 
ATOM      2  C   LIG A   1      -7.228  -2.188 129.105  0.00  0.00    -0.005 C 
ATOM      3  C   LIG A   1      -6.169  -2.333 127.983  0.00  0.00    -0.063 C 
ATOM      4  C   LIG A   1      -4.853  -2.460 128.248  0.00  0.00    -0.026 C 
ATOM      5  C   LIG A   1      -4.230  -2.335 129.602  0.00  0.00    +0.031 C 
ATOM      6  C   LIG A   1      -5.189  -1.697 130.631  0.00  0.00    +0.006 C 
ATOM      7  C   LIG A   1      -6.587  -2.417 130.590  0.00  0.00    -0.019 C 
ATOM      8  C   LIG A   1      -6.384  -3.942 130.862  0.00  0.00    +0.012 C 
ATOM      9  C   LIG A   1      -7.545  -1.894 131.712  0.00  0.00    +0.008 C 
ATOM     10  C   LIG A   1      -6.921  -0.879 132.669  0.00  0.00    +0.005 C 
ATOM     11  C   LIG A   1      -5.588  -1.425 133.185  0.00  0.00    +0.006 C 
ATOM     12  C   LIG A   1      -4.521  -1.428 132.045  0.00  0.00    -0.024 C 
ATOM     13  C   LIG A   1      -3.799  -0.054 131.895  0.00  0.00    +0.012 C 
ATOM     14  C   LIG A   1      -3.433  -2.456 132.449  0.00  0.00    +0.013 C 
ATOM     15  C   LIG A   1      -3.189  -2.562 133.957  0.00  0.00    +0.055 C 
ATOM     16  C   LIG A   1      -3.626  -1.342 134.765  0.00  0.00    +0.063 C 
ATOM     17  N   LIG A   1      -2.754  -0.908 135.629  0.00  0.00    -0.096 NA
ATOM     18  C   LIG A   1      -5.083  -0.839 134.559  0.00  0.00    +0.010 C 
ATOM     19  C   LIG A   1      -5.222   0.697 134.626  0.00  0.00    +0.017 C 
ATOM     20  C   LIG A   1      -5.929  -1.447 135.700  0.00  0.00    +0.017 C 
ATOM     21  C   LIG A   1      -6.684  -2.115 126.553  0.00  0.00    +0.033 C 
ATOM     22  C   LIG A   1      -7.181  -0.639 126.408  0.00  0.00    +0.074 C 
ATOM     23  C   LIG A   1      -8.275  -0.409 127.486  0.00  0.00    +0.019 C 
ATOM     24  C   LIG A   1      -7.820  -0.748 128.919  0.00  0.00    +0.012 C 
ATOM     25  C   LIG A   1      -7.798  -0.430 125.004  0.00  0.00    +0.019 C 
ATOM     26  C   LIG A   1      -6.865  -0.858 123.868  0.00  0.00    +0.007 C 
ATOM     27  C   LIG A   1      -6.380  -2.317 123.989  0.00  0.00    -0.034 C 
ATOM     28  C   LIG A   1      -5.763  -2.553 125.389  0.00  0.00    +0.015 C 
ATOM     29  C   LIG A   1      -5.299  -2.573 122.919  0.00  0.00    +0.011 C 
ATOM     30  C   LIG A   1      -7.539  -3.297 123.723  0.00  0.00    +0.011 C 
ENDROOT
BRANCH  17  31
ATOM     31  O   LIG A   1      -3.225   0.128 136.426  0.00  0.00    -0.409 OA
ATOM     32  H   LIG A   1      -4.192   0.038 136.340  0.00  0.00    +0.328 HD
ENDBRANCH  17  31
BRANCH  22  33
ATOM     33  C   LIG A   1      -6.036   0.394 126.573  0.00  0.00    +0.311 C 
ATOM     34  O   LIG A   1      -4.875   0.231 126.223  0.00  0.00    -0.250 OA
BRANCH  33  35
ATOM     35  O   LIG A   1      -6.419   1.591 127.077  0.00  0.00    -0.480 OA
ATOM     36  H   LIG A   1      -6.251   2.364 126.512  0.00  0.00    +0.295 HD
ENDBRANCH  33  35
ENDBRANCH  22  33
TORSDOF 3
ENDMDL
MODEL 7
REMARK VINA RESULT:      -9.0      4.067      5.335
REMARK  Name = NuBBE_1039
REMARK  10 active torsions:
REMARK  status: ('A' for Active; 'I' for Inactive)
REMARK    1  A    between atoms: C_1  and  C_2
REMARK    2  A    between atoms: C_8  and  C_9
REMARK    3  A    between atoms: C_14  and  C_15
REMARK    4  A    between atoms: N_19  and  O_20
REMARK    5  A    between atoms: C_21  and  C_22
REMARK    6  A    between atoms: C_21  and  C_23
REMARK    7  A    between atoms: C_26  and  C_29
REMARK    8  A    between atoms: C_29  and  O_31
REMARK    9  A    between atoms: C_34  and  C_36
REMARK   10  A    between atoms: C_34  and  C_37
REMARK                            x       y       z     vdW  Elec       q    Type
REMARK                         _______ _______ _______ _____ _____    ______ ____
ROOT
ATOM      1  C   LIG A   1      -5.162   1.158 127.629  0.00  0.00    +0.016 C 
ATOM      2  C   LIG A   1      -5.428   2.680 127.809  0.00  0.00    -0.005 C 
ATOM      3  C   LIG A   1      -5.314   3.409 126.446  0.00  0.00    -0.063 C 
ATOM      4  C   LIG A   1      -4.546   4.503 126.276  0.00  0.00    -0.026 C 
ATOM      5  C   LIG A   1      -3.835   5.236 127.370  0.00  0.00    +0.031 C 
ATOM      6  C   LIG A   1      -4.344   4.832 128.770  0.00  0.00    +0.006 C 
ATOM      7  C   LIG A   1      -4.371   3.265 128.908  0.00  0.00    -0.019 C 
ATOM      8  C   LIG A   1      -2.938   2.704 128.633  0.00  0.00    +0.012 C 
ATOM      9  C   LIG A   1      -4.747   2.814 130.359  0.00  0.00    +0.008 C 
ATOM     10  C   LIG A   1      -4.918   3.953 131.363  0.00  0.00    +0.005 C 
ATOM     11  C   LIG A   1      -3.702   4.878 131.289  0.00  0.00    +0.006 C 
ATOM     12  C   LIG A   1      -3.707   5.682 129.950  0.00  0.00    -0.024 C 
ATOM     13  C   LIG A   1      -4.575   6.975 130.030  0.00  0.00    +0.012 C 
ATOM     14  C   LIG A   1      -2.249   6.144 129.696  0.00  0.00    +0.013 C 
ATOM     15  C   LIG A   1      -1.451   6.451 130.967  0.00  0.00    +0.055 C 
ATOM     16  C   LIG A   1      -2.299   6.764 132.197  0.00  0.00    +0.063 C 
ATOM     17  N   LIG A   1      -1.931   7.818 132.869  0.00  0.00    -0.096 NA
ATOM     18  C   LIG A   1      -3.407   5.742 132.575  0.00  0.00    +0.010 C 
ATOM     19  C   LIG A   1      -4.684   6.397 133.145  0.00  0.00    +0.017 C 
ATOM     20  C   LIG A   1      -2.813   4.823 133.666  0.00  0.00    +0.017 C 
ATOM     21  C   LIG A   1      -6.287   2.932 125.357  0.00  0.00    +0.033 C 
ATOM     22  C   LIG A   1      -7.752   3.228 125.817  0.00  0.00    +0.074 C 
ATOM     23  C   LIG A   1      -7.967   2.509 127.176  0.00  0.00    +0.019 C 
ATOM     24  C   LIG A   1      -6.921   2.873 128.247  0.00  0.00    +0.012 C 
ATOM     25  C   LIG A   1      -8.751   2.663 124.778  0.00  0.00    +0.019 C 
ATOM     26  C   LIG A   1      -8.467   3.138 123.351  0.00  0.00    +0.007 C 
ATOM     27  C   LIG A   1      -7.030   2.838 122.878  0.00  0.00    -0.034 C 
ATOM     28  C   LIG A   1      -6.011   3.390 123.905  0.00  0.00    +0.015 C 
ATOM     29  C   LIG A   1      -6.796   3.534 121.522  0.00  0.00    +0.011 C 
ATOM     30  C   LIG A   1      -6.835   1.325 122.664  0.00  0.00    +0.011 C 
ENDROOT
BRANCH  17  31
ATOM     31  O   LIG A   1      -2.649   8.010 134.044  0.00  0.00    -0.409 OA
ATOM     32  H   LIG A   1      -2.331   7.279 134.607  0.00  0.00    +0.328 HD
ENDBRANCH  17  31
BRANCH  22  33
ATOM     33  C   LIG A   1      -8.037   4.746 125.959  0.00  0.00    +0.311 C 
ATOM     34  O   LIG A   1      -8.802   5.254 126.766  0.00  0.00    -0.250 OA
BRANCH  33  35
ATOM     35  O   LIG A   1      -7.290   5.541 125.155  0.00  0.00    -0.480 OA
ATOM     36  H   LIG A   1      -7.379   6.498 125.302  0.00  0.00    +0.295 HD
ENDBRANCH  33  35
ENDBRANCH  22  33
TORSDOF 3
ENDMDL
MODEL 8
REMARK VINA RESULT:      -9.0      3.762      8.603
REMARK  Name = NuBBE_1039
REMARK  10 active torsions:
REMARK  status: ('A' for Active; 'I' for Inactive)
REMARK    1  A    between atoms: C_1  and  C_2
REMARK    2  A    between atoms: C_8  and  C_9
REMARK    3  A    between atoms: C_14  and  C_15
REMARK    4  A    between atoms: N_19  and  O_20
REMARK    5  A    between atoms: C_21  and  C_22
REMARK    6  A    between atoms: C_21  and  C_23
REMARK    7  A    between atoms: C_26  and  C_29
REMARK    8  A    between atoms: C_29  and  O_31
REMARK    9  A    between atoms: C_34  and  C_36
REMARK   10  A    between atoms: C_34  and  C_37
REMARK                            x       y       z     vdW  Elec       q    Type
REMARK                         _______ _______ _______ _____ _____    ______ ____
ROOT
ATOM      1  C   LIG A   1      -3.666  -3.635 132.098  0.00  0.00    +0.016 C 
ATOM      2  C   LIG A   1      -4.736  -2.577 131.704  0.00  0.00    -0.005 C 
ATOM      3  C   LIG A   1      -5.773  -2.412 132.844  0.00  0.00    -0.063 C 
ATOM      4  C   LIG A   1      -7.101  -2.483 132.625  0.00  0.00    -0.026 C 
ATOM      5  C   LIG A   1      -7.749  -2.578 131.280  0.00  0.00    +0.031 C 
ATOM      6  C   LIG A   1      -6.773  -2.234 130.135  0.00  0.00    +0.006 C 
ATOM      7  C   LIG A   1      -5.433  -3.040 130.301  0.00  0.00    -0.019 C 
ATOM      8  C   LIG A   1      -5.758  -4.569 130.339  0.00  0.00    +0.012 C 
ATOM      9  C   LIG A   1      -4.468  -2.827 129.087  0.00  0.00    +0.008 C 
ATOM     10  C   LIG A   1      -5.039  -1.974 127.955  0.00  0.00    +0.005 C 
ATOM     11  C   LIG A   1      -6.423  -2.502 127.573  0.00  0.00    +0.006 C 
ATOM     12  C   LIG A   1      -7.457  -2.196 128.703  0.00  0.00    -0.024 C 
ATOM     13  C   LIG A   1      -8.067  -0.766 128.585  0.00  0.00    +0.012 C 
ATOM     14  C   LIG A   1      -8.630  -3.193 128.523  0.00  0.00    +0.013 C 
ATOM     15  C   LIG A   1      -8.922  -3.573 127.069  0.00  0.00    +0.055 C 
ATOM     16  C   LIG A   1      -8.415  -2.575 126.030  0.00  0.00    +0.063 C 
ATOM     17  N   LIG A   1      -9.275  -2.251 125.108  0.00  0.00    -0.096 NA
ATOM     18  C   LIG A   1      -6.920  -2.160 126.116  0.00  0.00    +0.010 C 
ATOM     19  C   LIG A   1      -6.666  -0.683 125.743  0.00  0.00    +0.017 C 
ATOM     20  C   LIG A   1      -6.153  -3.046 125.108  0.00  0.00    +0.017 C 
ATOM     21  C   LIG A   1      -5.204  -1.959 134.197  0.00  0.00    +0.033 C 
ATOM     22  C   LIG A   1      -4.592  -0.528 134.040  0.00  0.00    +0.074 C 
ATOM     23  C   LIG A   1      -3.514  -0.603 132.926  0.00  0.00    +0.019 C 
ATOM     24  C   LIG A   1      -4.032  -1.180 131.593  0.00  0.00    +0.012 C 
ATOM     25  C   LIG A   1      -3.924  -0.097 135.368  0.00  0.00    +0.019 C 
ATOM     26  C   LIG A   1      -4.855  -0.217 136.577  0.00  0.00    +0.007 C 
ATOM     27  C   LIG A   1      -5.453  -1.628 136.753  0.00  0.00    -0.034 C 
ATOM     28  C   LIG A   1      -6.124  -2.085 135.435  0.00  0.00    +0.015 C 
ATOM     29  C   LIG A   1      -6.521  -1.581 137.865  0.00  0.00    +0.011 C 
ATOM     30  C   LIG A   1      -4.365  -2.626 137.195  0.00  0.00    +0.011 C 
ENDROOT
BRANCH  17  31
ATOM     31  O   LIG A   1      -8.748  -1.433 124.115  0.00  0.00    -0.409 OA
ATOM     32  H   LIG A   1      -8.887  -0.540 124.481  0.00  0.00    +0.328 HD
ENDBRANCH  17  31
BRANCH  22  33
ATOM     33  C   LIG A   1      -5.660   0.540 133.687  0.00  0.00    +0.311 C 
ATOM     34  O   LIG A   1      -6.825   0.531 134.058  0.00  0.00    -0.250 OA
BRANCH  33  35
ATOM     35  O   LIG A   1      -5.194   1.594 132.975  0.00  0.00    -0.480 OA
ATOM     36  H   LIG A   1      -4.700   1.377 132.166  0.00  0.00    +0.295 HD
ENDBRANCH  33  35
ENDBRANCH  22  33
TORSDOF 3
ENDMDL
MODEL 9
REMARK VINA RESULT:      -8.8      3.962      5.407
REMARK  Name = NuBBE_1039
REMARK  10 active torsions:
REMARK  status: ('A' for Active; 'I' for Inactive)
REMARK    1  A    between atoms: C_1  and  C_2
REMARK    2  A    between atoms: C_8  and  C_9
REMARK    3  A    between atoms: C_14  and  C_15
REMARK    4  A    between atoms: N_19  and  O_20
REMARK    5  A    between atoms: C_21  and  C_22
REMARK    6  A    between atoms: C_21  and  C_23
REMARK    7  A    between atoms: C_26  and  C_29
REMARK    8  A    between atoms: C_29  and  O_31
REMARK    9  A    between atoms: C_34  and  C_36
REMARK   10  A    between atoms: C_34  and  C_37
REMARK                            x       y       z     vdW  Elec       q    Type
REMARK                         _______ _______ _______ _____ _____    ______ ____
ROOT
ATOM      1  C   LIG A   1      -4.611   1.123 129.178  0.00  0.00    +0.016 C 
ATOM      2  C   LIG A   1      -5.605   1.101 130.374  0.00  0.00    -0.005 C 
ATOM      3  C   LIG A   1      -6.251  -0.301 130.509  0.00  0.00    -0.063 C 
ATOM      4  C   LIG A   1      -7.585  -0.475 130.593  0.00  0.00    -0.026 C 
ATOM      5  C   LIG A   1      -8.592   0.626 130.715  0.00  0.00    +0.031 C 
ATOM      6  C   LIG A   1      -7.940   1.975 131.089  0.00  0.00    +0.006 C 
ATOM      7  C   LIG A   1      -6.721   2.272 130.142  0.00  0.00    -0.019 C 
ATOM      8  C   LIG A   1      -7.213   2.263 128.658  0.00  0.00    +0.012 C 
ATOM      9  C   LIG A   1      -6.117   3.694 130.396  0.00  0.00    +0.008 C 
ATOM     10  C   LIG A   1      -6.871   4.537 131.424  0.00  0.00    +0.005 C 
ATOM     11  C   LIG A   1      -8.362   4.540 131.079  0.00  0.00    +0.006 C 
ATOM     12  C   LIG A   1      -8.989   3.137 131.356  0.00  0.00    -0.024 C 
ATOM     13  C   LIG A   1      -9.422   2.956 132.843  0.00  0.00    +0.012 C 
ATOM     14  C   LIG A   1     -10.281   3.045 130.505  0.00  0.00    +0.013 C 
ATOM     15  C   LIG A   1     -11.016   4.377 130.322  0.00  0.00    +0.055 C 
ATOM     16  C   LIG A   1     -10.699   5.434 131.377  0.00  0.00    +0.063 C 
ATOM     17  N   LIG A   1     -11.735   6.036 131.886  0.00  0.00    -0.096 NA
ATOM     18  C   LIG A   1      -9.200   5.756 131.632  0.00  0.00    +0.010 C 
ATOM     19  C   LIG A   1      -8.876   6.067 133.109  0.00  0.00    +0.017 C 
ATOM     20  C   LIG A   1      -8.865   7.011 130.795  0.00  0.00    +0.017 C 
ATOM     21  C   LIG A   1      -5.272  -1.461 130.748  0.00  0.00    +0.033 C 
ATOM     22  C   LIG A   1      -4.554  -1.247 132.120  0.00  0.00    +0.074 C 
ATOM     23  C   LIG A   1      -3.850   0.136 132.067  0.00  0.00    +0.019 C 
ATOM     24  C   LIG A   1      -4.790   1.300 131.698  0.00  0.00    +0.012 C 
ATOM     25  C   LIG A   1      -3.490  -2.352 132.331  0.00  0.00    +0.019 C 
ATOM     26  C   LIG A   1      -4.052  -3.767 132.167  0.00  0.00    +0.007 C 
ATOM     27  C   LIG A   1      -4.750  -3.996 130.810  0.00  0.00    -0.034 C 
ATOM     28  C   LIG A   1      -5.816  -2.899 130.573  0.00  0.00    +0.015 C 
ATOM     29  C   LIG A   1      -5.447  -5.371 130.835  0.00  0.00    +0.011 C 
ATOM     30  C   LIG A   1      -3.716  -4.020 129.667  0.00  0.00    +0.011 C 
ENDROOT
BRANCH  17  31
ATOM     31  O   LIG A   1     -11.409   7.071 132.756  0.00  0.00    -0.409 OA
ATOM     32  H   LIG A   1     -10.890   7.669 132.187  0.00  0.00    +0.328 HD
ENDBRANCH  17  31
BRANCH  22  33
ATOM     33  C   LIG A   1      -5.534  -1.308 133.321  0.00  0.00    +0.311 C 
ATOM     34  O   LIG A   1      -6.579  -1.942 133.355  0.00  0.00    -0.250 OA
BRANCH  33  35
ATOM     35  O   LIG A   1      -5.112  -0.656 134.431  0.00  0.00    -0.480 OA
ATOM     36  H   LIG A   1      -5.284  -1.102 135.278  0.00  0.00    +0.295 HD
ENDBRANCH  33  35
ENDBRANCH  22  33
TORSDOF 3
ENDMDL
