MODEL 1
REMARK VINA RESULT:      -7.3      0.000      0.000
REMARK  Name = NuBBE_2152
REMARK  13 active torsions:
REMARK  status: ('A' for Active; 'I' for Inactive)
REMARK    1  A    between atoms: C_1  and  O_2
REMARK    2  A    between atoms: O_2  and  C_3
REMARK    3  A    between atoms: C_10  and  C_11
REMARK    4  A    between atoms: C_13  and  C_15
REMARK    5  A    between atoms: C_16  and  C_17
REMARK    6  A    between atoms: C_17  and  C_18
REMARK    7  A    between atoms: C_23  and  O_25
REMARK    8  A    between atoms: O_25  and  C_26
REMARK    9  A    between atoms: C_27  and  O_29
REMARK   10  A    between atoms: O_29  and  C_30
REMARK   11  A    between atoms: C_30  and  C_31
REMARK   12  A    between atoms: C_33  and  O_34
REMARK   13  A    between atoms: O_34  and  C_35
REMARK                            x       y       z     vdW  Elec       q    Type
REMARK                         _______ _______ _______ _____ _____    ______ ____
ROOT
ATOM      1  C   LIG A   1      -9.046   4.072 130.812  0.00  0.00    +0.066 C 
ATOM      2  C   LIG A   1      -9.227   3.423 132.253  0.00  0.00    +0.010 C 
ATOM      3  C   LIG A   1      -9.570   1.937 132.231  0.00  0.00    +0.009 C 
ATOM      4  C   LIG A   1      -7.962   3.844 133.058  0.00  0.00    +0.041 C 
ATOM      5  C   LIG A   1      -7.692   4.929 132.075  0.00  0.00    +0.176 C 
ATOM      6  O   LIG A   1      -7.751   6.125 132.347  0.00  0.00    -0.294 OA
ATOM      7  C   LIG A   1      -6.678   2.972 132.983  0.00  0.00    +0.050 C 
ATOM      8  C   LIG A   1      -5.493   3.659 132.216  0.00  0.00    +0.163 C 
ATOM      9  C   LIG A   1      -5.966   4.480 130.943  0.00  0.00    +0.244 C 
ATOM     10  C   LIG A   1      -7.476   4.269 130.571  0.00  0.00    +0.173 C 
ENDROOT
BRANCH   1  18
ATOM     11  C   LIG A   1     -10.491   7.239 129.026  0.00  0.00    +0.166 A 
ATOM     12  C   LIG A   1     -11.523   7.543 129.891  0.00  0.00    +0.207 A 
ATOM     13  O   LIG A   1     -12.395   8.587 129.816  0.00  0.00    -0.449 OA
ATOM     14  C   LIG A   1     -13.223   8.357 130.968  0.00  0.00    +0.467 C 
ATOM     15  O   LIG A   1     -12.802   7.229 131.754  0.00  0.00    -0.453 OA
ATOM     16  C   LIG A   1     -11.754   6.774 131.009  0.00  0.00    +0.170 A 
ATOM     17  C   LIG A   1     -10.984   5.670 131.331  0.00  0.00    +0.053 A 
ATOM     18  C   LIG A   1      -9.929   5.304 130.477  0.00  0.00    -0.034 A 
ATOM     19  C   LIG A   1      -9.680   6.130 129.346  0.00  0.00    +0.053 A 
BRANCH  11  21
ATOM     20  C   LIG A   1     -10.944   7.710 126.749  0.00  0.00    +0.277 C 
ATOM     21  O   LIG A   1     -10.134   7.930 127.901  0.00  0.00    -0.491 OA
ENDBRANCH  11  21
ENDBRANCH   1  18
BRANCH   8  22
ATOM     22  O   LIG A   1      -4.732   4.548 133.045  0.00  0.00    -0.376 OA
ATOM     23  C   LIG A   1      -3.370   4.208 133.228  0.00  0.00    +0.194 C 
ENDBRANCH   8  22
BRANCH  10  24
ATOM     24  O   LIG A   1      -7.312   2.866 130.139  0.00  0.00    -0.365 OA
ATOM     25  C   LIG A   1      -7.871   2.539 128.856  0.00  0.00    +0.195 C 
ENDBRANCH  10  24
BRANCH   4  26
ATOM     26  C   LIG A   1      -8.398   4.268 134.483  0.00  0.00    +0.041 C 
BRANCH  26  27
ATOM     27  C   LIG A   1      -7.388   4.885 135.409  0.00  0.00    -0.034 C 
ATOM     28  C   LIG A   1      -7.573   6.033 136.073  0.00  0.00    +0.004 C 
ENDBRANCH  26  27
ENDBRANCH   4  26
BRANCH   9  29
ATOM     29  O   LIG A   1      -5.569   5.875 130.978  0.00  0.00    -0.456 OA
BRANCH  29  30
ATOM     30  C   LIG A   1      -4.714   6.278 129.978  0.00  0.00    +0.304 C 
ATOM     31  C   LIG A   1      -3.710   7.210 130.583  0.00  0.00    +0.136 C 
ATOM     32  O   LIG A   1      -4.756   5.945 128.830  0.00  0.00    -0.251 OA
ENDBRANCH  29  30
ENDBRANCH   9  29
TORSDOF 8
ENDMDL
MODEL 2
REMARK VINA RESULT:      -7.0      2.126      6.323
REMARK  Name = NuBBE_2152
REMARK  13 active torsions:
REMARK  status: ('A' for Active; 'I' for Inactive)
REMARK    1  A    between atoms: C_1  and  O_2
REMARK    2  A    between atoms: O_2  and  C_3
REMARK    3  A    between atoms: C_10  and  C_11
REMARK    4  A    between atoms: C_13  and  C_15
REMARK    5  A    between atoms: C_16  and  C_17
REMARK    6  A    between atoms: C_17  and  C_18
REMARK    7  A    between atoms: C_23  and  O_25
REMARK    8  A    between atoms: O_25  and  C_26
REMARK    9  A    between atoms: C_27  and  O_29
REMARK   10  A    between atoms: O_29  and  C_30
REMARK   11  A    between atoms: C_30  and  C_31
REMARK   12  A    between atoms: C_33  and  O_34
REMARK   13  A    between atoms: O_34  and  C_35
REMARK                            x       y       z     vdW  Elec       q    Type
REMARK                         _______ _______ _______ _____ _____    ______ ____
ROOT
ATOM      1  C   LIG A   1      -7.157   4.613 130.632  0.00  0.00    +0.066 C 
ATOM      2  C   LIG A   1      -7.626   3.912 131.980  0.00  0.00    +0.010 C 
ATOM      3  C   LIG A   1      -6.821   4.320 133.210  0.00  0.00    +0.009 C 
ATOM      4  C   LIG A   1      -9.168   4.125 132.043  0.00  0.00    +0.041 C 
ATOM      5  C   LIG A   1      -9.189   4.432 130.586  0.00  0.00    +0.176 C 
ATOM      6  O   LIG A   1      -9.741   3.724 129.749  0.00  0.00    -0.294 OA
ATOM      7  C   LIG A   1      -9.739   5.421 132.685  0.00  0.00    +0.050 C 
ATOM      8  C   LIG A   1     -10.406   6.396 131.651  0.00  0.00    +0.163 C 
ATOM      9  C   LIG A   1      -9.622   6.475 130.273  0.00  0.00    +0.244 C 
ATOM     10  C   LIG A   1      -8.230   5.749 130.286  0.00  0.00    +0.173 C 
ENDROOT
BRANCH   1  18
ATOM     11  C   LIG A   1      -6.169   1.446 128.559  0.00  0.00    +0.166 A 
ATOM     12  C   LIG A   1      -6.055   2.014 127.306  0.00  0.00    +0.207 A 
ATOM     13  O   LIG A   1      -5.697   1.404 126.141  0.00  0.00    -0.449 OA
ATOM     14  C   LIG A   1      -5.774   2.493 125.207  0.00  0.00    +0.467 C 
ATOM     15  O   LIG A   1      -6.106   3.749 125.825  0.00  0.00    -0.453 OA
ATOM     16  C   LIG A   1      -6.277   3.360 127.120  0.00  0.00    +0.170 A 
ATOM     17  C   LIG A   1      -6.625   4.211 128.155  0.00  0.00    +0.053 A 
ATOM     18  C   LIG A   1      -6.771   3.683 129.450  0.00  0.00    -0.034 A 
ATOM     19  C   LIG A   1      -6.501   2.299 129.632  0.00  0.00    +0.053 A 
BRANCH  11  21
ATOM     20  C   LIG A   1      -7.063  -0.741 128.739  0.00  0.00    +0.277 C 
ATOM     21  O   LIG A   1      -5.949   0.136 128.887  0.00  0.00    -0.491 OA
ENDBRANCH  11  21
ENDBRANCH   1  18
BRANCH   8  22
ATOM     22  O   LIG A   1     -11.766   6.051 131.355  0.00  0.00    -0.376 OA
ATOM     23  C   LIG A   1     -12.691   7.122 131.366  0.00  0.00    +0.194 C 
ENDBRANCH   8  22
BRANCH  10  24
ATOM     24  O   LIG A   1      -7.586   6.712 131.202  0.00  0.00    -0.365 OA
ATOM     25  C   LIG A   1      -6.241   7.089 130.865  0.00  0.00    +0.195 C 
ENDBRANCH  10  24
BRANCH   4  26
ATOM     26  C   LIG A   1      -9.835   2.804 132.502  0.00  0.00    +0.041 C 
BRANCH  26  27
ATOM     27  C   LIG A   1      -9.043   1.528 132.464  0.00  0.00    -0.034 C 
ATOM     28  C   LIG A   1      -9.250   0.536 131.588  0.00  0.00    +0.004 C 
ENDBRANCH  26  27
ENDBRANCH   4  26
BRANCH   9  29
ATOM     29  O   LIG A   1     -10.441   6.136 129.125  0.00  0.00    -0.456 OA
BRANCH  29  30
ATOM     30  C   LIG A   1     -10.226   6.891 127.994  0.00  0.00    +0.304 C 
ATOM     31  C   LIG A   1     -10.582   8.309 128.318  0.00  0.00    +0.136 C 
ATOM     32  O   LIG A   1      -9.826   6.494 126.940  0.00  0.00    -0.251 OA
ENDBRANCH  29  30
ENDBRANCH   9  29
TORSDOF 8
ENDMDL
MODEL 3
REMARK VINA RESULT:      -7.0      2.312      4.614
REMARK  Name = NuBBE_2152
REMARK  13 active torsions:
REMARK  status: ('A' for Active; 'I' for Inactive)
REMARK    1  A    between atoms: C_1  and  O_2
REMARK    2  A    between atoms: O_2  and  C_3
REMARK    3  A    between atoms: C_10  and  C_11
REMARK    4  A    between atoms: C_13  and  C_15
REMARK    5  A    between atoms: C_16  and  C_17
REMARK    6  A    between atoms: C_17  and  C_18
REMARK    7  A    between atoms: C_23  and  O_25
REMARK    8  A    between atoms: O_25  and  C_26
REMARK    9  A    between atoms: C_27  and  O_29
REMARK   10  A    between atoms: O_29  and  C_30
REMARK   11  A    between atoms: C_30  and  C_31
REMARK   12  A    between atoms: C_33  and  O_34
REMARK   13  A    between atoms: O_34  and  C_35
REMARK                            x       y       z     vdW  Elec       q    Type
REMARK                         _______ _______ _______ _____ _____    ______ ____
ROOT
ATOM      1  C   LIG A   1      -7.423   2.813 130.164  0.00  0.00    +0.066 C 
ATOM      2  C   LIG A   1      -5.950   2.633 130.736  0.00  0.00    +0.010 C 
ATOM      3  C   LIG A   1      -5.609   1.206 131.151  0.00  0.00    +0.009 C 
ATOM      4  C   LIG A   1      -5.015   3.307 129.688  0.00  0.00    +0.041 C 
ATOM      5  C   LIG A   1      -6.176   4.043 129.117  0.00  0.00    +0.176 C 
ATOM      6  O   LIG A   1      -6.303   5.263 129.170  0.00  0.00    -0.294 OA
ATOM      7  C   LIG A   1      -4.493   2.479 128.479  0.00  0.00    +0.050 C 
ATOM      8  C   LIG A   1      -5.104   2.922 127.102  0.00  0.00    +0.163 C 
ATOM      9  C   LIG A   1      -6.641   3.303 127.194  0.00  0.00    +0.244 C 
ATOM     10  C   LIG A   1      -7.304   2.957 128.574  0.00  0.00    +0.173 C 
ENDROOT
BRANCH   1  18
ATOM     11  C   LIG A   1      -8.795   5.420 132.739  0.00  0.00    +0.166 A 
ATOM     12  C   LIG A   1      -9.983   5.755 132.120  0.00  0.00    +0.207 A 
ATOM     13  O   LIG A   1     -10.940   6.619 132.561  0.00  0.00    -0.449 OA
ATOM     14  C   LIG A   1     -11.903   6.553 131.497  0.00  0.00    +0.467 C 
ATOM     15  O   LIG A   1     -11.552   5.608 130.471  0.00  0.00    -0.453 OA
ATOM     16  C   LIG A   1     -10.345   5.170 130.927  0.00  0.00    +0.170 A 
ATOM     17  C   LIG A   1      -9.556   4.232 130.284  0.00  0.00    +0.053 A 
ATOM     18  C   LIG A   1      -8.328   3.865 130.860  0.00  0.00    -0.034 A 
ATOM     19  C   LIG A   1      -7.986   4.449 132.111  0.00  0.00    +0.053 A 
BRANCH  11  21
ATOM     20  C   LIG A   1      -7.586   4.979 134.728  0.00  0.00    +0.277 C 
ATOM     21  O   LIG A   1      -8.330   5.899 133.932  0.00  0.00    -0.491 OA
ENDBRANCH  11  21
ENDBRANCH   1  18
BRANCH   8  22
ATOM     22  O   LIG A   1      -4.416   4.036 126.519  0.00  0.00    -0.376 OA
ATOM     23  C   LIG A   1      -3.007   4.036 126.660  0.00  0.00    +0.194 C 
ENDBRANCH   8  22
BRANCH  10  24
ATOM     24  O   LIG A   1      -7.237   1.493 128.393  0.00  0.00    -0.365 OA
ATOM     25  C   LIG A   1      -8.247   0.922 127.546  0.00  0.00    +0.195 C 
ENDBRANCH  10  24
BRANCH   4  26
ATOM     26  C   LIG A   1      -3.944   4.138 130.437  0.00  0.00    +0.041 C 
BRANCH  26  27
ATOM     27  C   LIG A   1      -4.197   4.554 131.859  0.00  0.00    -0.034 C 
ATOM     28  C   LIG A   1      -4.559   5.788 132.232  0.00  0.00    +0.004 C 
ENDBRANCH  26  27
ENDBRANCH   4  26
BRANCH   9  29
ATOM     29  O   LIG A   1      -6.928   4.649 126.736  0.00  0.00    -0.456 OA
BRANCH  29  30
ATOM     30  C   LIG A   1      -8.048   4.785 125.946  0.00  0.00    +0.304 C 
ATOM     31  C   LIG A   1      -8.037   3.672 124.943  0.00  0.00    +0.136 C 
ATOM     32  O   LIG A   1      -8.885   5.633 126.040  0.00  0.00    -0.251 OA
ENDBRANCH  29  30
ENDBRANCH   9  29
TORSDOF 8
ENDMDL
MODEL 4
REMARK VINA RESULT:      -6.9      2.206      5.701
REMARK  Name = NuBBE_2152
REMARK  13 active torsions:
REMARK  status: ('A' for Active; 'I' for Inactive)
REMARK    1  A    between atoms: C_1  and  O_2
REMARK    2  A    between atoms: O_2  and  C_3
REMARK    3  A    between atoms: C_10  and  C_11
REMARK    4  A    between atoms: C_13  and  C_15
REMARK    5  A    between atoms: C_16  and  C_17
REMARK    6  A    between atoms: C_17  and  C_18
REMARK    7  A    between atoms: C_23  and  O_25
REMARK    8  A    between atoms: O_25  and  C_26
REMARK    9  A    between atoms: C_27  and  O_29
REMARK   10  A    between atoms: O_29  and  C_30
REMARK   11  A    between atoms: C_30  and  C_31
REMARK   12  A    between atoms: C_33  and  O_34
REMARK   13  A    between atoms: O_34  and  C_35
REMARK                            x       y       z     vdW  Elec       q    Type
REMARK                         _______ _______ _______ _____ _____    ______ ____
ROOT
ATOM      1  C   LIG A   1      -7.276   5.625 132.772  0.00  0.00    +0.066 C 
ATOM      2  C   LIG A   1      -7.305   4.603 133.990  0.00  0.00    +0.010 C 
ATOM      3  C   LIG A   1      -8.213   5.024 135.140  0.00  0.00    +0.009 C 
ATOM      4  C   LIG A   1      -7.574   3.207 133.352  0.00  0.00    +0.041 C 
ATOM      5  C   LIG A   1      -7.164   3.732 132.020  0.00  0.00    +0.176 C 
ATOM      6  O   LIG A   1      -6.165   3.351 131.416  0.00  0.00    -0.294 OA
ATOM      7  C   LIG A   1      -9.038   2.741 133.112  0.00  0.00    +0.050 C 
ATOM      8  C   LIG A   1      -9.437   2.673 131.595  0.00  0.00    +0.163 C 
ATOM      9  C   LIG A   1      -8.836   3.865 130.737  0.00  0.00    +0.244 C 
ATOM     10  C   LIG A   1      -8.154   4.990 131.594  0.00  0.00    +0.173 C 
ENDROOT
BRANCH   1  18
ATOM     11  C   LIG A   1      -4.403   7.241 130.664  0.00  0.00    +0.166 A 
ATOM     12  C   LIG A   1      -3.368   7.150 131.573  0.00  0.00    +0.207 A 
ATOM     13  O   LIG A   1      -2.071   7.531 131.404  0.00  0.00    -0.449 OA
ATOM     14  C   LIG A   1      -1.502   7.202 132.681  0.00  0.00    +0.467 C 
ATOM     15  O   LIG A   1      -2.436   6.569 133.573  0.00  0.00    -0.453 OA
ATOM     16  C   LIG A   1      -3.569   6.589 132.814  0.00  0.00    +0.170 A 
ATOM     17  C   LIG A   1      -4.795   6.093 133.223  0.00  0.00    +0.053 A 
ATOM     18  C   LIG A   1      -5.889   6.175 132.343  0.00  0.00    -0.034 A 
ATOM     19  C   LIG A   1      -5.657   6.723 131.052  0.00  0.00    +0.053 A 
BRANCH  11  21
ATOM     20  C   LIG A   1      -3.698   6.917 128.425  0.00  0.00    +0.277 C 
ATOM     21  O   LIG A   1      -4.336   7.746 129.395  0.00  0.00    -0.491 OA
ENDBRANCH  11  21
ENDBRANCH   1  18
BRANCH   8  22
ATOM     22  O   LIG A   1      -9.040   1.447 130.968  0.00  0.00    -0.376 OA
ATOM     23  C   LIG A   1      -9.131   0.284 131.771  0.00  0.00    +0.194 C 
ENDBRANCH   8  22
BRANCH  10  24
ATOM     24  O   LIG A   1      -9.411   5.484 132.192  0.00  0.00    -0.365 OA
ATOM     25  C   LIG A   1     -10.175   6.390 131.380  0.00  0.00    +0.195 C 
ENDBRANCH  10  24
BRANCH   4  26
ATOM     26  C   LIG A   1      -6.645   2.165 134.023  0.00  0.00    +0.041 C 
BRANCH  26  27
ATOM     27  C   LIG A   1      -5.446   2.637 134.795  0.00  0.00    -0.034 C 
ATOM     28  C   LIG A   1      -4.184   2.562 134.353  0.00  0.00    +0.004 C 
ENDBRANCH  26  27
ENDBRANCH   4  26
BRANCH   9  29
ATOM     29  O   LIG A   1      -8.026   3.418 129.620  0.00  0.00    -0.456 OA
BRANCH  29  30
ATOM     30  C   LIG A   1      -7.911   4.306 128.573  0.00  0.00    +0.304 C 
ATOM     31  C   LIG A   1      -6.521   4.190 128.028  0.00  0.00    +0.136 C 
ATOM     32  O   LIG A   1      -8.764   5.038 128.165  0.00  0.00    -0.251 OA
ENDBRANCH  29  30
ENDBRANCH   9  29
TORSDOF 8
ENDMDL
MODEL 5
REMARK VINA RESULT:      -6.9      5.706      9.970
REMARK  Name = NuBBE_2152
REMARK  13 active torsions:
REMARK  status: ('A' for Active; 'I' for Inactive)
REMARK    1  A    between atoms: C_1  and  O_2
REMARK    2  A    between atoms: O_2  and  C_3
REMARK    3  A    between atoms: C_10  and  C_11
REMARK    4  A    between atoms: C_13  and  C_15
REMARK    5  A    between atoms: C_16  and  C_17
REMARK    6  A    between atoms: C_17  and  C_18
REMARK    7  A    between atoms: C_23  and  O_25
REMARK    8  A    between atoms: O_25  and  C_26
REMARK    9  A    between atoms: C_27  and  O_29
REMARK   10  A    between atoms: O_29  and  C_30
REMARK   11  A    between atoms: C_30  and  C_31
REMARK   12  A    between atoms: C_33  and  O_34
REMARK   13  A    between atoms: O_34  and  C_35
REMARK                            x       y       z     vdW  Elec       q    Type
REMARK                         _______ _______ _______ _____ _____    ______ ____
ROOT
ATOM      1  C   LIG A   1      -7.901  -1.714 126.575  0.00  0.00    +0.066 C 
ATOM      2  C   LIG A   1      -7.348  -2.610 125.383  0.00  0.00    +0.010 C 
ATOM      3  C   LIG A   1      -8.383  -3.547 124.771  0.00  0.00    +0.009 C 
ATOM      4  C   LIG A   1      -6.634  -1.618 124.417  0.00  0.00    +0.041 C 
ATOM      5  C   LIG A   1      -6.571  -0.600 125.502  0.00  0.00    +0.176 C 
ATOM      6  O   LIG A   1      -5.523  -0.208 126.008  0.00  0.00    -0.294 OA
ATOM      7  C   LIG A   1      -7.454  -0.902 123.308  0.00  0.00    +0.050 C 
ATOM      8  C   LIG A   1      -7.629   0.640 123.550  0.00  0.00    +0.163 C 
ATOM      9  C   LIG A   1      -7.870   1.009 125.074  0.00  0.00    +0.244 C 
ATOM     10  C   LIG A   1      -8.107  -0.233 126.004  0.00  0.00    +0.173 C 
ENDROOT
BRANCH   1  18
ATOM     11  C   LIG A   1      -5.493  -2.888 129.426  0.00  0.00    +0.166 A 
ATOM     12  C   LIG A   1      -5.821  -1.968 130.401  0.00  0.00    +0.207 A 
ATOM     13  O   LIG A   1      -5.324  -1.880 131.667  0.00  0.00    -0.449 OA
ATOM     14  C   LIG A   1      -6.029  -0.736 132.176  0.00  0.00    +0.467 C 
ATOM     15  O   LIG A   1      -6.983  -0.196 131.245  0.00  0.00    -0.453 OA
ATOM     16  C   LIG A   1      -6.779  -1.008 130.169  0.00  0.00    +0.170 A 
ATOM     17  C   LIG A   1      -7.459  -0.904 128.968  0.00  0.00    +0.053 A 
ATOM     18  C   LIG A   1      -7.154  -1.804 127.933  0.00  0.00    -0.034 A 
ATOM     19  C   LIG A   1      -6.189  -2.814 128.201  0.00  0.00    +0.053 A 
BRANCH  11  21
ATOM     20  C   LIG A   1      -3.239  -3.583 129.193  0.00  0.00    +0.277 C 
ATOM     21  O   LIG A   1      -4.586  -3.907 129.532  0.00  0.00    -0.491 OA
ENDBRANCH  11  21
ENDBRANCH   1  18
BRANCH   8  22
ATOM     22  O   LIG A   1      -6.510   1.408 123.090  0.00  0.00    -0.376 OA
ATOM     23  C   LIG A   1      -6.820   2.554 122.320  0.00  0.00    +0.194 C 
ENDBRANCH   8  22
BRANCH  10  24
ATOM     24  O   LIG A   1      -9.425  -0.578 125.434  0.00  0.00    -0.365 OA
ATOM     25  C   LIG A   1     -10.413   0.463 125.472  0.00  0.00    +0.195 C 
ENDBRANCH  10  24
BRANCH   4  26
ATOM     26  C   LIG A   1      -5.297  -2.249 123.955  0.00  0.00    +0.041 C 
BRANCH  26  27
ATOM     27  C   LIG A   1      -4.987  -3.671 124.324  0.00  0.00    -0.034 C 
ATOM     28  C   LIG A   1      -4.257  -4.506 123.573  0.00  0.00    +0.004 C 
ENDBRANCH  26  27
ENDBRANCH   4  26
BRANCH   9  29
ATOM     29  O   LIG A   1      -6.896   1.947 125.599  0.00  0.00    -0.456 OA
BRANCH  29  30
ATOM     30  C   LIG A   1      -7.378   2.862 126.508  0.00  0.00    +0.304 C 
ATOM     31  C   LIG A   1      -6.572   2.727 127.763  0.00  0.00    +0.136 C 
ATOM     32  O   LIG A   1      -8.276   3.632 126.333  0.00  0.00    -0.251 OA
ENDBRANCH  29  30
ENDBRANCH   9  29
TORSDOF 8
ENDMDL
MODEL 6
REMARK VINA RESULT:      -6.9      4.319      7.507
REMARK  Name = NuBBE_2152
REMARK  13 active torsions:
REMARK  status: ('A' for Active; 'I' for Inactive)
REMARK    1  A    between atoms: C_1  and  O_2
REMARK    2  A    between atoms: O_2  and  C_3
REMARK    3  A    between atoms: C_10  and  C_11
REMARK    4  A    between atoms: C_13  and  C_15
REMARK    5  A    between atoms: C_16  and  C_17
REMARK    6  A    between atoms: C_17  and  C_18
REMARK    7  A    between atoms: C_23  and  O_25
REMARK    8  A    between atoms: O_25  and  C_26
REMARK    9  A    between atoms: C_27  and  O_29
REMARK   10  A    between atoms: O_29  and  C_30
REMARK   11  A    between atoms: C_30  and  C_31
REMARK   12  A    between atoms: C_33  and  O_34
REMARK   13  A    between atoms: O_34  and  C_35
REMARK                            x       y       z     vdW  Elec       q    Type
REMARK                         _______ _______ _______ _____ _____    ______ ____
ROOT
ATOM      1  C   LIG A   1      -6.485   0.638 127.695  0.00  0.00    +0.066 C 
ATOM      2  C   LIG A   1      -6.741   0.473 129.256  0.00  0.00    +0.010 C 
ATOM      3  C   LIG A   1      -5.491   0.139 130.064  0.00  0.00    +0.009 C 
ATOM      4  C   LIG A   1      -7.539   1.742 129.681  0.00  0.00    +0.041 C 
ATOM      5  C   LIG A   1      -7.898   1.997 128.259  0.00  0.00    +0.176 C 
ATOM      6  O   LIG A   1      -9.045   1.933 127.824  0.00  0.00    -0.294 OA
ATOM      7  C   LIG A   1      -6.772   3.031 130.088  0.00  0.00    +0.050 C 
ATOM      8  C   LIG A   1      -6.921   4.205 129.056  0.00  0.00    +0.163 C 
ATOM      9  C   LIG A   1      -6.900   3.716 127.546  0.00  0.00    +0.244 C 
ATOM     10  C   LIG A   1      -6.516   2.205 127.369  0.00  0.00    +0.173 C 
ENDROOT
BRANCH   1  18
ATOM     11  C   LIG A   1      -8.696  -2.281 126.317  0.00  0.00    +0.166 A 
ATOM     12  C   LIG A   1      -8.828  -1.873 125.005  0.00  0.00    +0.207 A 
ATOM     13  O   LIG A   1      -9.484  -2.510 123.994  0.00  0.00    -0.449 OA
ATOM     14  C   LIG A   1      -9.281  -1.602 122.899  0.00  0.00    +0.467 C 
ATOM     15  O   LIG A   1      -8.455  -0.475 123.241  0.00  0.00    -0.453 OA
ATOM     16  C   LIG A   1      -8.232  -0.713 124.565  0.00  0.00    +0.170 A 
ATOM     17  C   LIG A   1      -7.479   0.103 125.392  0.00  0.00    +0.053 A 
ATOM     18  C   LIG A   1      -7.325  -0.255 126.743  0.00  0.00    -0.034 A 
ATOM     19  C   LIG A   1      -7.916  -1.475 127.173  0.00  0.00    +0.053 A 
BRANCH  11  21
ATOM     20  C   LIG A   1      -8.737  -3.740 128.184  0.00  0.00    +0.277 C 
ATOM     21  O   LIG A   1      -9.209  -3.418 126.877  0.00  0.00    -0.491 OA
ENDBRANCH  11  21
ENDBRANCH   1  18
BRANCH   8  22
ATOM     22  O   LIG A   1      -8.120   4.968 129.247  0.00  0.00    -0.376 OA
ATOM     23  C   LIG A   1      -8.199   5.704 130.454  0.00  0.00    +0.194 C 
ENDBRANCH   8  22
BRANCH  10  24
ATOM     24  O   LIG A   1      -5.109   2.374 127.784  0.00  0.00    -0.365 OA
ATOM     25  C   LIG A   1      -4.152   2.475 126.717  0.00  0.00    +0.195 C 
ENDBRANCH  10  24
BRANCH   4  26
ATOM     26  C   LIG A   1      -8.680   1.315 130.638  0.00  0.00    +0.041 C 
BRANCH  26  27
ATOM     27  C   LIG A   1      -9.438   2.368 131.395  0.00  0.00    -0.034 C 
ATOM     28  C   LIG A   1      -9.416   2.504 132.727  0.00  0.00    +0.004 C 
ENDBRANCH  26  27
ENDBRANCH   4  26
BRANCH   9  29
ATOM     29  O   LIG A   1      -8.081   4.105 126.800  0.00  0.00    -0.456 OA
BRANCH  29  30
ATOM     30  C   LIG A   1      -7.912   4.238 125.440  0.00  0.00    +0.304 C 
ATOM     31  C   LIG A   1      -6.705   5.096 125.213  0.00  0.00    +0.136 C 
ATOM     32  O   LIG A   1      -8.598   3.756 124.588  0.00  0.00    -0.251 OA
ENDBRANCH  29  30
ENDBRANCH   9  29
TORSDOF 8
ENDMDL
MODEL 7
REMARK VINA RESULT:      -6.8      3.392      6.462
REMARK  Name = NuBBE_2152
REMARK  13 active torsions:
REMARK  status: ('A' for Active; 'I' for Inactive)
REMARK    1  A    between atoms: C_1  and  O_2
REMARK    2  A    between atoms: O_2  and  C_3
REMARK    3  A    between atoms: C_10  and  C_11
REMARK    4  A    between atoms: C_13  and  C_15
REMARK    5  A    between atoms: C_16  and  C_17
REMARK    6  A    between atoms: C_17  and  C_18
REMARK    7  A    between atoms: C_23  and  O_25
REMARK    8  A    between atoms: O_25  and  C_26
REMARK    9  A    between atoms: C_27  and  O_29
REMARK   10  A    between atoms: O_29  and  C_30
REMARK   11  A    between atoms: C_30  and  C_31
REMARK   12  A    between atoms: C_33  and  O_34
REMARK   13  A    between atoms: O_34  and  C_35
REMARK                            x       y       z     vdW  Elec       q    Type
REMARK                         _______ _______ _______ _____ _____    ______ ____
ROOT
ATOM      1  C   LIG A   1      -6.934   2.414 128.268  0.00  0.00    +0.066 C 
ATOM      2  C   LIG A   1      -6.711   1.581 129.604  0.00  0.00    +0.010 C 
ATOM      3  C   LIG A   1      -5.249   1.433 130.013  0.00  0.00    +0.009 C 
ATOM      4  C   LIG A   1      -7.677   2.212 130.652  0.00  0.00    +0.041 C 
ATOM      5  C   LIG A   1      -8.457   2.848 129.555  0.00  0.00    +0.176 C 
ATOM      6  O   LIG A   1      -9.617   2.550 129.283  0.00  0.00    -0.294 OA
ATOM      7  C   LIG A   1      -7.204   3.426 131.499  0.00  0.00    +0.050 C 
ATOM      8  C   LIG A   1      -7.932   4.769 131.136  0.00  0.00    +0.163 C 
ATOM      9  C   LIG A   1      -8.184   4.942 129.578  0.00  0.00    +0.244 C 
ATOM     10  C   LIG A   1      -7.471   3.861 128.691  0.00  0.00    +0.173 C 
ENDROOT
BRANCH   1  18
ATOM     11  C   LIG A   1      -8.739  -0.307 126.112  0.00  0.00    +0.166 A 
ATOM     12  C   LIG A   1      -9.144   0.472 125.047  0.00  0.00    +0.207 A 
ATOM     13  O   LIG A   1      -9.814   0.074 123.929  0.00  0.00    -0.449 OA
ATOM     14  C   LIG A   1      -9.956   1.315 123.218  0.00  0.00    +0.467 C 
ATOM     15  O   LIG A   1      -9.316   2.423 123.877  0.00  0.00    -0.453 OA
ATOM     16  C   LIG A   1      -8.852   1.817 125.006  0.00  0.00    +0.170 A 
ATOM     17  C   LIG A   1      -8.149   2.461 126.010  0.00  0.00    +0.053 A 
ATOM     18  C   LIG A   1      -7.726   1.720 127.127  0.00  0.00    -0.034 A 
ATOM     19  C   LIG A   1      -8.003   0.325 127.136  0.00  0.00    +0.053 A 
BRANCH  11  21
ATOM     20  C   LIG A   1      -7.831  -2.488 125.928  0.00  0.00    +0.277 C 
ATOM     21  O   LIG A   1      -8.935  -1.652 126.265  0.00  0.00    -0.491 OA
ENDBRANCH  11  21
ENDBRANCH   1  18
BRANCH   8  22
ATOM     22  O   LIG A   1      -9.196   4.915 131.797  0.00  0.00    -0.376 OA
ATOM     23  C   LIG A   1      -9.227   5.831 132.877  0.00  0.00    +0.194 C 
ENDBRANCH   8  22
BRANCH  10  24
ATOM     24  O   LIG A   1      -6.103   4.349 128.961  0.00  0.00    -0.365 OA
ATOM     25  C   LIG A   1      -5.250   4.480 127.812  0.00  0.00    +0.195 C 
ENDBRANCH  10  24
BRANCH   4  26
ATOM     26  C   LIG A   1      -8.363   1.072 131.445  0.00  0.00    +0.041 C 
BRANCH  26  27
ATOM     27  C   LIG A   1      -8.342  -0.325 130.895  0.00  0.00    -0.034 C 
ATOM     28  C   LIG A   1      -7.777  -1.372 131.511  0.00  0.00    +0.004 C 
ENDBRANCH  26  27
ENDBRANCH   4  26
BRANCH   9  29
ATOM     29  O   LIG A   1      -9.581   5.137 129.241  0.00  0.00    -0.456 OA
BRANCH  29  30
ATOM     30  C   LIG A   1      -9.877   6.306 128.576  0.00  0.00    +0.304 C 
ATOM     31  C   LIG A   1     -10.268   7.327 129.601  0.00  0.00    +0.136 C 
ATOM     32  O   LIG A   1      -9.830   6.484 127.395  0.00  0.00    -0.251 OA
ENDBRANCH  29  30
ENDBRANCH   9  29
TORSDOF 8
ENDMDL
MODEL 8
REMARK VINA RESULT:      -6.7      5.273      8.373
REMARK  Name = NuBBE_2152
REMARK  13 active torsions:
REMARK  status: ('A' for Active; 'I' for Inactive)
REMARK    1  A    between atoms: C_1  and  O_2
REMARK    2  A    between atoms: O_2  and  C_3
REMARK    3  A    between atoms: C_10  and  C_11
REMARK    4  A    between atoms: C_13  and  C_15
REMARK    5  A    between atoms: C_16  and  C_17
REMARK    6  A    between atoms: C_17  and  C_18
REMARK    7  A    between atoms: C_23  and  O_25
REMARK    8  A    between atoms: O_25  and  C_26
REMARK    9  A    between atoms: C_27  and  O_29
REMARK   10  A    between atoms: O_29  and  C_30
REMARK   11  A    between atoms: C_30  and  C_31
REMARK   12  A    between atoms: C_33  and  O_34
REMARK   13  A    between atoms: O_34  and  C_35
REMARK                            x       y       z     vdW  Elec       q    Type
REMARK                         _______ _______ _______ _____ _____    ______ ____
ROOT
ATOM      1  C   LIG A   1      -5.993  -1.093 128.528  0.00  0.00    +0.066 C 
ATOM      2  C   LIG A   1      -5.382  -2.408 129.180  0.00  0.00    +0.010 C 
ATOM      3  C   LIG A   1      -3.858  -2.463 129.167  0.00  0.00    +0.009 C 
ATOM      4  C   LIG A   1      -6.081  -2.545 130.566  0.00  0.00    +0.041 C 
ATOM      5  C   LIG A   1      -7.156  -1.617 130.120  0.00  0.00    +0.176 C 
ATOM      6  O   LIG A   1      -8.326  -1.954 129.964  0.00  0.00    -0.294 OA
ATOM      7  C   LIG A   1      -5.481  -1.823 131.805  0.00  0.00    +0.050 C 
ATOM      8  C   LIG A   1      -6.359  -0.630 132.325  0.00  0.00    +0.163 C 
ATOM      9  C   LIG A   1      -7.015   0.219 131.155  0.00  0.00    +0.244 C 
ATOM     10  C   LIG A   1      -6.490  -0.152 129.723  0.00  0.00    +0.173 C 
ENDROOT
BRANCH   1  18
ATOM     11  C   LIG A   1      -8.866  -0.448 125.951  0.00  0.00    +0.166 A 
ATOM     12  C   LIG A   1      -8.855  -1.656 125.283  0.00  0.00    +0.207 A 
ATOM     13  O   LIG A   1      -9.670  -2.057 124.267  0.00  0.00    -0.449 OA
ATOM     14  C   LIG A   1      -9.167  -3.374 123.993  0.00  0.00    +0.467 C 
ATOM     15  O   LIG A   1      -8.110  -3.775 124.883  0.00  0.00    -0.453 OA
ATOM     16  C   LIG A   1      -7.970  -2.649 125.639  0.00  0.00    +0.170 A 
ATOM     17  C   LIG A   1      -7.053  -2.502 126.665  0.00  0.00    +0.053 A 
ATOM     18  C   LIG A   1      -7.009  -1.286 127.369  0.00  0.00    -0.034 A 
ATOM     19  C   LIG A   1      -7.954  -0.285 127.015  0.00  0.00    +0.053 A 
BRANCH  11  21
ATOM     20  C   LIG A   1      -9.260   1.564 124.762  0.00  0.00    +0.277 C 
ATOM     21  O   LIG A   1      -9.705   0.607 125.721  0.00  0.00    -0.491 OA
ENDBRANCH  11  21
ENDBRANCH   1  18
BRANCH   8  22
ATOM     22  O   LIG A   1      -7.415  -1.053 133.197  0.00  0.00    -0.376 OA
ATOM     23  C   LIG A   1      -7.134  -2.178 134.009  0.00  0.00    +0.194 C 
ENDBRANCH   8  22
BRANCH  10  24
ATOM     24  O   LIG A   1      -5.132   0.388 129.935  0.00  0.00    -0.365 OA
ATOM     25  C   LIG A   1      -4.724   1.424 129.027  0.00  0.00    +0.195 C 
ENDBRANCH  10  24
BRANCH   4  26
ATOM     26  C   LIG A   1      -6.468  -4.030 130.783  0.00  0.00    +0.041 C 
BRANCH  26  27
ATOM     27  C   LIG A   1      -5.421  -5.004 131.243  0.00  0.00    -0.034 C 
ATOM     28  C   LIG A   1      -5.174  -5.299 132.526  0.00  0.00    +0.004 C 
ENDBRANCH  26  27
ENDBRANCH   4  26
BRANCH   9  29
ATOM     29  O   LIG A   1      -8.461   0.293 131.240  0.00  0.00    -0.456 OA
BRANCH  29  30
ATOM     30  C   LIG A   1      -9.009   1.538 131.028  0.00  0.00    +0.304 C 
ATOM     31  C   LIG A   1      -9.691   1.958 132.294  0.00  0.00    +0.136 C 
ATOM     32  O   LIG A   1      -8.952   2.177 130.019  0.00  0.00    -0.251 OA
ENDBRANCH  29  30
ENDBRANCH   9  29
TORSDOF 8
ENDMDL
MODEL 9
REMARK VINA RESULT:      -6.7      3.078      6.186
REMARK  Name = NuBBE_2152
REMARK  13 active torsions:
REMARK  status: ('A' for Active; 'I' for Inactive)
REMARK    1  A    between atoms: C_1  and  O_2
REMARK    2  A    between atoms: O_2  and  C_3
REMARK    3  A    between atoms: C_10  and  C_11
REMARK    4  A    between atoms: C_13  and  C_15
REMARK    5  A    between atoms: C_16  and  C_17
REMARK    6  A    between atoms: C_17  and  C_18
REMARK    7  A    between atoms: C_23  and  O_25
REMARK    8  A    between atoms: O_25  and  C_26
REMARK    9  A    between atoms: C_27  and  O_29
REMARK   10  A    between atoms: O_29  and  C_30
REMARK   11  A    between atoms: C_30  and  C_31
REMARK   12  A    between atoms: C_33  and  O_34
REMARK   13  A    between atoms: O_34  and  C_35
REMARK                            x       y       z     vdW  Elec       q    Type
REMARK                         _______ _______ _______ _____ _____    ______ ____
ROOT
ATOM      1  C   LIG A   1      -7.033   2.706 128.731  0.00  0.00    +0.066 C 
ATOM      2  C   LIG A   1      -6.935   2.134 130.212  0.00  0.00    +0.010 C 
ATOM      3  C   LIG A   1      -5.518   2.089 130.774  0.00  0.00    +0.009 C 
ATOM      4  C   LIG A   1      -7.996   2.927 131.032  0.00  0.00    +0.041 C 
ATOM      5  C   LIG A   1      -8.670   3.338 129.770  0.00  0.00    +0.176 C 
ATOM      6  O   LIG A   1      -9.799   2.975 129.451  0.00  0.00    -0.294 OA
ATOM      7  C   LIG A   1      -7.607   4.283 131.683  0.00  0.00    +0.050 C 
ATOM      8  C   LIG A   1      -8.299   5.524 131.016  0.00  0.00    +0.163 C 
ATOM      9  C   LIG A   1      -8.403   5.406 129.436  0.00  0.00    +0.244 C 
ATOM     10  C   LIG A   1      -7.608   4.196 128.831  0.00  0.00    +0.173 C 
ENDROOT
BRANCH   1  18
ATOM     11  C   LIG A   1      -9.010   1.521 125.570  0.00  0.00    +0.166 A 
ATOM     12  C   LIG A   1      -8.955   0.155 125.760  0.00  0.00    +0.207 A 
ATOM     13  O   LIG A   1      -9.506  -0.819 124.982  0.00  0.00    -0.449 OA
ATOM     14  C   LIG A   1      -9.099  -2.010 125.677  0.00  0.00    +0.467 C 
ATOM     15  O   LIG A   1      -8.375  -1.740 126.890  0.00  0.00    -0.453 OA
ATOM     16  C   LIG A   1      -8.318  -0.378 126.857  0.00  0.00    +0.170 A 
ATOM     17  C   LIG A   1      -7.702   0.404 127.819  0.00  0.00    +0.053 A 
ATOM     18  C   LIG A   1      -7.712   1.802 127.668  0.00  0.00    -0.034 A 
ATOM     19  C   LIG A   1      -8.407   2.338 126.549  0.00  0.00    +0.053 A 
BRANCH  11  21
ATOM     20  C   LIG A   1      -8.870   2.339 123.350  0.00  0.00    +0.277 C 
ATOM     21  O   LIG A   1      -9.631   2.181 124.546  0.00  0.00    -0.491 OA
ENDBRANCH  11  21
ENDBRANCH   1  18
BRANCH   8  22
ATOM     22  O   LIG A   1      -9.620   5.765 131.519  0.00  0.00    -0.376 OA
ATOM     23  C   LIG A   1      -9.776   5.655 132.922  0.00  0.00    +0.194 C 
ENDBRANCH   8  22
BRANCH  10  24
ATOM     24  O   LIG A   1      -6.272   4.749 129.132  0.00  0.00    -0.365 OA
ATOM     25  C   LIG A   1      -5.302   4.646 128.078  0.00  0.00    +0.195 C 
ENDBRANCH  10  24
BRANCH   4  26
ATOM     26  C   LIG A   1      -8.753   1.938 131.954  0.00  0.00    +0.041 C 
BRANCH  26  27
ATOM     27  C   LIG A   1      -8.904   0.505 131.530  0.00  0.00    -0.034 C 
ATOM     28  C   LIG A   1      -8.308  -0.530 132.137  0.00  0.00    +0.004 C 
ENDBRANCH  26  27
ENDBRANCH   4  26
BRANCH   9  29
ATOM     29  O   LIG A   1      -9.762   5.512 128.941  0.00  0.00    -0.456 OA
BRANCH  29  30
ATOM     30  C   LIG A   1      -9.990   6.521 128.033  0.00  0.00    +0.304 C 
ATOM     31  C   LIG A   1     -10.453   7.725 128.795  0.00  0.00    +0.136 C 
ATOM     32  O   LIG A   1      -9.845   6.457 126.848  0.00  0.00    -0.251 OA
ENDBRANCH  29  30
ENDBRANCH   9  29
TORSDOF 8
ENDMDL
