MODEL 1
REMARK VINA RESULT:      -5.5      0.000      0.000
REMARK  Name = NuBBE_472
REMARK  6 active torsions:
REMARK  status: ('A' for Active; 'I' for Inactive)
REMARK    1  A    between atoms: C_2  and  O_3
REMARK    2  A    between atoms: C_2  and  C_5
REMARK    3  A    between atoms: O_3  and  C_4
REMARK    4  A    between atoms: C_8  and  O_10
REMARK    5  A    between atoms: C_16  and  O_18
REMARK    6  A    between atoms: C_19  and  C_21
REMARK                            x       y       z     vdW  Elec       q    Type
REMARK                         _______ _______ _______ _____ _____    ______ ____
ROOT
ATOM      1  C   LIG A   1      -9.686   6.582 130.791  0.00  0.00    +0.074 C 
ATOM      2  C   LIG A   1     -10.423   5.851 131.639  0.00  0.00    +0.201 C 
ATOM      3  O   LIG A   1     -11.771   6.009 131.848  0.00  0.00    -0.470 OA
ATOM      4  C   LIG A   1     -12.254   7.290 131.442  0.00  0.00    +0.308 C 
ATOM      5  C   LIG A   1     -11.836   7.649 130.017  0.00  0.00    +0.071 C 
ATOM      6  C   LIG A   1     -10.298   7.622 129.884  0.00  0.00    +0.041 C 
ATOM      7  C   LIG A   1     -10.030   7.335 128.388  0.00  0.00    +0.040 C 
ATOM      8  C   LIG A   1     -11.396   7.119 127.738  0.00  0.00    +0.118 C 
ATOM      9  C   LIG A   1     -12.302   6.694 128.899  0.00  0.00    +0.024 C 
ATOM     10  C   LIG A   1     -13.787   6.775 128.577  0.00  0.00    +0.010 C 
ENDROOT
BRANCH   1  12
ATOM     11  O   LIG A   1      -7.376   7.234 130.800  0.00  0.00    -0.245 OA
ATOM     12  C   LIG A   1      -8.220   6.356 130.806  0.00  0.00    +0.338 C 
BRANCH  12  13
ATOM     13  O   LIG A   1      -7.986   5.020 130.747  0.00  0.00    -0.465 OA
ATOM     14  C   LIG A   1      -7.748   4.528 129.432  0.00  0.00    +0.280 C 
ENDBRANCH  12  13
ENDBRANCH   1  12
BRANCH   4  15
ATOM     15  O   LIG A   1     -13.667   7.309 131.556  0.00  0.00    -0.357 OA
ATOM     16  H   LIG A   1     -13.890   6.496 132.040  0.00  0.00    +0.213 HD
ENDBRANCH   4  15
BRANCH   8  17
ATOM     17  O   LIG A   1     -11.815   8.356 127.169  0.00  0.00    -0.392 OA
ATOM     18  H   LIG A   1     -11.927   8.991 127.897  0.00  0.00    +0.210 HD
ENDBRANCH   8  17
TORSDOF 4
ENDMDL
MODEL 2
REMARK VINA RESULT:      -5.5      1.463      4.993
REMARK  Name = NuBBE_472
REMARK  6 active torsions:
REMARK  status: ('A' for Active; 'I' for Inactive)
REMARK    1  A    between atoms: C_2  and  O_3
REMARK    2  A    between atoms: C_2  and  C_5
REMARK    3  A    between atoms: O_3  and  C_4
REMARK    4  A    between atoms: C_8  and  O_10
REMARK    5  A    between atoms: C_16  and  O_18
REMARK    6  A    between atoms: C_19  and  C_21
REMARK                            x       y       z     vdW  Elec       q    Type
REMARK                         _______ _______ _______ _____ _____    ______ ____
ROOT
ATOM      1  C   LIG A   1     -10.987   6.614 130.312  0.00  0.00    +0.074 C 
ATOM      2  C   LIG A   1     -10.288   7.571 129.686  0.00  0.00    +0.201 C 
ATOM      3  O   LIG A   1      -8.922   7.709 129.735  0.00  0.00    -0.470 OA
ATOM      4  C   LIG A   1      -8.332   7.042 130.852  0.00  0.00    +0.308 C 
ATOM      5  C   LIG A   1      -8.778   5.586 130.968  0.00  0.00    +0.071 C 
ATOM      6  C   LIG A   1     -10.316   5.502 131.081  0.00  0.00    +0.041 C 
ATOM      7  C   LIG A   1     -10.682   4.100 130.538  0.00  0.00    +0.040 C 
ATOM      8  C   LIG A   1      -9.376   3.471 130.052  0.00  0.00    +0.118 C 
ATOM      9  C   LIG A   1      -8.464   4.669 129.767  0.00  0.00    +0.024 C 
ATOM     10  C   LIG A   1      -6.995   4.299 129.623  0.00  0.00    +0.010 C 
ENDROOT
BRANCH   1  12
ATOM     11  O   LIG A   1     -13.181   7.064 131.173  0.00  0.00    -0.245 OA
ATOM     12  C   LIG A   1     -12.466   6.712 130.252  0.00  0.00    +0.338 C 
BRANCH  12  13
ATOM     13  O   LIG A   1     -12.881   6.270 129.038  0.00  0.00    -0.465 OA
ATOM     14  C   LIG A   1     -13.688   7.203 128.325  0.00  0.00    +0.280 C 
ENDBRANCH  12  13
ENDBRANCH   1  12
BRANCH   4  15
ATOM     15  O   LIG A   1      -6.921   7.114 130.740  0.00  0.00    -0.357 OA
ATOM     16  H   LIG A   1      -6.630   6.191 130.653  0.00  0.00    +0.213 HD
ENDBRANCH   4  15
BRANCH   8  17
ATOM     17  O   LIG A   1      -8.862   2.656 131.101  0.00  0.00    -0.392 OA
ATOM     18  H   LIG A   1      -8.013   2.290 130.799  0.00  0.00    +0.210 HD
ENDBRANCH   8  17
TORSDOF 4
ENDMDL
MODEL 3
REMARK VINA RESULT:      -5.5      8.803     10.958
REMARK  Name = NuBBE_472
REMARK  6 active torsions:
REMARK  status: ('A' for Active; 'I' for Inactive)
REMARK    1  A    between atoms: C_2  and  O_3
REMARK    2  A    between atoms: C_2  and  C_5
REMARK    3  A    between atoms: O_3  and  C_4
REMARK    4  A    between atoms: C_8  and  O_10
REMARK    5  A    between atoms: C_16  and  O_18
REMARK    6  A    between atoms: C_19  and  C_21
REMARK                            x       y       z     vdW  Elec       q    Type
REMARK                         _______ _______ _______ _____ _____    ______ ____
ROOT
ATOM      1  C   LIG A   1      -7.531   0.178 124.015  0.00  0.00    +0.074 C 
ATOM      2  C   LIG A   1      -8.824   0.189 124.370  0.00  0.00    +0.201 C 
ATOM      3  O   LIG A   1      -9.696  -0.859 124.203  0.00  0.00    -0.470 OA
ATOM      4  C   LIG A   1      -9.257  -1.800 123.222  0.00  0.00    +0.308 C 
ATOM      5  C   LIG A   1      -7.821  -2.264 123.456  0.00  0.00    +0.071 C 
ATOM      6  C   LIG A   1      -6.859  -1.056 123.464  0.00  0.00    +0.041 C 
ATOM      7  C   LIG A   1      -5.654  -1.508 124.323  0.00  0.00    +0.040 C 
ATOM      8  C   LIG A   1      -5.998  -2.902 124.848  0.00  0.00    +0.118 C 
ATOM      9  C   LIG A   1      -7.529  -2.955 124.804  0.00  0.00    +0.024 C 
ATOM     10  C   LIG A   1      -8.096  -4.361 124.929  0.00  0.00    +0.010 C 
ENDROOT
BRANCH   1  12
ATOM     11  O   LIG A   1      -6.283   1.866 125.179  0.00  0.00    -0.245 OA
ATOM     12  C   LIG A   1      -6.785   1.454 124.149  0.00  0.00    +0.338 C 
BRANCH  12  13
ATOM     13  O   LIG A   1      -6.828   2.108 122.961  0.00  0.00    -0.465 OA
ATOM     14  C   LIG A   1      -6.388   3.462 123.025  0.00  0.00    +0.280 C 
ENDBRANCH  12  13
ENDBRANCH   1  12
BRANCH   4  15
ATOM     15  O   LIG A   1     -10.137  -2.912 123.222  0.00  0.00    -0.357 OA
ATOM     16  H   LIG A   1     -11.028  -2.525 123.223  0.00  0.00    +0.213 HD
ENDBRANCH   4  15
BRANCH   8  17
ATOM     17  O   LIG A   1      -5.413  -3.860 123.971  0.00  0.00    -0.392 OA
ATOM     18  H   LIG A   1      -5.188  -4.644 124.501  0.00  0.00    +0.210 HD
ENDBRANCH   8  17
TORSDOF 4
ENDMDL
MODEL 4
REMARK VINA RESULT:      -5.4      9.681     11.324
REMARK  Name = NuBBE_472
REMARK  6 active torsions:
REMARK  status: ('A' for Active; 'I' for Inactive)
REMARK    1  A    between atoms: C_2  and  O_3
REMARK    2  A    between atoms: C_2  and  C_5
REMARK    3  A    between atoms: O_3  and  C_4
REMARK    4  A    between atoms: C_8  and  O_10
REMARK    5  A    between atoms: C_16  and  O_18
REMARK    6  A    between atoms: C_19  and  C_21
REMARK                            x       y       z     vdW  Elec       q    Type
REMARK                         _______ _______ _______ _____ _____    ______ ____
ROOT
ATOM      1  C   LIG A   1      -7.164  -2.423 126.901  0.00  0.00    +0.074 C 
ATOM      2  C   LIG A   1      -6.040  -1.779 126.554  0.00  0.00    +0.201 C 
ATOM      3  O   LIG A   1      -5.418  -1.883 125.334  0.00  0.00    -0.470 OA
ATOM      4  C   LIG A   1      -5.790  -3.060 124.615  0.00  0.00    +0.308 C 
ATOM      5  C   LIG A   1      -7.304  -3.233 124.516  0.00  0.00    +0.071 C 
ATOM      6  C   LIG A   1      -7.933  -3.281 125.925  0.00  0.00    +0.041 C 
ATOM      7  C   LIG A   1      -9.390  -2.797 125.731  0.00  0.00    +0.040 C 
ATOM      8  C   LIG A   1      -9.522  -2.405 124.260  0.00  0.00    +0.118 C 
ATOM      9  C   LIG A   1      -8.085  -2.098 123.821  0.00  0.00    +0.024 C 
ATOM     10  C   LIG A   1      -7.906  -2.041 122.311  0.00  0.00    +0.010 C 
ENDROOT
BRANCH   1  12
ATOM     11  O   LIG A   1      -7.788  -1.236 128.891  0.00  0.00    -0.245 OA
ATOM     12  C   LIG A   1      -7.608  -2.291 128.311  0.00  0.00    +0.338 C 
BRANCH  12  13
ATOM     13  O   LIG A   1      -7.698  -3.531 128.855  0.00  0.00    -0.465 OA
ATOM     14  C   LIG A   1      -6.739  -3.790 129.876  0.00  0.00    +0.280 C 
ENDBRANCH  12  13
ENDBRANCH   1  12
BRANCH   4  15
ATOM     15  O   LIG A   1      -5.218  -3.009 123.318  0.00  0.00    -0.357 OA
ATOM     16  H   LIG A   1      -5.638  -3.737 122.831  0.00  0.00    +0.213 HD
ENDBRANCH   4  15
BRANCH   8  17
ATOM     17  O   LIG A   1     -10.061  -3.518 123.553  0.00  0.00    -0.392 OA
ATOM     18  H   LIG A   1     -10.721  -3.939 124.130  0.00  0.00    +0.210 HD
ENDBRANCH   8  17
TORSDOF 4
ENDMDL
MODEL 5
REMARK VINA RESULT:      -5.3      8.543     10.254
REMARK  Name = NuBBE_472
REMARK  6 active torsions:
REMARK  status: ('A' for Active; 'I' for Inactive)
REMARK    1  A    between atoms: C_2  and  O_3
REMARK    2  A    between atoms: C_2  and  C_5
REMARK    3  A    between atoms: O_3  and  C_4
REMARK    4  A    between atoms: C_8  and  O_10
REMARK    5  A    between atoms: C_16  and  O_18
REMARK    6  A    between atoms: C_19  and  C_21
REMARK                            x       y       z     vdW  Elec       q    Type
REMARK                         _______ _______ _______ _____ _____    ______ ____
ROOT
ATOM      1  C   LIG A   1      -8.529   0.712 123.400  0.00  0.00    +0.074 C 
ATOM      2  C   LIG A   1      -9.678   0.294 122.850  0.00  0.00    +0.201 C 
ATOM      3  O   LIG A   1     -10.115  -1.007 122.831  0.00  0.00    -0.470 OA
ATOM      4  C   LIG A   1      -9.064  -1.953 123.036  0.00  0.00    +0.308 C 
ATOM      5  C   LIG A   1      -8.223  -1.636 124.271  0.00  0.00    +0.071 C 
ATOM      6  C   LIG A   1      -7.616  -0.220 124.159  0.00  0.00    +0.041 C 
ATOM      7  C   LIG A   1      -7.386   0.234 125.620  0.00  0.00    +0.040 C 
ATOM      8  C   LIG A   1      -7.945  -0.876 126.510  0.00  0.00    +0.118 C 
ATOM      9  C   LIG A   1      -8.967  -1.593 125.622  0.00  0.00    +0.024 C 
ATOM     10  C   LIG A   1      -9.391  -2.954 126.153  0.00  0.00    +0.010 C 
ENDROOT
BRANCH   1  12
ATOM     11  O   LIG A   1      -8.896   3.083 123.419  0.00  0.00    -0.245 OA
ATOM     12  C   LIG A   1      -8.164   2.136 123.199  0.00  0.00    +0.338 C 
BRANCH  12  13
ATOM     13  O   LIG A   1      -6.920   2.192 122.658  0.00  0.00    -0.465 OA
ATOM     14  C   LIG A   1      -6.302   3.473 122.752  0.00  0.00    +0.280 C 
ENDBRANCH  12  13
ENDBRANCH   1  12
BRANCH   4  15
ATOM     15  O   LIG A   1      -9.625  -3.250 123.147  0.00  0.00    -0.357 OA
ATOM     16  H   LIG A   1     -10.517  -3.107 123.506  0.00  0.00    +0.213 HD
ENDBRANCH   4  15
BRANCH   8  17
ATOM     17  O   LIG A   1      -6.868  -1.735 126.872  0.00  0.00    -0.392 OA
ATOM     18  H   LIG A   1      -7.129  -2.644 126.646  0.00  0.00    +0.210 HD
ENDBRANCH   8  17
TORSDOF 4
ENDMDL
MODEL 6
REMARK VINA RESULT:      -5.2      2.236      4.786
REMARK  Name = NuBBE_472
REMARK  6 active torsions:
REMARK  status: ('A' for Active; 'I' for Inactive)
REMARK    1  A    between atoms: C_2  and  O_3
REMARK    2  A    between atoms: C_2  and  C_5
REMARK    3  A    between atoms: O_3  and  C_4
REMARK    4  A    between atoms: C_8  and  O_10
REMARK    5  A    between atoms: C_16  and  O_18
REMARK    6  A    between atoms: C_19  and  C_21
REMARK                            x       y       z     vdW  Elec       q    Type
REMARK                         _______ _______ _______ _____ _____    ______ ____
ROOT
ATOM      1  C   LIG A   1     -10.194   5.827 129.806  0.00  0.00    +0.074 C 
ATOM      2  C   LIG A   1     -11.287   5.067 129.963  0.00  0.00    +0.201 C 
ATOM      3  O   LIG A   1     -11.321   3.864 130.625  0.00  0.00    -0.470 OA
ATOM      4  C   LIG A   1     -10.033   3.257 130.749  0.00  0.00    +0.308 C 
ATOM      5  C   LIG A   1      -8.988   4.212 131.322  0.00  0.00    +0.071 C 
ATOM      6  C   LIG A   1      -8.871   5.474 130.440  0.00  0.00    +0.041 C 
ATOM      7  C   LIG A   1      -8.353   6.581 131.389  0.00  0.00    +0.040 C 
ATOM      8  C   LIG A   1      -8.280   5.955 132.781  0.00  0.00    +0.118 C 
ATOM      9  C   LIG A   1      -9.274   4.789 132.724  0.00  0.00    +0.024 C 
ATOM     10  C   LIG A   1      -9.114   3.792 133.862  0.00  0.00    +0.010 C 
ENDROOT
BRANCH   1  12
ATOM     11  O   LIG A   1     -10.713   8.118 129.314  0.00  0.00    -0.245 OA
ATOM     12  C   LIG A   1     -10.326   7.026 128.941  0.00  0.00    +0.338 C 
BRANCH  12  13
ATOM     13  O   LIG A   1     -10.023   6.676 127.665  0.00  0.00    -0.465 OA
ATOM     14  C   LIG A   1     -10.782   7.365 126.676  0.00  0.00    +0.280 C 
ENDBRANCH  12  13
ENDBRANCH   1  12
BRANCH   4  15
ATOM     15  O   LIG A   1     -10.143   2.104 131.566  0.00  0.00    -0.357 OA
ATOM     16  H   LIG A   1     -10.772   1.527 131.102  0.00  0.00    +0.213 HD
ENDBRANCH   4  15
BRANCH   8  17
ATOM     17  O   LIG A   1      -6.947   5.500 132.991  0.00  0.00    -0.392 OA
ATOM     18  H   LIG A   1      -6.413   5.798 132.235  0.00  0.00    +0.210 HD
ENDBRANCH   8  17
TORSDOF 4
ENDMDL
MODEL 7
REMARK VINA RESULT:      -5.1      1.750      5.165
REMARK  Name = NuBBE_472
REMARK  6 active torsions:
REMARK  status: ('A' for Active; 'I' for Inactive)
REMARK    1  A    between atoms: C_2  and  O_3
REMARK    2  A    between atoms: C_2  and  C_5
REMARK    3  A    between atoms: O_3  and  C_4
REMARK    4  A    between atoms: C_8  and  O_10
REMARK    5  A    between atoms: C_16  and  O_18
REMARK    6  A    between atoms: C_19  and  C_21
REMARK                            x       y       z     vdW  Elec       q    Type
REMARK                         _______ _______ _______ _____ _____    ______ ____
ROOT
ATOM      1  C   LIG A   1     -10.537   5.134 130.253  0.00  0.00    +0.074 C 
ATOM      2  C   LIG A   1     -10.544   3.826 130.545  0.00  0.00    +0.201 C 
ATOM      3  O   LIG A   1      -9.474   2.979 130.395  0.00  0.00    -0.470 OA
ATOM      4  C   LIG A   1      -8.488   3.479 129.490  0.00  0.00    +0.308 C 
ATOM      5  C   LIG A   1      -8.062   4.909 129.818  0.00  0.00    +0.071 C 
ATOM      6  C   LIG A   1      -9.286   5.850 129.805  0.00  0.00    +0.041 C 
ATOM      7  C   LIG A   1      -8.903   7.019 130.744  0.00  0.00    +0.040 C 
ATOM      8  C   LIG A   1      -7.534   6.671 131.329  0.00  0.00    +0.118 C 
ATOM      9  C   LIG A   1      -7.452   5.145 131.215  0.00  0.00    +0.024 C 
ATOM     10  C   LIG A   1      -6.045   4.593 131.390  0.00  0.00    +0.010 C 
ENDROOT
BRANCH   1  12
ATOM     11  O   LIG A   1     -12.306   6.300 131.380  0.00  0.00    -0.245 OA
ATOM     12  C   LIG A   1     -11.831   5.854 130.352  0.00  0.00    +0.338 C 
BRANCH  12  13
ATOM     13  O   LIG A   1     -12.419   5.857 129.129  0.00  0.00    -0.465 OA
ATOM     14  C   LIG A   1     -13.212   7.011 128.867  0.00  0.00    +0.280 C 
ENDBRANCH  12  13
ENDBRANCH   1  12
BRANCH   4  15
ATOM     15  O   LIG A   1      -7.363   2.617 129.510  0.00  0.00    -0.357 OA
ATOM     16  H   LIG A   1      -7.708   1.762 129.817  0.00  0.00    +0.213 HD
ENDBRANCH   4  15
BRANCH   8  17
ATOM     17  O   LIG A   1      -6.539   7.312 130.535  0.00  0.00    -0.392 OA
ATOM     18  H   LIG A   1      -6.536   6.880 129.664  0.00  0.00    +0.210 HD
ENDBRANCH   8  17
TORSDOF 4
ENDMDL
MODEL 8
REMARK VINA RESULT:      -5.1      7.739      9.962
REMARK  Name = NuBBE_472
REMARK  6 active torsions:
REMARK  status: ('A' for Active; 'I' for Inactive)
REMARK    1  A    between atoms: C_2  and  O_3
REMARK    2  A    between atoms: C_2  and  C_5
REMARK    3  A    between atoms: O_3  and  C_4
REMARK    4  A    between atoms: C_8  and  O_10
REMARK    5  A    between atoms: C_16  and  O_18
REMARK    6  A    between atoms: C_19  and  C_21
REMARK                            x       y       z     vdW  Elec       q    Type
REMARK                         _______ _______ _______ _____ _____    ______ ____
ROOT
ATOM      1  C   LIG A   1      -8.129   0.635 125.173  0.00  0.00    +0.074 C 
ATOM      2  C   LIG A   1      -7.051   0.417 125.939  0.00  0.00    +0.201 C 
ATOM      3  O   LIG A   1      -6.797  -0.741 126.632  0.00  0.00    -0.470 OA
ATOM      4  C   LIG A   1      -7.967  -1.532 126.847  0.00  0.00    +0.308 C 
ATOM      5  C   LIG A   1      -8.752  -1.779 125.559  0.00  0.00    +0.071 C 
ATOM      6  C   LIG A   1      -9.158  -0.438 124.911  0.00  0.00    +0.041 C 
ATOM      7  C   LIG A   1      -9.318  -0.753 123.405  0.00  0.00    +0.040 C 
ATOM      8  C   LIG A   1      -8.914  -2.216 123.225  0.00  0.00    +0.118 C 
ATOM      9  C   LIG A   1      -8.003  -2.506 124.423  0.00  0.00    +0.024 C 
ATOM     10  C   LIG A   1      -7.769  -3.989 124.668  0.00  0.00    +0.010 C 
ENDROOT
BRANCH   1  12
ATOM     11  O   LIG A   1      -9.158   2.791 124.950  0.00  0.00    -0.245 OA
ATOM     12  C   LIG A   1      -8.296   2.000 124.615  0.00  0.00    +0.338 C 
BRANCH  12  13
ATOM     13  O   LIG A   1      -7.384   2.179 123.627  0.00  0.00    -0.465 OA
ATOM     14  C   LIG A   1      -7.848   2.982 122.545  0.00  0.00    +0.280 C 
ENDBRANCH  12  13
ENDBRANCH   1  12
BRANCH   4  15
ATOM     15  O   LIG A   1      -7.590  -2.766 127.434  0.00  0.00    -0.357 OA
ATOM     16  H   LIG A   1      -7.727  -3.427 126.735  0.00  0.00    +0.213 HD
ENDBRANCH   4  15
BRANCH   8  17
ATOM     17  O   LIG A   1     -10.098  -3.008 123.260  0.00  0.00    -0.392 OA
ATOM     18  H   LIG A   1      -9.922  -3.773 123.833  0.00  0.00    +0.210 HD
ENDBRANCH   8  17
TORSDOF 4
ENDMDL
MODEL 9
REMARK VINA RESULT:      -5.0      7.608      9.830
REMARK  Name = NuBBE_472
REMARK  6 active torsions:
REMARK  status: ('A' for Active; 'I' for Inactive)
REMARK    1  A    between atoms: C_2  and  O_3
REMARK    2  A    between atoms: C_2  and  C_5
REMARK    3  A    between atoms: O_3  and  C_4
REMARK    4  A    between atoms: C_8  and  O_10
REMARK    5  A    between atoms: C_16  and  O_18
REMARK    6  A    between atoms: C_19  and  C_21
REMARK                            x       y       z     vdW  Elec       q    Type
REMARK                         _______ _______ _______ _____ _____    ______ ____
ROOT
ATOM      1  C   LIG A   1      -7.851   0.578 125.587  0.00  0.00    +0.074 C 
ATOM      2  C   LIG A   1      -9.138   0.928 125.455  0.00  0.00    +0.201 C 
ATOM      3  O   LIG A   1      -9.983   0.471 124.474  0.00  0.00    -0.470 OA
ATOM      4  C   LIG A   1      -9.290  -0.053 123.339  0.00  0.00    +0.308 C 
ATOM      5  C   LIG A   1      -8.228  -1.081 123.724  0.00  0.00    +0.071 C 
ATOM      6  C   LIG A   1      -7.205  -0.458 124.699  0.00  0.00    +0.041 C 
ATOM      7  C   LIG A   1      -6.636  -1.653 125.500  0.00  0.00    +0.040 C 
ATOM      8  C   LIG A   1      -7.403  -2.890 125.033  0.00  0.00    +0.118 C 
ATOM      9  C   LIG A   1      -8.719  -2.332 124.482  0.00  0.00    +0.024 C 
ATOM     10  C   LIG A   1      -9.495  -3.324 123.628  0.00  0.00    +0.010 C 
ENDROOT
BRANCH   1  12
ATOM     11  O   LIG A   1      -7.290   1.246 127.822  0.00  0.00    -0.245 OA
ATOM     12  C   LIG A   1      -7.063   1.285 126.626  0.00  0.00    +0.338 C 
BRANCH  12  13
ATOM     13  O   LIG A   1      -6.110   2.033 126.015  0.00  0.00    -0.465 OA
ATOM     14  C   LIG A   1      -4.781   1.739 126.433  0.00  0.00    +0.280 C 
ENDBRANCH  12  13
ENDBRANCH   1  12
BRANCH   4  15
ATOM     15  O   LIG A   1     -10.231  -0.631 122.450  0.00  0.00    -0.357 OA
ATOM     16  H   LIG A   1     -10.880  -1.072 123.025  0.00  0.00    +0.213 HD
ENDBRANCH   4  15
BRANCH   8  17
ATOM     17  O   LIG A   1      -6.635  -3.528 124.016  0.00  0.00    -0.392 OA
ATOM     18  H   LIG A   1      -5.963  -2.893 123.715  0.00  0.00    +0.210 HD
ENDBRANCH   8  17
TORSDOF 4
ENDMDL
