MODEL 1
REMARK VINA RESULT:      -8.2      0.000      0.000
REMARK  Name = NuBBE_1961
REMARK  3 active torsions:
REMARK  status: ('A' for Active; 'I' for Inactive)
REMARK    1  A    between atoms: C_1  and  C_2
REMARK    2  A    between atoms: C_2  and  C_3
REMARK    3  A    between atoms: N_22  and  C_23
REMARK                            x       y       z     vdW  Elec       q    Type
REMARK                         _______ _______ _______ _____ _____    ______ ____
ROOT
ATOM      1  C   LIG A   1      -6.414  -2.912 124.924  0.00  0.00    +0.018 C 
ATOM      2  C   LIG A   1      -6.505  -1.417 125.399  0.00  0.00    +0.093 C 
ATOM      3  C   LIG A   1      -7.476  -0.664 124.513  0.00  0.00    +0.003 A 
ATOM      4  C   LIG A   1      -7.542   0.706 124.134  0.00  0.00    +0.005 A 
ATOM      5  C   LIG A   1      -6.770   1.849 124.424  0.00  0.00    +0.010 A 
ATOM      6  C   LIG A   1      -7.126   3.080 123.862  0.00  0.00    +0.001 A 
ATOM      7  C   LIG A   1      -8.233   3.186 123.023  0.00  0.00    +0.002 A 
ATOM      8  C   LIG A   1      -9.017   2.069 122.721  0.00  0.00    +0.026 A 
ATOM      9  C   LIG A   1      -8.648   0.842 123.288  0.00  0.00    +0.047 A 
ATOM     10  N   LIG A   1      -9.233  -0.403 123.165  0.00  0.00    -0.354 N 
ATOM     11  H   LIG A   1     -10.059  -0.592 122.618  0.00  0.00    +0.166 HD
ATOM     12  C   LIG A   1      -8.521  -1.316 123.883  0.00  0.00    +0.048 A 
ATOM     13  C   LIG A   1      -8.767  -2.715 123.986  0.00  0.00    -0.027 C 
ATOM     14  C   LIG A   1      -7.861  -3.501 124.963  0.00  0.00    +0.026 C 
ATOM     15  C   LIG A   1      -8.424  -3.372 126.398  0.00  0.00    +0.024 C 
ATOM     16  C   LIG A   1      -7.521  -2.568 127.345  0.00  0.00    +0.085 C 
ATOM     17  N   LIG A   1      -7.048  -1.307 126.770  0.00  0.00    -0.298 NA
ATOM     18  C   LIG A   1      -6.124  -0.624 127.669  0.00  0.00    +0.105 C 
ATOM     19  C   LIG A   1      -9.691  -3.332 123.234  0.00  0.00    +0.014 C 
ENDROOT
BRANCH   1  21
ATOM     20  C   LIG A   1      -4.472  -3.948 123.615  0.00  0.00    +0.004 C 
ATOM     21  C   LIG A   1      -5.695  -3.042 123.561  0.00  0.00    +0.002 C 
ENDBRANCH   1  21
TORSDOF 1
ENDMDL
MODEL 2
REMARK VINA RESULT:      -7.4      2.696      4.407
REMARK  Name = NuBBE_1961
REMARK  3 active torsions:
REMARK  status: ('A' for Active; 'I' for Inactive)
REMARK    1  A    between atoms: C_1  and  C_2
REMARK    2  A    between atoms: C_2  and  C_3
REMARK    3  A    between atoms: N_22  and  C_23
REMARK                            x       y       z     vdW  Elec       q    Type
REMARK                         _______ _______ _______ _____ _____    ______ ____
ROOT
ATOM      1  C   LIG A   1      -6.741   1.192 125.194  0.00  0.00    +0.018 C 
ATOM      2  C   LIG A   1      -6.113   2.434 124.464  0.00  0.00    +0.093 C 
ATOM      3  C   LIG A   1      -6.973   2.808 123.275  0.00  0.00    +0.003 A 
ATOM      4  C   LIG A   1      -6.651   3.425 122.033  0.00  0.00    +0.005 A 
ATOM      5  C   LIG A   1      -5.463   3.913 121.451  0.00  0.00    +0.010 A 
ATOM      6  C   LIG A   1      -5.505   4.474 120.170  0.00  0.00    +0.001 A 
ATOM      7  C   LIG A   1      -6.706   4.557 119.468  0.00  0.00    +0.002 A 
ATOM      8  C   LIG A   1      -7.898   4.082 120.023  0.00  0.00    +0.026 A 
ATOM      9  C   LIG A   1      -7.842   3.521 121.305  0.00  0.00    +0.047 A 
ATOM     10  N   LIG A   1      -8.849   2.984 122.082  0.00  0.00    -0.354 N 
ATOM     11  H   LIG A   1      -9.818   2.935 121.805  0.00  0.00    +0.166 HD
ATOM     12  C   LIG A   1      -8.329   2.536 123.259  0.00  0.00    +0.048 A 
ATOM     13  C   LIG A   1      -9.024   1.883 124.317  0.00  0.00    -0.027 C 
ATOM     14  C   LIG A   1      -8.203   1.577 125.591  0.00  0.00    +0.026 C 
ATOM     15  C   LIG A   1      -8.170   2.836 126.492  0.00  0.00    +0.024 C 
ATOM     16  C   LIG A   1      -6.776   3.469 126.617  0.00  0.00    +0.085 C 
ATOM     17  N   LIG A   1      -6.091   3.631 125.333  0.00  0.00    -0.298 NA
ATOM     18  C   LIG A   1      -4.739   4.150 125.511  0.00  0.00    +0.105 C 
ATOM     19  C   LIG A   1     -10.302   1.495 124.196  0.00  0.00    +0.014 C 
ENDROOT
BRANCH   1  21
ATOM     20  C   LIG A   1      -5.890  -1.221 125.082  0.00  0.00    +0.004 C 
ATOM     21  C   LIG A   1      -6.614  -0.098 124.351  0.00  0.00    +0.002 C 
ENDBRANCH   1  21
TORSDOF 1
ENDMDL
MODEL 3
REMARK VINA RESULT:      -7.2      7.529      9.560
REMARK  Name = NuBBE_1961
REMARK  3 active torsions:
REMARK  status: ('A' for Active; 'I' for Inactive)
REMARK    1  A    between atoms: C_1  and  C_2
REMARK    2  A    between atoms: C_2  and  C_3
REMARK    3  A    between atoms: N_22  and  C_23
REMARK                            x       y       z     vdW  Elec       q    Type
REMARK                         _______ _______ _______ _____ _____    ______ ____
ROOT
ATOM      1  C   LIG A   1      -8.483   2.521 131.190  0.00  0.00    +0.018 C 
ATOM      2  C   LIG A   1      -9.012   3.650 130.234  0.00  0.00    +0.093 C 
ATOM      3  C   LIG A   1      -9.816   4.654 131.033  0.00  0.00    +0.003 A 
ATOM      4  C   LIG A   1     -10.903   5.498 130.670  0.00  0.00    +0.005 A 
ATOM      5  C   LIG A   1     -11.622   5.726 129.479  0.00  0.00    +0.010 A 
ATOM      6  C   LIG A   1     -12.669   6.654 129.474  0.00  0.00    +0.001 A 
ATOM      7  C   LIG A   1     -13.005   7.354 130.631  0.00  0.00    +0.002 A 
ATOM      8  C   LIG A   1     -12.307   7.149 131.825  0.00  0.00    +0.026 A 
ATOM      9  C   LIG A   1     -11.263   6.215 131.817  0.00  0.00    +0.047 A 
ATOM     10  N   LIG A   1     -10.419   5.820 132.836  0.00  0.00    -0.354 N 
ATOM     11  H   LIG A   1     -10.449   6.188 133.775  0.00  0.00    +0.166 HD
ATOM     12  C   LIG A   1      -9.560   4.868 132.376  0.00  0.00    +0.048 A 
ATOM     13  C   LIG A   1      -8.562   4.175 133.118  0.00  0.00    -0.027 C 
ATOM     14  C   LIG A   1      -7.651   3.218 132.315  0.00  0.00    +0.026 C 
ATOM     15  C   LIG A   1      -6.501   4.028 131.669  0.00  0.00    +0.024 C 
ATOM     16  C   LIG A   1      -6.573   4.085 130.135  0.00  0.00    +0.085 C 
ATOM     17  N   LIG A   1      -7.905   4.420 129.625  0.00  0.00    -0.298 NA
ATOM     18  C   LIG A   1      -7.945   4.373 128.168  0.00  0.00    +0.105 C 
ATOM     19  C   LIG A   1      -8.453   4.295 134.450  0.00  0.00    +0.014 C 
ENDROOT
BRANCH   1  21
ATOM     20  C   LIG A   1      -9.196   0.164 131.893  0.00  0.00    +0.004 C 
ATOM     21  C   LIG A   1      -9.627   1.611 131.696  0.00  0.00    +0.002 C 
ENDBRANCH   1  21
TORSDOF 1
ENDMDL
MODEL 4
REMARK VINA RESULT:      -6.9      2.481      4.409
REMARK  Name = NuBBE_1961
REMARK  3 active torsions:
REMARK  status: ('A' for Active; 'I' for Inactive)
REMARK    1  A    between atoms: C_1  and  C_2
REMARK    2  A    between atoms: C_2  and  C_3
REMARK    3  A    between atoms: N_22  and  C_23
REMARK                            x       y       z     vdW  Elec       q    Type
REMARK                         _______ _______ _______ _____ _____    ______ ____
ROOT
ATOM      1  C   LIG A   1      -5.238  -1.522 128.389  0.00  0.00    +0.018 C 
ATOM      2  C   LIG A   1      -5.734  -0.915 127.026  0.00  0.00    +0.093 C 
ATOM      3  C   LIG A   1      -6.923  -1.707 126.524  0.00  0.00    +0.003 A 
ATOM      4  C   LIG A   1      -7.400  -1.961 125.207  0.00  0.00    +0.005 A 
ATOM      5  C   LIG A   1      -6.978  -1.590 123.914  0.00  0.00    +0.010 A 
ATOM      6  C   LIG A   1      -7.701  -2.032 122.801  0.00  0.00    +0.001 A 
ATOM      7  C   LIG A   1      -8.831  -2.831 122.958  0.00  0.00    +0.002 A 
ATOM      8  C   LIG A   1      -9.272  -3.213 124.228  0.00  0.00    +0.026 A 
ATOM      9  C   LIG A   1      -8.538  -2.766 125.334  0.00  0.00    +0.047 A 
ATOM     10  N   LIG A   1      -8.743  -2.985 126.682  0.00  0.00    -0.354 N 
ATOM     11  H   LIG A   1      -9.506  -3.527 127.061  0.00  0.00    +0.166 HD
ATOM     12  C   LIG A   1      -7.765  -2.368 127.400  0.00  0.00    +0.048 A 
ATOM     13  C   LIG A   1      -7.591  -2.383 128.814  0.00  0.00    -0.027 C 
ATOM     14  C   LIG A   1      -6.450  -1.502 129.375  0.00  0.00    +0.026 C 
ATOM     15  C   LIG A   1      -6.956  -0.048 129.529  0.00  0.00    +0.024 C 
ATOM     16  C   LIG A   1      -6.279   0.946 128.572  0.00  0.00    +0.085 C 
ATOM     17  N   LIG A   1      -6.219   0.473 127.187  0.00  0.00    -0.298 NA
ATOM     18  C   LIG A   1      -5.489   1.407 126.337  0.00  0.00    +0.105 C 
ATOM     19  C   LIG A   1      -8.332  -3.165 129.613  0.00  0.00    +0.014 C 
ENDROOT
BRANCH   1  21
ATOM     20  C   LIG A   1      -4.005  -3.481 129.485  0.00  0.00    +0.004 C 
ATOM     21  C   LIG A   1      -4.579  -2.908 128.196  0.00  0.00    +0.002 C 
ENDBRANCH   1  21
TORSDOF 1
ENDMDL
MODEL 5
REMARK VINA RESULT:      -6.8      1.867      5.211
REMARK  Name = NuBBE_1961
REMARK  3 active torsions:
REMARK  status: ('A' for Active; 'I' for Inactive)
REMARK    1  A    between atoms: C_1  and  C_2
REMARK    2  A    between atoms: C_2  and  C_3
REMARK    3  A    between atoms: N_22  and  C_23
REMARK                            x       y       z     vdW  Elec       q    Type
REMARK                         _______ _______ _______ _____ _____    ______ ____
ROOT
ATOM      1  C   LIG A   1      -8.614  -1.535 124.544  0.00  0.00    +0.018 C 
ATOM      2  C   LIG A   1      -8.428  -0.911 125.974  0.00  0.00    +0.093 C 
ATOM      3  C   LIG A   1      -7.254  -1.571 126.665  0.00  0.00    +0.003 A 
ATOM      4  C   LIG A   1      -6.976  -1.803 128.042  0.00  0.00    +0.005 A 
ATOM      5  C   LIG A   1      -7.649  -1.518 129.247  0.00  0.00    +0.010 A 
ATOM      6  C   LIG A   1      -7.074  -1.902 130.463  0.00  0.00    +0.001 A 
ATOM      7  C   LIG A   1      -5.846  -2.559 130.494  0.00  0.00    +0.002 A 
ATOM      8  C   LIG A   1      -5.157  -2.853 129.314  0.00  0.00    +0.026 A 
ATOM      9  C   LIG A   1      -5.745  -2.465 128.103  0.00  0.00    +0.047 A 
ATOM     10  N   LIG A   1      -5.293  -2.623 126.807  0.00  0.00    -0.354 N 
ATOM     11  H   LIG A   1      -4.419  -3.061 126.559  0.00  0.00    +0.166 HD
ATOM     12  C   LIG A   1      -6.205  -2.105 125.938  0.00  0.00    +0.048 A 
ATOM     13  C   LIG A   1      -6.138  -2.104 124.516  0.00  0.00    -0.027 C 
ATOM     14  C   LIG A   1      -7.266  -1.347 123.776  0.00  0.00    +0.026 C 
ATOM     15  C   LIG A   1      -6.920   0.160 123.719  0.00  0.00    +0.024 C 
ATOM     16  C   LIG A   1      -7.861   1.041 124.555  0.00  0.00    +0.085 C 
ATOM     17  N   LIG A   1      -8.094   0.529 125.907  0.00  0.00    -0.298 NA
ATOM     18  C   LIG A   1      -9.062   1.348 126.627  0.00  0.00    +0.105 C 
ATOM     19  C   LIG A   1      -5.186  -2.772 123.848  0.00  0.00    +0.014 C 
ENDROOT
BRANCH   1  21
ATOM     20  C   LIG A   1      -9.708  -3.486 123.296  0.00  0.00    +0.004 C 
ATOM     21  C   LIG A   1      -9.126  -2.993 124.614  0.00  0.00    +0.002 C 
ENDBRANCH   1  21
TORSDOF 1
ENDMDL
MODEL 6
REMARK VINA RESULT:      -6.7      4.432      6.522
REMARK  Name = NuBBE_1961
REMARK  3 active torsions:
REMARK  status: ('A' for Active; 'I' for Inactive)
REMARK    1  A    between atoms: C_1  and  C_2
REMARK    2  A    between atoms: C_2  and  C_3
REMARK    3  A    between atoms: N_22  and  C_23
REMARK                            x       y       z     vdW  Elec       q    Type
REMARK                         _______ _______ _______ _____ _____    ______ ____
ROOT
ATOM      1  C   LIG A   1      -7.187  -2.909 129.075  0.00  0.00    +0.018 C 
ATOM      2  C   LIG A   1      -7.081  -1.348 128.935  0.00  0.00    +0.093 C 
ATOM      3  C   LIG A   1      -7.707  -0.688 130.146  0.00  0.00    +0.003 A 
ATOM      4  C   LIG A   1      -8.350   0.571 130.309  0.00  0.00    +0.005 A 
ATOM      5  C   LIG A   1      -8.638   1.651 129.451  0.00  0.00    +0.010 A 
ATOM      6  C   LIG A   1      -9.309   2.771 129.956  0.00  0.00    +0.001 A 
ATOM      7  C   LIG A   1      -9.691   2.828 131.294  0.00  0.00    +0.002 A 
ATOM      8  C   LIG A   1      -9.416   1.772 132.167  0.00  0.00    +0.026 A 
ATOM      9  C   LIG A   1      -8.747   0.656 131.648  0.00  0.00    +0.047 A 
ATOM     10  N   LIG A   1      -8.352  -0.511 132.273  0.00  0.00    -0.354 N 
ATOM     11  H   LIG A   1      -8.502  -0.712 133.250  0.00  0.00    +0.166 HD
ATOM     12  C   LIG A   1      -7.745  -1.330 131.371  0.00  0.00    +0.048 A 
ATOM     13  C   LIG A   1      -7.231  -2.639 131.602  0.00  0.00    -0.027 C 
ATOM     14  C   LIG A   1      -6.491  -3.304 130.418  0.00  0.00    +0.026 C 
ATOM     15  C   LIG A   1      -5.024  -2.815 130.392  0.00  0.00    +0.024 C 
ATOM     16  C   LIG A   1      -4.685  -1.941 129.174  0.00  0.00    +0.085 C 
ATOM     17  N   LIG A   1      -5.674  -0.892 128.916  0.00  0.00    -0.298 NA
ATOM     18  C   LIG A   1      -5.357  -0.150 127.701  0.00  0.00    +0.105 C 
ATOM     19  C   LIG A   1      -7.430  -3.287 132.759  0.00  0.00    +0.014 C 
ENDROOT
BRANCH   1  21
ATOM     20  C   LIG A   1      -8.986  -3.851 127.513  0.00  0.00    +0.004 C 
ATOM     21  C   LIG A   1      -8.645  -3.403 128.929  0.00  0.00    +0.002 C 
ENDBRANCH   1  21
TORSDOF 1
ENDMDL
MODEL 7
REMARK VINA RESULT:      -6.6      1.944      4.008
REMARK  Name = NuBBE_1961
REMARK  3 active torsions:
REMARK  status: ('A' for Active; 'I' for Inactive)
REMARK    1  A    between atoms: C_1  and  C_2
REMARK    2  A    between atoms: C_2  and  C_3
REMARK    3  A    between atoms: N_22  and  C_23
REMARK                            x       y       z     vdW  Elec       q    Type
REMARK                         _______ _______ _______ _____ _____    ______ ____
ROOT
ATOM      1  C   LIG A   1      -8.744  -1.802 125.483  0.00  0.00    +0.018 C 
ATOM      2  C   LIG A   1      -8.593  -0.242 125.365  0.00  0.00    +0.093 C 
ATOM      3  C   LIG A   1      -7.149   0.145 125.606  0.00  0.00    +0.003 A 
ATOM      4  C   LIG A   1      -6.563   1.330 126.134  0.00  0.00    +0.005 A 
ATOM      5  C   LIG A   1      -7.072   2.554 126.612  0.00  0.00    +0.010 A 
ATOM      6  C   LIG A   1      -6.186   3.533 127.076  0.00  0.00    +0.001 A 
ATOM      7  C   LIG A   1      -4.812   3.310 127.067  0.00  0.00    +0.002 A 
ATOM      8  C   LIG A   1      -4.280   2.106 126.597  0.00  0.00    +0.026 A 
ATOM      9  C   LIG A   1      -5.178   1.134 126.138  0.00  0.00    +0.047 A 
ATOM     10  N   LIG A   1      -4.935  -0.126 125.626  0.00  0.00    -0.354 N 
ATOM     11  H   LIG A   1      -4.016  -0.523 125.504  0.00  0.00    +0.166 HD
ATOM     12  C   LIG A   1      -6.117  -0.732 125.323  0.00  0.00    +0.048 A 
ATOM     13  C   LIG A   1      -6.306  -2.047 124.811  0.00  0.00    -0.027 C 
ATOM     14  C   LIG A   1      -7.757  -2.443 124.454  0.00  0.00    +0.026 C 
ATOM     15  C   LIG A   1      -8.095  -1.924 123.035  0.00  0.00    +0.024 C 
ATOM     16  C   LIG A   1      -9.158  -0.815 123.020  0.00  0.00    +0.085 C 
ATOM     17  N   LIG A   1      -8.913   0.241 124.005  0.00  0.00    -0.298 NA
ATOM     18  C   LIG A   1      -9.994   1.220 124.014  0.00  0.00    +0.105 C 
ATOM     19  C   LIG A   1      -5.293  -2.921 124.702  0.00  0.00    +0.014 C 
ENDROOT
BRANCH   1  21
ATOM     20  C   LIG A   1      -8.922  -3.760 127.123  0.00  0.00    +0.004 C 
ATOM     21  C   LIG A   1      -8.572  -2.290 126.940  0.00  0.00    +0.002 C 
ENDBRANCH   1  21
TORSDOF 1
ENDMDL
MODEL 8
REMARK VINA RESULT:      -6.6      2.277      5.689
REMARK  Name = NuBBE_1961
REMARK  3 active torsions:
REMARK  status: ('A' for Active; 'I' for Inactive)
REMARK    1  A    between atoms: C_1  and  C_2
REMARK    2  A    between atoms: C_2  and  C_3
REMARK    3  A    between atoms: N_22  and  C_23
REMARK                            x       y       z     vdW  Elec       q    Type
REMARK                         _______ _______ _______ _____ _____    ______ ____
ROOT
ATOM      1  C   LIG A   1      -6.568  -1.908 124.945  0.00  0.00    +0.018 C 
ATOM      2  C   LIG A   1      -6.852  -2.535 126.358  0.00  0.00    +0.093 C 
ATOM      3  C   LIG A   1      -6.007  -1.835 127.401  0.00  0.00    +0.003 A 
ATOM      4  C   LIG A   1      -5.464  -2.287 128.637  0.00  0.00    +0.005 A 
ATOM      5  C   LIG A   1      -5.503  -3.504 129.346  0.00  0.00    +0.010 A 
ATOM      6  C   LIG A   1      -4.836  -3.609 130.571  0.00  0.00    +0.001 A 
ATOM      7  C   LIG A   1      -4.137  -2.524 131.095  0.00  0.00    +0.002 A 
ATOM      8  C   LIG A   1      -4.083  -1.304 130.413  0.00  0.00    +0.026 A 
ATOM      9  C   LIG A   1      -4.754  -1.214 129.187  0.00  0.00    +0.047 A 
ATOM     10  N   LIG A   1      -4.868  -0.149 128.315  0.00  0.00    -0.354 N 
ATOM     11  H   LIG A   1      -4.459   0.760 128.470  0.00  0.00    +0.166 HD
ATOM     12  C   LIG A   1      -5.603  -0.522 127.230  0.00  0.00    +0.048 A 
ATOM     13  C   LIG A   1      -5.917   0.267 126.087  0.00  0.00    -0.027 C 
ATOM     14  C   LIG A   1      -6.865  -0.377 125.048  0.00  0.00    +0.026 C 
ATOM     15  C   LIG A   1      -8.331  -0.172 125.499  0.00  0.00    +0.024 C 
ATOM     16  C   LIG A   1      -9.045  -1.476 125.888  0.00  0.00    +0.085 C 
ATOM     17  N   LIG A   1      -8.255  -2.330 126.779  0.00  0.00    -0.298 NA
ATOM     18  C   LIG A   1      -8.935  -3.592 127.046  0.00  0.00    +0.105 C 
ATOM     19  C   LIG A   1      -5.374   1.477 125.887  0.00  0.00    +0.014 C 
ENDROOT
BRANCH   1  21
ATOM     20  C   LIG A   1      -5.040  -3.700 123.940  0.00  0.00    +0.004 C 
ATOM     21  C   LIG A   1      -5.154  -2.263 124.430  0.00  0.00    +0.002 C 
ENDBRANCH   1  21
TORSDOF 1
ENDMDL
MODEL 9
REMARK VINA RESULT:      -6.5      8.742     10.477
REMARK  Name = NuBBE_1961
REMARK  3 active torsions:
REMARK  status: ('A' for Active; 'I' for Inactive)
REMARK    1  A    between atoms: C_1  and  C_2
REMARK    2  A    between atoms: C_2  and  C_3
REMARK    3  A    between atoms: N_22  and  C_23
REMARK                            x       y       z     vdW  Elec       q    Type
REMARK                         _______ _______ _______ _____ _____    ______ ____
ROOT
ATOM      1  C   LIG A   1      -7.759   4.318 134.022  0.00  0.00    +0.018 C 
ATOM      2  C   LIG A   1      -8.889   4.134 132.946  0.00  0.00    +0.093 C 
ATOM      3  C   LIG A   1      -8.865   5.302 131.983  0.00  0.00    +0.003 A 
ATOM      4  C   LIG A   1      -9.895   5.916 131.216  0.00  0.00    +0.005 A 
ATOM      5  C   LIG A   1     -11.276   5.688 131.056  0.00  0.00    +0.010 A 
ATOM      6  C   LIG A   1     -12.014   6.510 130.197  0.00  0.00    +0.001 A 
ATOM      7  C   LIG A   1     -11.398   7.547 129.501  0.00  0.00    +0.002 A 
ATOM      8  C   LIG A   1     -10.029   7.795 129.641  0.00  0.00    +0.026 A 
ATOM      9  C   LIG A   1      -9.303   6.966 130.505  0.00  0.00    +0.047 A 
ATOM     10  N   LIG A   1      -7.960   6.981 130.828  0.00  0.00    -0.354 N 
ATOM     11  H   LIG A   1      -7.290   7.632 130.447  0.00  0.00    +0.166 HD
ATOM     12  C   LIG A   1      -7.695   5.996 131.730  0.00  0.00    +0.048 A 
ATOM     13  C   LIG A   1      -6.444   5.702 132.345  0.00  0.00    -0.027 C 
ATOM     14  C   LIG A   1      -6.404   4.452 133.255  0.00  0.00    +0.026 C 
ATOM     15  C   LIG A   1      -6.187   3.192 132.384  0.00  0.00    +0.024 C 
ATOM     16  C   LIG A   1      -7.396   2.244 132.357  0.00  0.00    +0.085 C 
ATOM     17  N   LIG A   1      -8.669   2.928 132.118  0.00  0.00    -0.298 NA
ATOM     18  C   LIG A   1      -9.793   2.003 132.191  0.00  0.00    +0.105 C 
ATOM     19  C   LIG A   1      -5.374   6.496 132.196  0.00  0.00    +0.014 C 
ENDROOT
BRANCH   1  21
ATOM     20  C   LIG A   1      -7.015   5.655 136.077  0.00  0.00    +0.004 C 
ATOM     21  C   LIG A   1      -8.073   5.479 134.995  0.00  0.00    +0.002 C 
ENDBRANCH   1  21
TORSDOF 1
ENDMDL
