MODEL 1
REMARK VINA RESULT:      -8.9      0.000      0.000
REMARK  Name = NuBBE_1334
REMARK  10 active torsions:
REMARK  status: ('A' for Active; 'I' for Inactive)
REMARK    1  A    between atoms: C_1  and  C_2
REMARK    2  A    between atoms: C_2  and  C_3
REMARK    3  A    between atoms: C_6  and  C_7
REMARK    4  A    between atoms: C_8  and  C_9
REMARK    5  A    between atoms: C_9  and  O_10
REMARK    6  A    between atoms: O_10  and  C_11
REMARK    7  A    between atoms: C_16  and  C_17
REMARK    8  A    between atoms: C_19  and  O_21
REMARK    9  A    between atoms: C_23  and  C_24
REMARK   10  A    between atoms: C_31  and  C_33
REMARK                            x       y       z     vdW  Elec       q    Type
REMARK                         _______ _______ _______ _____ _____    ______ ____
ROOT
ATOM      1  C   LIG A   1      -7.332  -2.417 122.874  0.00  0.00    +0.056 C 
ATOM      2  C   LIG A   1      -7.768  -2.807 124.284  0.00  0.00    +0.113 C 
ATOM      3  C   LIG A   1      -8.723  -4.006 124.194  0.00  0.00    +0.056 C 
ATOM      4  O   LIG A   1      -6.595  -3.260 124.982  0.00  0.00    -0.458 OA
ATOM      5  C   LIG A   1      -6.173  -2.350 125.901  0.00  0.00    +0.318 C 
ATOM      6  C   LIG A   1      -7.156  -1.184 126.026  0.00  0.00    +0.099 C 
ATOM      7  C   LIG A   1      -8.347  -1.711 125.193  0.00  0.00    +0.060 C 
ATOM      8  C   LIG A   1      -9.255  -0.630 124.615  0.00  0.00    +0.083 C 
ATOM      9  C   LIG A   1      -8.878   0.741 125.159  0.00  0.00    +0.143 C 
ATOM     10  C   LIG A   1      -7.457   1.238 124.855  0.00  0.00    +0.065 C 
ATOM     11  C   LIG A   1      -7.354   1.324 123.297  0.00  0.00    +0.022 C 
ATOM     12  C   LIG A   1      -6.467   0.099 125.354  0.00  0.00    +0.055 C 
ATOM     13  C   LIG A   1      -5.113   0.575 125.963  0.00  0.00    +0.121 C 
ATOM     14  C   LIG A   1      -4.891   2.077 126.000  0.00  0.00    +0.045 C 
ATOM     15  C   LIG A   1      -6.110   2.880 126.491  0.00  0.00    +0.044 C 
ATOM     16  C   LIG A   1      -6.661   2.437 127.860  0.00  0.00    +0.018 C 
ATOM     17  C   LIG A   1      -7.188   2.677 125.432  0.00  0.00    +0.129 C 
ATOM     18  O   LIG A   1      -7.094   3.667 124.370  0.00  0.00    -0.351 OA
ATOM     19  C   LIG A   1      -8.178   3.829 125.284  0.00  0.00    +0.260 C 
ATOM     20  C   LIG A   1      -8.073   5.035 126.141  0.00  0.00    +0.340 C 
ATOM     21  O   LIG A   1      -6.914   5.224 126.828  0.00  0.00    -0.454 OA
ATOM     22  C   LIG A   1      -5.739   4.413 126.563  0.00  0.00    +0.218 C 
ATOM     23  O   LIG A   1      -9.020   5.810 126.237  0.00  0.00    -0.248 OA
ATOM     24  O   LIG A   1      -9.683   1.389 125.825  0.00  0.00    -0.297 OA
ATOM     25  O   LIG A   1      -5.106  -2.446 126.494  0.00  0.00    -0.250 OA
ENDROOT
BRANCH  22  26
ATOM     26  C   LIG A   1      -4.678   4.745 127.589  0.00  0.00    +0.031 A 
ATOM     27  C   LIG A   1      -4.870   5.138 128.900  0.00  0.00    +0.202 A 
ATOM     28  O   LIG A   1      -3.687   5.367 129.523  0.00  0.00    -0.471 OA
ATOM     29  C   LIG A   1      -2.710   5.092 128.625  0.00  0.00    +0.195 A 
ATOM     30  C   LIG A   1      -3.260   4.692 127.429  0.00  0.00    +0.048 A 
ENDBRANCH  22  26
BRANCH   6  31
ATOM     31  C   LIG A   1      -7.516  -1.058 127.511  0.00  0.00    -0.001 C 
ATOM     32  C   LIG A   1      -7.661  -2.016 128.448  0.00  0.00    +0.088 C 
BRANCH  32  33
ATOM     33  C   LIG A   1      -7.915  -1.736 129.880  0.00  0.00    +0.331 C 
ATOM     34  O   LIG A   1      -8.230  -0.625 130.278  0.00  0.00    -0.246 OA
BRANCH  33  35
ATOM     35  O   LIG A   1      -7.739  -2.846 130.630  0.00  0.00    -0.465 OA
ATOM     36  C   LIG A   1      -6.666  -3.678 130.199  0.00  0.00    +0.280 C 
ENDBRANCH  33  35
ENDBRANCH  32  33
ENDBRANCH   6  31
BRANCH  13  37
ATOM     37  O   LIG A   1      -4.857   0.089 127.270  0.00  0.00    -0.391 OA
ATOM     38  H   LIG A   1      -3.981  -0.356 127.269  0.00  0.00    +0.210 HD
ENDBRANCH  13  37
TORSDOF 5
ENDMDL
MODEL 2
REMARK VINA RESULT:      -8.5      2.260      6.362
REMARK  Name = NuBBE_1334
REMARK  10 active torsions:
REMARK  status: ('A' for Active; 'I' for Inactive)
REMARK    1  A    between atoms: C_1  and  C_2
REMARK    2  A    between atoms: C_2  and  C_3
REMARK    3  A    between atoms: C_6  and  C_7
REMARK    4  A    between atoms: C_8  and  C_9
REMARK    5  A    between atoms: C_9  and  O_10
REMARK    6  A    between atoms: O_10  and  C_11
REMARK    7  A    between atoms: C_16  and  C_17
REMARK    8  A    between atoms: C_19  and  O_21
REMARK    9  A    between atoms: C_23  and  C_24
REMARK   10  A    between atoms: C_31  and  C_33
REMARK                            x       y       z     vdW  Elec       q    Type
REMARK                         _______ _______ _______ _____ _____    ______ ____
ROOT
ATOM      1  C   LIG A   1      -9.593   1.816 123.665  0.00  0.00    +0.056 C 
ATOM      2  C   LIG A   1      -8.313   2.644 123.754  0.00  0.00    +0.113 C 
ATOM      3  C   LIG A   1      -7.939   3.131 122.347  0.00  0.00    +0.056 C 
ATOM      4  O   LIG A   1      -8.616   3.813 124.534  0.00  0.00    -0.458 OA
ATOM      5  C   LIG A   1      -8.066   3.745 125.777  0.00  0.00    +0.318 C 
ATOM      6  C   LIG A   1      -7.165   2.516 125.925  0.00  0.00    +0.099 C 
ATOM      7  C   LIG A   1      -7.096   2.023 124.460  0.00  0.00    +0.060 C 
ATOM      8  C   LIG A   1      -6.784   0.540 124.297  0.00  0.00    +0.083 C 
ATOM      9  C   LIG A   1      -6.417  -0.088 125.635  0.00  0.00    +0.143 C 
ATOM     10  C   LIG A   1      -7.490  -0.046 126.733  0.00  0.00    +0.065 C 
ATOM     11  C   LIG A   1      -8.711  -0.849 126.174  0.00  0.00    +0.022 C 
ATOM     12  C   LIG A   1      -7.925   1.475 126.879  0.00  0.00    +0.055 C 
ATOM     13  C   LIG A   1      -8.274   1.962 128.319  0.00  0.00    +0.121 C 
ATOM     14  C   LIG A   1      -8.169   0.919 129.417  0.00  0.00    +0.045 C 
ATOM     15  C   LIG A   1      -6.895   0.056 129.345  0.00  0.00    +0.044 C 
ATOM     16  C   LIG A   1      -5.578   0.857 129.308  0.00  0.00    +0.018 C 
ATOM     17  C   LIG A   1      -7.020  -0.753 128.058  0.00  0.00    +0.129 C 
ATOM     18  O   LIG A   1      -7.730  -2.004 128.275  0.00  0.00    -0.351 OA
ATOM     19  C   LIG A   1      -6.322  -2.109 128.073  0.00  0.00    +0.260 C 
ATOM     20  C   LIG A   1      -5.570  -2.563 129.268  0.00  0.00    +0.340 C 
ATOM     21  O   LIG A   1      -5.777  -1.897 130.437  0.00  0.00    -0.454 OA
ATOM     22  C   LIG A   1      -6.854  -0.933 130.575  0.00  0.00    +0.218 C 
ATOM     23  O   LIG A   1      -4.772  -3.492 129.182  0.00  0.00    -0.248 OA
ATOM     24  O   LIG A   1      -5.303  -0.576 125.810  0.00  0.00    -0.297 OA
ATOM     25  O   LIG A   1      -8.326   4.545 126.666  0.00  0.00    -0.250 OA
ENDROOT
BRANCH  22  26
ATOM     26  C   LIG A   1      -6.724  -0.246 131.916  0.00  0.00    +0.031 A 
ATOM     27  C   LIG A   1      -7.660   0.555 132.545  0.00  0.00    +0.202 A 
ATOM     28  O   LIG A   1      -7.195   1.014 133.733  0.00  0.00    -0.471 OA
ATOM     29  C   LIG A   1      -5.957   0.487 133.901  0.00  0.00    +0.195 A 
ATOM     30  C   LIG A   1      -5.625  -0.304 132.827  0.00  0.00    +0.048 A 
ENDBRANCH  22  26
BRANCH   6  31
ATOM     31  C   LIG A   1      -5.803   3.016 126.418  0.00  0.00    -0.001 C 
ATOM     32  C   LIG A   1      -4.698   3.342 125.717  0.00  0.00    +0.088 C 
BRANCH  32  33
ATOM     33  C   LIG A   1      -3.474   3.911 126.326  0.00  0.00    +0.331 C 
ATOM     34  O   LIG A   1      -2.373   3.409 126.159  0.00  0.00    -0.246 OA
BRANCH  33  35
ATOM     35  O   LIG A   1      -3.763   5.005 127.065  0.00  0.00    -0.465 OA
ATOM     36  C   LIG A   1      -2.752   5.360 128.003  0.00  0.00    +0.280 C 
ENDBRANCH  33  35
ENDBRANCH  32  33
ENDBRANCH   6  31
BRANCH  13  37
ATOM     37  O   LIG A   1      -7.533   3.090 128.750  0.00  0.00    -0.391 OA
ATOM     38  H   LIG A   1      -7.740   3.255 129.697  0.00  0.00    +0.210 HD
ENDBRANCH  13  37
TORSDOF 5
ENDMDL
MODEL 3
REMARK VINA RESULT:      -8.4      2.485      6.804
REMARK  Name = NuBBE_1334
REMARK  10 active torsions:
REMARK  status: ('A' for Active; 'I' for Inactive)
REMARK    1  A    between atoms: C_1  and  C_2
REMARK    2  A    between atoms: C_2  and  C_3
REMARK    3  A    between atoms: C_6  and  C_7
REMARK    4  A    between atoms: C_8  and  C_9
REMARK    5  A    between atoms: C_9  and  O_10
REMARK    6  A    between atoms: O_10  and  C_11
REMARK    7  A    between atoms: C_16  and  C_17
REMARK    8  A    between atoms: C_19  and  O_21
REMARK    9  A    between atoms: C_23  and  C_24
REMARK   10  A    between atoms: C_31  and  C_33
REMARK                            x       y       z     vdW  Elec       q    Type
REMARK                         _______ _______ _______ _____ _____    ______ ____
ROOT
ATOM      1  C   LIG A   1      -4.077   2.453 131.077  0.00  0.00    +0.056 C 
ATOM      2  C   LIG A   1      -5.272   3.395 131.204  0.00  0.00    +0.113 C 
ATOM      3  C   LIG A   1      -5.582   3.604 132.693  0.00  0.00    +0.056 C 
ATOM      4  O   LIG A   1      -4.865   4.670 130.679  0.00  0.00    -0.458 OA
ATOM      5  C   LIG A   1      -5.432   4.919 129.467  0.00  0.00    +0.318 C 
ATOM      6  C   LIG A   1      -6.448   3.839 129.092  0.00  0.00    +0.099 C 
ATOM      7  C   LIG A   1      -6.550   3.054 130.420  0.00  0.00    +0.060 C 
ATOM      8  C   LIG A   1      -7.003   1.605 130.277  0.00  0.00    +0.083 C 
ATOM      9  C   LIG A   1      -7.442   1.314 128.849  0.00  0.00    +0.143 C 
ATOM     10  C   LIG A   1      -6.381   1.488 127.752  0.00  0.00    +0.065 C 
ATOM     11  C   LIG A   1      -5.239   0.476 128.091  0.00  0.00    +0.022 C 
ATOM     12  C   LIG A   1      -5.803   2.960 127.916  0.00  0.00    +0.055 C 
ATOM     13  C   LIG A   1      -5.423   3.707 126.601  0.00  0.00    +0.121 C 
ATOM     14  C   LIG A   1      -5.640   2.936 125.311  0.00  0.00    +0.045 C 
ATOM     15  C   LIG A   1      -6.990   2.199 125.239  0.00  0.00    +0.044 C 
ATOM     16  C   LIG A   1      -8.223   3.092 125.485  0.00  0.00    +0.018 C 
ATOM     17  C   LIG A   1      -6.931   1.127 126.322  0.00  0.00    +0.129 C 
ATOM     18  O   LIG A   1      -6.347  -0.109 125.824  0.00  0.00    -0.351 OA
ATOM     19  C   LIG A   1      -7.758  -0.125 126.043  0.00  0.00    +0.260 C 
ATOM     20  C   LIG A   1      -8.562  -0.242 124.803  0.00  0.00    +0.340 C 
ATOM     21  O   LIG A   1      -8.303   0.635 123.795  0.00  0.00    -0.454 OA
ATOM     22  C   LIG A   1      -7.140   1.502 123.830  0.00  0.00    +0.218 C 
ATOM     23  O   LIG A   1      -9.445  -1.090 124.715  0.00  0.00    -0.248 OA
ATOM     24  O   LIG A   1      -8.600   0.979 128.609  0.00  0.00    -0.297 OA
ATOM     25  O   LIG A   1      -5.104   5.863 128.760  0.00  0.00    -0.250 OA
ENDROOT
BRANCH  22  26
ATOM     26  C   LIG A   1      -7.217   2.468 122.668  0.00  0.00    +0.031 A 
ATOM     27  C   LIG A   1      -8.353   3.030 122.116  0.00  0.00    +0.202 A 
ATOM     28  O   LIG A   1      -8.044   3.840 121.074  0.00  0.00    -0.471 OA
ATOM     29  C   LIG A   1      -6.693   3.836 120.959  0.00  0.00    +0.195 A 
ATOM     30  C   LIG A   1      -6.136   3.025 121.919  0.00  0.00    +0.048 A 
ENDBRANCH  22  26
BRANCH   6  31
ATOM     31  C   LIG A   1      -7.761   4.556 128.757  0.00  0.00    -0.001 C 
ATOM     32  C   LIG A   1      -8.684   5.094 129.579  0.00  0.00    +0.088 C 
BRANCH  32  33
ATOM     33  C   LIG A   1      -9.867   5.851 129.107  0.00  0.00    +0.331 C 
ATOM     34  O   LIG A   1      -9.764   6.826 128.379  0.00  0.00    -0.246 OA
BRANCH  33  35
ATOM     35  O   LIG A   1     -11.009   5.321 129.597  0.00  0.00    -0.465 OA
ATOM     36  C   LIG A   1     -11.571   6.050 130.685  0.00  0.00    +0.280 C 
ENDBRANCH  33  35
ENDBRANCH  32  33
ENDBRANCH   6  31
BRANCH  13  37
ATOM     37  O   LIG A   1      -6.056   4.965 126.441  0.00  0.00    -0.391 OA
ATOM     38  H   LIG A   1      -5.546   5.636 126.947  0.00  0.00    +0.210 HD
ENDBRANCH  13  37
TORSDOF 5
ENDMDL
MODEL 4
REMARK VINA RESULT:      -8.3      2.974      6.700
REMARK  Name = NuBBE_1334
REMARK  10 active torsions:
REMARK  status: ('A' for Active; 'I' for Inactive)
REMARK    1  A    between atoms: C_1  and  C_2
REMARK    2  A    between atoms: C_2  and  C_3
REMARK    3  A    between atoms: C_6  and  C_7
REMARK    4  A    between atoms: C_8  and  C_9
REMARK    5  A    between atoms: C_9  and  O_10
REMARK    6  A    between atoms: O_10  and  C_11
REMARK    7  A    between atoms: C_16  and  C_17
REMARK    8  A    between atoms: C_19  and  O_21
REMARK    9  A    between atoms: C_23  and  C_24
REMARK   10  A    between atoms: C_31  and  C_33
REMARK                            x       y       z     vdW  Elec       q    Type
REMARK                         _______ _______ _______ _____ _____    ______ ____
ROOT
ATOM      1  C   LIG A   1      -8.743   1.851 124.212  0.00  0.00    +0.056 C 
ATOM      2  C   LIG A   1      -7.609   2.869 124.312  0.00  0.00    +0.113 C 
ATOM      3  C   LIG A   1      -6.946   3.008 122.934  0.00  0.00    +0.056 C 
ATOM      4  O   LIG A   1      -8.205   4.140 124.619  0.00  0.00    -0.458 OA
ATOM      5  C   LIG A   1      -7.978   4.505 125.910  0.00  0.00    +0.318 C 
ATOM      6  C   LIG A   1      -7.030   3.528 126.609  0.00  0.00    +0.099 C 
ATOM      7  C   LIG A   1      -6.553   2.672 125.412  0.00  0.00    +0.060 C 
ATOM      8  C   LIG A   1      -6.071   1.272 125.776  0.00  0.00    +0.083 C 
ATOM      9  C   LIG A   1      -5.991   1.102 127.287  0.00  0.00    +0.143 C 
ATOM     10  C   LIG A   1      -7.301   1.266 128.070  0.00  0.00    +0.065 C 
ATOM     11  C   LIG A   1      -8.263   0.153 127.539  0.00  0.00    +0.022 C 
ATOM     12  C   LIG A   1      -7.900   2.677 127.653  0.00  0.00    +0.055 C 
ATOM     13  C   LIG A   1      -8.641   3.475 128.770  0.00  0.00    +0.121 C 
ATOM     14  C   LIG A   1      -8.713   2.803 130.130  0.00  0.00    +0.045 C 
ATOM     15  C   LIG A   1      -7.386   2.173 130.592  0.00  0.00    +0.044 C 
ATOM     16  C   LIG A   1      -6.183   3.138 130.590  0.00  0.00    +0.018 C 
ATOM     17  C   LIG A   1      -7.110   1.035 129.615  0.00  0.00    +0.129 C 
ATOM     18  O   LIG A   1      -7.731  -0.208 130.048  0.00  0.00    -0.351 OA
ATOM     19  C   LIG A   1      -6.313  -0.133 130.187  0.00  0.00    +0.260 C 
ATOM     20  C   LIG A   1      -5.842  -0.114 131.593  0.00  0.00    +0.340 C 
ATOM     21  O   LIG A   1      -6.394   0.802 132.434  0.00  0.00    -0.454 OA
ATOM     22  C   LIG A   1      -7.558   1.578 132.044  0.00  0.00    +0.218 C 
ATOM     23  O   LIG A   1      -4.963  -0.888 131.963  0.00  0.00    -0.248 OA
ATOM     24  O   LIG A   1      -4.913   0.869 127.831  0.00  0.00    -0.297 OA
ATOM     25  O   LIG A   1      -8.525   5.464 126.439  0.00  0.00    -0.250 OA
ENDROOT
BRANCH  22  26
ATOM     26  C   LIG A   1      -7.831   2.616 133.109  0.00  0.00    +0.031 A 
ATOM     27  C   LIG A   1      -6.930   3.151 134.012  0.00  0.00    +0.202 A 
ATOM     28  O   LIG A   1      -7.530   4.048 134.832  0.00  0.00    -0.471 OA
ATOM     29  C   LIG A   1      -8.827   4.127 134.448  0.00  0.00    +0.195 A 
ATOM     30  C   LIG A   1      -9.062   3.283 133.387  0.00  0.00    +0.048 A 
ENDBRANCH  22  26
BRANCH   6  31
ATOM     31  C   LIG A   1      -5.886   4.359 127.201  0.00  0.00    -0.001 C 
ATOM     32  C   LIG A   1      -4.590   4.426 126.836  0.00  0.00    +0.088 C 
BRANCH  32  33
ATOM     33  C   LIG A   1      -3.611   5.358 127.442  0.00  0.00    +0.331 C 
ATOM     34  O   LIG A   1      -2.468   5.017 127.704  0.00  0.00    -0.246 OA
BRANCH  33  35
ATOM     35  O   LIG A   1      -4.164   6.573 127.654  0.00  0.00    -0.465 OA
ATOM     36  C   LIG A   1      -3.535   7.328 128.685  0.00  0.00    +0.280 C 
ENDBRANCH  33  35
ENDBRANCH  32  33
ENDBRANCH   6  31
BRANCH  13  37
ATOM     37  O   LIG A   1      -8.140   4.783 128.984  0.00  0.00    -0.391 OA
ATOM     38  H   LIG A   1      -7.983   5.203 128.108  0.00  0.00    +0.210 HD
ENDBRANCH  13  37
TORSDOF 5
ENDMDL
MODEL 5
REMARK VINA RESULT:      -8.3      3.797      6.561
REMARK  Name = NuBBE_1334
REMARK  10 active torsions:
REMARK  status: ('A' for Active; 'I' for Inactive)
REMARK    1  A    between atoms: C_1  and  C_2
REMARK    2  A    between atoms: C_2  and  C_3
REMARK    3  A    between atoms: C_6  and  C_7
REMARK    4  A    between atoms: C_8  and  C_9
REMARK    5  A    between atoms: C_9  and  O_10
REMARK    6  A    between atoms: O_10  and  C_11
REMARK    7  A    between atoms: C_16  and  C_17
REMARK    8  A    between atoms: C_19  and  O_21
REMARK    9  A    between atoms: C_23  and  C_24
REMARK   10  A    between atoms: C_31  and  C_33
REMARK                            x       y       z     vdW  Elec       q    Type
REMARK                         _______ _______ _______ _____ _____    ______ ____
ROOT
ATOM      1  C   LIG A   1      -7.130  -2.612 129.472  0.00  0.00    +0.056 C 
ATOM      2  C   LIG A   1      -5.986  -1.755 128.935  0.00  0.00    +0.113 C 
ATOM      3  C   LIG A   1      -4.751  -2.645 128.737  0.00  0.00    +0.056 C 
ATOM      4  O   LIG A   1      -6.378  -1.289 127.633  0.00  0.00    -0.458 OA
ATOM      5  C   LIG A   1      -6.699   0.033 127.646  0.00  0.00    +0.318 C 
ATOM      6  C   LIG A   1      -6.405   0.667 129.007  0.00  0.00    +0.099 C 
ATOM      7  C   LIG A   1      -5.620  -0.472 129.700  0.00  0.00    +0.060 C 
ATOM      8  C   LIG A   1      -5.661  -0.445 131.224  0.00  0.00    +0.083 C 
ATOM      9  C   LIG A   1      -6.322   0.831 131.726  0.00  0.00    +0.143 C 
ATOM     10  C   LIG A   1      -7.780   1.065 131.304  0.00  0.00    +0.065 C 
ATOM     11  C   LIG A   1      -8.597  -0.131 131.894  0.00  0.00    +0.022 C 
ATOM     12  C   LIG A   1      -7.813   0.952 129.719  0.00  0.00    +0.055 C 
ATOM     13  C   LIG A   1      -8.800   1.903 128.976  0.00  0.00    +0.121 C 
ATOM     14  C   LIG A   1      -9.628   2.823 129.857  0.00  0.00    +0.045 C 
ATOM     15  C   LIG A   1      -8.824   3.513 130.975  0.00  0.00    +0.044 C 
ATOM     16  C   LIG A   1      -7.584   4.290 130.489  0.00  0.00    +0.018 C 
ATOM     17  C   LIG A   1      -8.373   2.393 131.907  0.00  0.00    +0.129 C 
ATOM     18  O   LIG A   1      -9.366   2.114 132.934  0.00  0.00    -0.351 OA
ATOM     19  C   LIG A   1      -8.189   2.796 133.367  0.00  0.00    +0.260 C 
ATOM     20  C   LIG A   1      -8.425   4.194 133.803  0.00  0.00    +0.340 C 
ATOM     21  O   LIG A   1      -9.099   5.017 132.955  0.00  0.00    -0.454 OA
ATOM     22  C   LIG A   1      -9.764   4.500 131.772  0.00  0.00    +0.218 C 
ATOM     23  O   LIG A   1      -7.997   4.585 134.885  0.00  0.00    -0.248 OA
ATOM     24  O   LIG A   1      -5.691   1.630 132.414  0.00  0.00    -0.297 OA
ATOM     25  O   LIG A   1      -7.216   0.604 126.694  0.00  0.00    -0.250 OA
ENDROOT
BRANCH  22  26
ATOM     26  C   LIG A   1     -10.274   5.665 130.952  0.00  0.00    +0.031 A 
ATOM     27  C   LIG A   1     -11.530   5.814 130.395  0.00  0.00    +0.202 A 
ATOM     28  O   LIG A   1     -11.629   6.981 129.711  0.00  0.00    -0.471 OA
ATOM     29  C   LIG A   1     -10.440   7.617 129.844  0.00  0.00    +0.195 A 
ATOM     30  C   LIG A   1      -9.579   6.864 130.607  0.00  0.00    +0.048 A 
ENDBRANCH  22  26
BRANCH   6  31
ATOM     31  C   LIG A   1      -5.517   1.889 128.750  0.00  0.00    -0.001 C 
ATOM     32  C   LIG A   1      -4.181   2.025 128.866  0.00  0.00    +0.088 C 
BRANCH  32  33
ATOM     33  C   LIG A   1      -3.440   3.250 128.483  0.00  0.00    +0.331 C 
ATOM     34  O   LIG A   1      -3.123   4.098 129.303  0.00  0.00    -0.246 OA
BRANCH  33  35
ATOM     35  O   LIG A   1      -3.200   3.277 127.154  0.00  0.00    -0.465 OA
ATOM     36  C   LIG A   1      -1.827   3.129 126.805  0.00  0.00    +0.280 C 
ENDBRANCH  33  35
ENDBRANCH  32  33
ENDBRANCH   6  31
BRANCH  13  37
ATOM     37  O   LIG A   1      -8.195   2.716 127.986  0.00  0.00    -0.391 OA
ATOM     38  H   LIG A   1      -8.394   3.657 128.191  0.00  0.00    +0.210 HD
ENDBRANCH  13  37
TORSDOF 5
ENDMDL
MODEL 6
REMARK VINA RESULT:      -8.3      2.607      5.921
REMARK  Name = NuBBE_1334
REMARK  10 active torsions:
REMARK  status: ('A' for Active; 'I' for Inactive)
REMARK    1  A    between atoms: C_1  and  C_2
REMARK    2  A    between atoms: C_2  and  C_3
REMARK    3  A    between atoms: C_6  and  C_7
REMARK    4  A    between atoms: C_8  and  C_9
REMARK    5  A    between atoms: C_9  and  O_10
REMARK    6  A    between atoms: O_10  and  C_11
REMARK    7  A    between atoms: C_16  and  C_17
REMARK    8  A    between atoms: C_19  and  O_21
REMARK    9  A    between atoms: C_23  and  C_24
REMARK   10  A    between atoms: C_31  and  C_33
REMARK                            x       y       z     vdW  Elec       q    Type
REMARK                         _______ _______ _______ _____ _____    ______ ____
ROOT
ATOM      1  C   LIG A   1      -3.501  -1.745 130.484  0.00  0.00    +0.056 C 
ATOM      2  C   LIG A   1      -4.661  -0.987 131.125  0.00  0.00    +0.113 C 
ATOM      3  C   LIG A   1      -4.759  -1.391 132.604  0.00  0.00    +0.056 C 
ATOM      4  O   LIG A   1      -4.324   0.410 131.096  0.00  0.00    -0.458 OA
ATOM      5  C   LIG A   1      -5.052   1.084 130.165  0.00  0.00    +0.318 C 
ATOM      6  C   LIG A   1      -6.118   0.188 129.531  0.00  0.00    +0.099 C 
ATOM      7  C   LIG A   1      -6.038  -1.057 130.445  0.00  0.00    +0.060 C 
ATOM      8  C   LIG A   1      -6.515  -2.356 129.803  0.00  0.00    +0.083 C 
ATOM      9  C   LIG A   1      -7.150  -2.088 128.446  0.00  0.00    +0.143 C 
ATOM     10  C   LIG A   1      -6.252  -1.447 127.378  0.00  0.00    +0.065 C 
ATOM     11  C   LIG A   1      -5.079  -2.454 127.140  0.00  0.00    +0.022 C 
ATOM     12  C   LIG A   1      -5.647  -0.130 128.031  0.00  0.00    +0.055 C 
ATOM     13  C   LIG A   1      -5.450   1.089 127.079  0.00  0.00    +0.121 C 
ATOM     14  C   LIG A   1      -5.849   0.873 125.630  0.00  0.00    +0.045 C 
ATOM     15  C   LIG A   1      -7.200   0.157 125.450  0.00  0.00    +0.044 C 
ATOM     16  C   LIG A   1      -8.381   0.821 126.185  0.00  0.00    +0.018 C 
ATOM     17  C   LIG A   1      -6.997  -1.249 126.006  0.00  0.00    +0.129 C 
ATOM     18  O   LIG A   1      -6.496  -2.162 124.991  0.00  0.00    -0.351 OA
ATOM     19  C   LIG A   1      -7.862  -2.331 125.367  0.00  0.00    +0.260 C 
ATOM     20  C   LIG A   1      -8.832  -1.995 124.297  0.00  0.00    +0.340 C 
ATOM     21  O   LIG A   1      -8.711  -0.782 123.691  0.00  0.00    -0.454 OA
ATOM     22  C   LIG A   1      -7.548   0.059 123.913  0.00  0.00    +0.218 C 
ATOM     23  O   LIG A   1      -9.724  -2.784 123.999  0.00  0.00    -0.248 OA
ATOM     24  O   LIG A   1      -8.332  -2.360 128.246  0.00  0.00    -0.297 OA
ATOM     25  O   LIG A   1      -4.821   2.244 129.850  0.00  0.00    -0.250 OA
ENDROOT
BRANCH  22  26
ATOM     26  C   LIG A   1      -7.781   1.396 123.246  0.00  0.00    +0.031 A 
ATOM     27  C   LIG A   1      -8.983   2.060 123.090  0.00  0.00    +0.202 A 
ATOM     28  O   LIG A   1      -8.816   3.232 122.427  0.00  0.00    -0.471 OA
ATOM     29  C   LIG A   1      -7.490   3.353 122.173  0.00  0.00    +0.195 A 
ATOM     30  C   LIG A   1      -6.808   2.266 122.665  0.00  0.00    +0.048 A 
ENDBRANCH  22  26
BRANCH   6  31
ATOM     31  C   LIG A   1      -7.460   0.912 129.679  0.00  0.00    -0.001 C 
ATOM     32  C   LIG A   1      -8.042   1.434 130.778  0.00  0.00    +0.088 C 
BRANCH  32  33
ATOM     33  C   LIG A   1      -9.309   2.202 130.753  0.00  0.00    +0.331 C 
ATOM     34  O   LIG A   1      -9.653   2.853 129.780  0.00  0.00    -0.246 OA
BRANCH  33  35
ATOM     35  O   LIG A   1      -9.974   2.078 131.923  0.00  0.00    -0.465 OA
ATOM     36  C   LIG A   1      -9.351   2.737 133.021  0.00  0.00    +0.280 C 
ENDBRANCH  33  35
ENDBRANCH  32  33
ENDBRANCH   6  31
BRANCH  13  37
ATOM     37  O   LIG A   1      -6.092   2.277 127.510  0.00  0.00    -0.391 OA
ATOM     38  H   LIG A   1      -6.026   2.327 128.490  0.00  0.00    +0.210 HD
ENDBRANCH  13  37
TORSDOF 5
ENDMDL
MODEL 7
REMARK VINA RESULT:      -8.3      4.139      7.280
REMARK  Name = NuBBE_1334
REMARK  10 active torsions:
REMARK  status: ('A' for Active; 'I' for Inactive)
REMARK    1  A    between atoms: C_1  and  C_2
REMARK    2  A    between atoms: C_2  and  C_3
REMARK    3  A    between atoms: C_6  and  C_7
REMARK    4  A    between atoms: C_8  and  C_9
REMARK    5  A    between atoms: C_9  and  O_10
REMARK    6  A    between atoms: O_10  and  C_11
REMARK    7  A    between atoms: C_16  and  C_17
REMARK    8  A    between atoms: C_19  and  O_21
REMARK    9  A    between atoms: C_23  and  C_24
REMARK   10  A    between atoms: C_31  and  C_33
REMARK                            x       y       z     vdW  Elec       q    Type
REMARK                         _______ _______ _______ _____ _____    ______ ____
ROOT
ATOM      1  C   LIG A   1      -5.664  -0.494 134.274  0.00  0.00    +0.056 C 
ATOM      2  C   LIG A   1      -5.954  -0.903 132.832  0.00  0.00    +0.113 C 
ATOM      3  C   LIG A   1      -5.059  -2.096 132.467  0.00  0.00    +0.056 C 
ATOM      4  O   LIG A   1      -7.312  -1.372 132.788  0.00  0.00    -0.458 OA
ATOM      5  C   LIG A   1      -8.133  -0.478 132.174  0.00  0.00    +0.318 C 
ATOM      6  C   LIG A   1      -7.345   0.691 131.580  0.00  0.00    +0.099 C 
ATOM      7  C   LIG A   1      -5.894   0.182 131.745  0.00  0.00    +0.060 C 
ATOM      8  C   LIG A   1      -4.832   1.276 131.805  0.00  0.00    +0.083 C 
ATOM      9  C   LIG A   1      -5.439   2.637 131.493  0.00  0.00    +0.143 C 
ATOM     10  C   LIG A   1      -6.545   3.132 132.436  0.00  0.00    +0.065 C 
ATOM     11  C   LIG A   1      -5.890   3.241 133.851  0.00  0.00    +0.022 C 
ATOM     12  C   LIG A   1      -7.640   1.981 132.486  0.00  0.00    +0.055 C 
ATOM     13  C   LIG A   1      -9.126   2.441 132.596  0.00  0.00    +0.121 C 
ATOM     14  C   LIG A   1      -9.356   3.941 132.654  0.00  0.00    +0.045 C 
ATOM     15  C   LIG A   1      -8.531   4.743 131.629  0.00  0.00    +0.044 C 
ATOM     16  C   LIG A   1      -8.699   4.282 130.168  0.00  0.00    +0.018 C 
ATOM     17  C   LIG A   1      -7.075   4.561 132.043  0.00  0.00    +0.129 C 
ATOM     18  O   LIG A   1      -6.659   5.566 133.009  0.00  0.00    -0.351 OA
ATOM     19  C   LIG A   1      -6.148   5.719 131.685  0.00  0.00    +0.260 C 
ATOM     20  C   LIG A   1      -6.665   6.911 130.970  0.00  0.00    +0.340 C 
ATOM     21  O   LIG A   1      -8.014   7.086 130.922  0.00  0.00    -0.454 OA
ATOM     22  C   LIG A   1      -8.908   6.273 131.727  0.00  0.00    +0.218 C 
ATOM     23  O   LIG A   1      -5.889   7.690 130.423  0.00  0.00    -0.248 OA
ATOM     24  O   LIG A   1      -5.060   3.279 130.515  0.00  0.00    -0.297 OA
ATOM     25  O   LIG A   1      -9.353  -0.587 132.167  0.00  0.00    -0.250 OA
ENDROOT
BRANCH  22  26
ATOM     26  C   LIG A   1     -10.335   6.584 131.333  0.00  0.00    +0.031 A 
ATOM     27  C   LIG A   1     -11.472   6.430 132.104  0.00  0.00    +0.202 A 
ATOM     28  O   LIG A   1     -12.584   6.796 131.419  0.00  0.00    -0.471 OA
ATOM     29  C   LIG A   1     -12.172   7.222 130.199  0.00  0.00    +0.195 A 
ATOM     30  C   LIG A   1     -10.804   7.128 130.098  0.00  0.00    +0.048 A 
ENDBRANCH  22  26
BRANCH   6  31
ATOM     31  C   LIG A   1      -7.742   0.797 130.104  0.00  0.00    -0.001 C 
ATOM     32  C   LIG A   1      -7.312   0.087 129.041  0.00  0.00    +0.088 C 
BRANCH  32  33
ATOM     33  C   LIG A   1      -7.864   0.233 127.674  0.00  0.00    +0.331 C 
ATOM     34  O   LIG A   1      -7.695  -0.616 126.813  0.00  0.00    -0.246 OA
BRANCH  33  35
ATOM     35  O   LIG A   1      -8.534   1.399 127.544  0.00  0.00    -0.465 OA
ATOM     36  C   LIG A   1      -7.913   2.335 126.669  0.00  0.00    +0.280 C 
ENDBRANCH  33  35
ENDBRANCH  32  33
ENDBRANCH   6  31
BRANCH  13  37
ATOM     37  O   LIG A   1      -9.972   1.934 131.578  0.00  0.00    -0.391 OA
ATOM     38  H   LIG A   1     -10.828   1.676 131.986  0.00  0.00    +0.210 HD
ENDBRANCH  13  37
TORSDOF 5
ENDMDL
MODEL 8
REMARK VINA RESULT:      -8.1      2.271      4.781
REMARK  Name = NuBBE_1334
REMARK  10 active torsions:
REMARK  status: ('A' for Active; 'I' for Inactive)
REMARK    1  A    between atoms: C_1  and  C_2
REMARK    2  A    between atoms: C_2  and  C_3
REMARK    3  A    between atoms: C_6  and  C_7
REMARK    4  A    between atoms: C_8  and  C_9
REMARK    5  A    between atoms: C_9  and  O_10
REMARK    6  A    between atoms: O_10  and  C_11
REMARK    7  A    between atoms: C_16  and  C_17
REMARK    8  A    between atoms: C_19  and  O_21
REMARK    9  A    between atoms: C_23  and  C_24
REMARK   10  A    between atoms: C_31  and  C_33
REMARK                            x       y       z     vdW  Elec       q    Type
REMARK                         _______ _______ _______ _____ _____    ______ ____
ROOT
ATOM      1  C   LIG A   1      -4.020  -3.950 129.617  0.00  0.00    +0.056 C 
ATOM      2  C   LIG A   1      -5.040  -3.397 130.610  0.00  0.00    +0.113 C 
ATOM      3  C   LIG A   1      -5.323  -4.466 131.675  0.00  0.00    +0.056 C 
ATOM      4  O   LIG A   1      -4.418  -2.291 131.285  0.00  0.00    -0.458 OA
ATOM      5  C   LIG A   1      -4.923  -1.098 130.866  0.00  0.00    +0.318 C 
ATOM      6  C   LIG A   1      -6.105  -1.294 129.913  0.00  0.00    +0.099 C 
ATOM      7  C   LIG A   1      -6.349  -2.814 130.055  0.00  0.00    +0.060 C 
ATOM      8  C   LIG A   1      -7.040  -3.467 128.862  0.00  0.00    +0.083 C 
ATOM      9  C   LIG A   1      -7.508  -2.417 127.866  0.00  0.00    +0.143 C 
ATOM     10  C   LIG A   1      -6.423  -1.531 127.236  0.00  0.00    +0.065 C 
ATOM     11  C   LIG A   1      -5.472  -2.499 126.461  0.00  0.00    +0.022 C 
ATOM     12  C   LIG A   1      -5.606  -0.896 128.442  0.00  0.00    +0.055 C 
ATOM     13  C   LIG A   1      -5.094   0.563 128.241  0.00  0.00    +0.121 C 
ATOM     14  C   LIG A   1      -5.426   1.207 126.906  0.00  0.00    +0.045 C 
ATOM     15  C   LIG A   1      -6.880   0.992 126.450  0.00  0.00    +0.044 C 
ATOM     16  C   LIG A   1      -7.946   1.423 127.476  0.00  0.00    +0.018 C 
ATOM     17  C   LIG A   1      -7.013  -0.507 126.197  0.00  0.00    +0.129 C 
ATOM     18  O   LIG A   1      -6.643  -0.858 124.834  0.00  0.00    -0.351 OA
ATOM     19  C   LIG A   1      -8.037  -0.898 125.135  0.00  0.00    +0.260 C 
ATOM     20  C   LIG A   1      -8.838   0.135 124.435  0.00  0.00    +0.340 C 
ATOM     21  O   LIG A   1      -8.426   1.429 124.531  0.00  0.00    -0.454 OA
ATOM     22  C   LIG A   1      -7.132   1.768 125.098  0.00  0.00    +0.218 C 
ATOM     23  O   LIG A   1      -9.851  -0.179 123.818  0.00  0.00    -0.248 OA
ATOM     24  O   LIG A   1      -8.704  -2.288 127.612  0.00  0.00    -0.297 OA
ATOM     25  O   LIG A   1      -4.434  -0.020 131.179  0.00  0.00    -0.250 OA
ENDROOT
BRANCH  22  26
ATOM     26  C   LIG A   1      -7.034   3.272 125.221  0.00  0.00    +0.031 A 
ATOM     27  C   LIG A   1      -8.020   4.147 125.639  0.00  0.00    +0.202 A 
ATOM     28  O   LIG A   1      -7.582   5.430 125.611  0.00  0.00    -0.471 OA
ATOM     29  C   LIG A   1      -6.291   5.396 125.200  0.00  0.00    +0.195 A 
ATOM     30  C   LIG A   1      -5.899   4.100 124.963  0.00  0.00    +0.048 A 
ENDBRANCH  22  26
BRANCH   6  31
ATOM     31  C   LIG A   1      -7.274  -0.478 130.475  0.00  0.00    -0.001 C 
ATOM     32  C   LIG A   1      -7.614  -0.227 131.755  0.00  0.00    +0.088 C 
BRANCH  32  33
ATOM     33  C   LIG A   1      -8.725   0.670 132.152  0.00  0.00    +0.331 C 
ATOM     34  O   LIG A   1      -9.846   0.561 131.682  0.00  0.00    -0.246 OA
BRANCH  33  35
ATOM     35  O   LIG A   1      -8.311   1.584 133.057  0.00  0.00    -0.465 OA
ATOM     36  C   LIG A   1      -9.096   2.772 133.090  0.00  0.00    +0.280 C 
ENDBRANCH  33  35
ENDBRANCH  32  33
ENDBRANCH   6  31
BRANCH  13  37
ATOM     37  O   LIG A   1      -5.503   1.471 129.249  0.00  0.00    -0.391 OA
ATOM     38  H   LIG A   1      -6.485   1.462 129.295  0.00  0.00    +0.210 HD
ENDBRANCH  13  37
TORSDOF 5
ENDMDL
MODEL 9
REMARK VINA RESULT:      -8.1      2.796      7.689
REMARK  Name = NuBBE_1334
REMARK  10 active torsions:
REMARK  status: ('A' for Active; 'I' for Inactive)
REMARK    1  A    between atoms: C_1  and  C_2
REMARK    2  A    between atoms: C_2  and  C_3
REMARK    3  A    between atoms: C_6  and  C_7
REMARK    4  A    between atoms: C_8  and  C_9
REMARK    5  A    between atoms: C_9  and  O_10
REMARK    6  A    between atoms: O_10  and  C_11
REMARK    7  A    between atoms: C_16  and  C_17
REMARK    8  A    between atoms: C_19  and  O_21
REMARK    9  A    between atoms: C_23  and  C_24
REMARK   10  A    between atoms: C_31  and  C_33
REMARK                            x       y       z     vdW  Elec       q    Type
REMARK                         _______ _______ _______ _____ _____    ______ ____
ROOT
ATOM      1  C   LIG A   1      -2.543   5.582 130.218  0.00  0.00    +0.056 C 
ATOM      2  C   LIG A   1      -3.240   5.672 128.863  0.00  0.00    +0.113 C 
ATOM      3  C   LIG A   1      -3.070   7.095 128.312  0.00  0.00    +0.056 C 
ATOM      4  O   LIG A   1      -2.542   4.791 127.966  0.00  0.00    -0.458 OA
ATOM      5  C   LIG A   1      -3.262   3.667 127.703  0.00  0.00    +0.318 C 
ATOM      6  C   LIG A   1      -4.661   3.741 128.317  0.00  0.00    +0.099 C 
ATOM      7  C   LIG A   1      -4.707   5.219 128.770  0.00  0.00    +0.060 C 
ATOM      8  C   LIG A   1      -5.677   5.512 129.910  0.00  0.00    +0.083 C 
ATOM      9  C   LIG A   1      -6.534   4.292 130.218  0.00  0.00    +0.143 C 
ATOM     10  C   LIG A   1      -5.792   3.024 130.669  0.00  0.00    +0.065 C 
ATOM     11  C   LIG A   1      -5.052   3.405 131.992  0.00  0.00    +0.022 C 
ATOM     12  C   LIG A   1      -4.696   2.726 129.557  0.00  0.00    +0.055 C 
ATOM     13  C   LIG A   1      -4.412   1.224 129.249  0.00  0.00    +0.121 C 
ATOM     14  C   LIG A   1      -5.210   0.216 130.058  0.00  0.00    +0.045 C 
ATOM     15  C   LIG A   1      -6.707   0.552 130.179  0.00  0.00    +0.044 C 
ATOM     16  C   LIG A   1      -7.426   0.774 128.833  0.00  0.00    +0.018 C 
ATOM     17  C   LIG A   1      -6.775   1.839 130.995  0.00  0.00    +0.129 C 
ATOM     18  O   LIG A   1      -6.826   1.568 132.424  0.00  0.00    -0.351 OA
ATOM     19  C   LIG A   1      -8.042   2.015 131.826  0.00  0.00    +0.260 C 
ATOM     20  C   LIG A   1      -9.116   0.993 131.799  0.00  0.00    +0.340 C 
ATOM     21  O   LIG A   1      -8.816  -0.227 131.276  0.00  0.00    -0.454 OA
ATOM     22  C   LIG A   1      -7.447  -0.599 130.967  0.00  0.00    +0.218 C 
ATOM     23  O   LIG A   1     -10.240   1.264 132.213  0.00  0.00    -0.248 OA
ATOM     24  O   LIG A   1      -7.755   4.337 130.083  0.00  0.00    -0.297 OA
ATOM     25  O   LIG A   1      -2.801   2.706 127.101  0.00  0.00    -0.250 OA
ENDROOT
BRANCH  22  26
ATOM     26  C   LIG A   1      -7.454  -1.932 130.252  0.00  0.00    +0.031 A 
ATOM     27  C   LIG A   1      -6.628  -3.015 130.486  0.00  0.00    +0.202 A 
ATOM     28  O   LIG A   1      -6.910  -4.039 129.642  0.00  0.00    -0.471 OA
ATOM     29  C   LIG A   1      -7.948  -3.638 128.869  0.00  0.00    +0.195 A 
ATOM     30  C   LIG A   1      -8.331  -2.362 129.210  0.00  0.00    +0.048 A 
ENDBRANCH  22  26
BRANCH   6  31
ATOM     31  C   LIG A   1      -5.661   3.465 127.188  0.00  0.00    -0.001 C 
ATOM     32  C   LIG A   1      -6.444   4.321 126.501  0.00  0.00    +0.088 C 
BRANCH  32  33
ATOM     33  C   LIG A   1      -7.297   3.920 125.357  0.00  0.00    +0.331 C 
ATOM     34  O   LIG A   1      -8.486   4.192 125.309  0.00  0.00    -0.246 OA
BRANCH  33  35
ATOM     35  O   LIG A   1      -6.584   3.234 124.437  0.00  0.00    -0.465 OA
ATOM     36  C   LIG A   1      -5.804   4.054 123.572  0.00  0.00    +0.280 C 
ENDBRANCH  33  35
ENDBRANCH  32  33
ENDBRANCH   6  31
BRANCH  13  37
ATOM     37  O   LIG A   1      -4.561   0.869 127.885  0.00  0.00    -0.391 OA
ATOM     38  H   LIG A   1      -5.277   1.419 127.498  0.00  0.00    +0.210 HD
ENDBRANCH  13  37
TORSDOF 5
ENDMDL
