MODEL 1
REMARK VINA RESULT:      -6.3      0.000      0.000
REMARK  Name = NuBBE_936
REMARK  2 active torsions:
REMARK  status: ('A' for Active; 'I' for Inactive)
REMARK    1  A    between atoms: O_1  and  C_2
REMARK    2  A    between atoms: O_1  and  C_3
REMARK                            x       y       z     vdW  Elec       q    Type
REMARK                         _______ _______ _______ _____ _____    ______ ____
ROOT
ATOM      1  C   LIG A   1     -11.639   6.662 130.614  0.00  0.00    +0.141 A 
ATOM      2  C   LIG A   1     -11.778   6.827 129.228  0.00  0.00    +0.082 A 
ATOM      3  C   LIG A   1     -10.610   6.797 128.477  0.00  0.00    +0.231 A 
ATOM      4  N   LIG A   1      -9.360   6.617 128.926  0.00  0.00    -0.212 NA
ATOM      5  C   LIG A   1      -9.260   6.419 130.247  0.00  0.00    +0.078 A 
ATOM      6  C   LIG A   1     -10.354   6.419 131.143  0.00  0.00    +0.043 A 
ATOM      7  C   LIG A   1     -10.129   6.183 132.518  0.00  0.00    +0.013 A 
ATOM      8  C   LIG A   1      -8.843   5.960 133.005  0.00  0.00    +0.001 A 
ATOM      9  C   LIG A   1      -7.771   5.968 132.125  0.00  0.00    +0.002 A 
ATOM     10  C   LIG A   1      -7.991   6.196 130.763  0.00  0.00    +0.028 A 
ATOM     11  O   LIG A   1     -10.905   6.982 127.159  0.00  0.00    -0.445 OA
ATOM     12  C   LIG A   1     -12.254   7.114 127.063  0.00  0.00    +0.198 A 
ATOM     13  C   LIG A   1     -12.838   7.024 128.305  0.00  0.00    +0.055 A 
ENDROOT
BRANCH   1  14
ATOM     14  O   LIG A   1     -12.744   6.650 131.442  0.00  0.00    -0.494 OA
ATOM     15  C   LIG A   1     -13.145   7.989 131.739  0.00  0.00    +0.277 C 
ENDBRANCH   1  14
TORSDOF 1
ENDMDL
MODEL 2
REMARK VINA RESULT:      -6.2      7.769      9.659
REMARK  Name = NuBBE_936
REMARK  2 active torsions:
REMARK  status: ('A' for Active; 'I' for Inactive)
REMARK    1  A    between atoms: O_1  and  C_2
REMARK    2  A    between atoms: O_1  and  C_3
REMARK                            x       y       z     vdW  Elec       q    Type
REMARK                         _______ _______ _______ _____ _____    ______ ____
ROOT
ATOM      1  C   LIG A   1      -6.687   3.132 123.625  0.00  0.00    +0.141 A 
ATOM      2  C   LIG A   1      -7.893   2.508 123.977  0.00  0.00    +0.082 A 
ATOM      3  C   LIG A   1      -8.883   2.471 123.002  0.00  0.00    +0.231 A 
ATOM      4  N   LIG A   1      -8.812   2.955 121.754  0.00  0.00    -0.212 NA
ATOM      5  C   LIG A   1      -7.636   3.506 121.430  0.00  0.00    +0.078 A 
ATOM      6  C   LIG A   1      -6.533   3.618 122.310  0.00  0.00    +0.043 A 
ATOM      7  C   LIG A   1      -5.333   4.206 121.850  0.00  0.00    +0.013 A 
ATOM      8  C   LIG A   1      -5.224   4.686 120.548  0.00  0.00    +0.001 A 
ATOM      9  C   LIG A   1      -6.309   4.583 119.690  0.00  0.00    +0.002 A 
ATOM     10  C   LIG A   1      -7.496   3.996 120.139  0.00  0.00    +0.028 A 
ATOM     11  O   LIG A   1      -9.992   1.849 123.496  0.00  0.00    -0.445 OA
ATOM     12  C   LIG A   1      -9.710   1.476 124.771  0.00  0.00    +0.198 A 
ATOM     13  C   LIG A   1      -8.433   1.855 125.115  0.00  0.00    +0.055 A 
ENDROOT
BRANCH   1  14
ATOM     14  O   LIG A   1      -5.635   3.196 124.515  0.00  0.00    -0.494 OA
ATOM     15  C   LIG A   1      -5.794   4.325 125.377  0.00  0.00    +0.277 C 
ENDBRANCH   1  14
TORSDOF 1
ENDMDL
MODEL 3
REMARK VINA RESULT:      -6.2      1.894      4.464
REMARK  Name = NuBBE_936
REMARK  2 active torsions:
REMARK  status: ('A' for Active; 'I' for Inactive)
REMARK    1  A    between atoms: O_1  and  C_2
REMARK    2  A    between atoms: O_1  and  C_3
REMARK                            x       y       z     vdW  Elec       q    Type
REMARK                         _______ _______ _______ _____ _____    ______ ____
ROOT
ATOM      1  C   LIG A   1     -10.587   5.746 130.489  0.00  0.00    +0.141 A 
ATOM      2  C   LIG A   1      -9.280   6.140 130.812  0.00  0.00    +0.082 A 
ATOM      3  C   LIG A   1      -8.799   7.281 130.181  0.00  0.00    +0.231 A 
ATOM      4  N   LIG A   1      -9.449   8.058 129.303  0.00  0.00    -0.212 NA
ATOM      5  C   LIG A   1     -10.709   7.684 129.046  0.00  0.00    +0.078 A 
ATOM      6  C   LIG A   1     -11.340   6.550 129.609  0.00  0.00    +0.043 A 
ATOM      7  C   LIG A   1     -12.682   6.263 129.274  0.00  0.00    +0.013 A 
ATOM      8  C   LIG A   1     -13.390   7.074 128.391  0.00  0.00    +0.001 A 
ATOM      9  C   LIG A   1     -12.766   8.180 127.833  0.00  0.00    +0.002 A 
ATOM     10  C   LIG A   1     -11.440   8.471 128.166  0.00  0.00    +0.028 A 
ATOM     11  O   LIG A   1      -7.520   7.526 130.585  0.00  0.00    -0.445 OA
ATOM     12  C   LIG A   1      -7.188   6.559 131.481  0.00  0.00    +0.198 A 
ATOM     13  C   LIG A   1      -8.235   5.685 131.657  0.00  0.00    +0.055 A 
ENDROOT
BRANCH   1  14
ATOM     14  O   LIG A   1     -11.163   4.641 131.084  0.00  0.00    -0.494 OA
ATOM     15  C   LIG A   1     -10.673   3.447 130.471  0.00  0.00    +0.277 C 
ENDBRANCH   1  14
TORSDOF 1
ENDMDL
MODEL 4
REMARK VINA RESULT:      -5.9      1.863      3.920
REMARK  Name = NuBBE_936
REMARK  2 active torsions:
REMARK  status: ('A' for Active; 'I' for Inactive)
REMARK    1  A    between atoms: O_1  and  C_2
REMARK    2  A    between atoms: O_1  and  C_3
REMARK                            x       y       z     vdW  Elec       q    Type
REMARK                         _______ _______ _______ _____ _____    ______ ____
ROOT
ATOM      1  C   LIG A   1     -10.505   5.841 130.474  0.00  0.00    +0.141 A 
ATOM      2  C   LIG A   1      -9.510   5.178 129.741  0.00  0.00    +0.082 A 
ATOM      3  C   LIG A   1      -9.306   5.609 128.436  0.00  0.00    +0.231 A 
ATOM      4  N   LIG A   1      -9.948   6.598 127.798  0.00  0.00    -0.212 NA
ATOM      5  C   LIG A   1     -10.862   7.242 128.534  0.00  0.00    +0.078 A 
ATOM      6  C   LIG A   1     -11.182   6.923 129.875  0.00  0.00    +0.043 A 
ATOM      7  C   LIG A   1     -12.156   7.686 130.558  0.00  0.00    +0.013 A 
ATOM      8  C   LIG A   1     -12.812   8.740 129.928  0.00  0.00    +0.001 A 
ATOM      9  C   LIG A   1     -12.503   9.045 128.611  0.00  0.00    +0.002 A 
ATOM     10  C   LIG A   1     -11.535   8.297 127.933  0.00  0.00    +0.028 A 
ATOM     11  O   LIG A   1      -8.323   4.865 127.854  0.00  0.00    -0.445 OA
ATOM     12  C   LIG A   1      -7.888   3.974 128.783  0.00  0.00    +0.198 A 
ATOM     13  C   LIG A   1      -8.583   4.126 129.960  0.00  0.00    +0.055 A 
ENDROOT
BRANCH   1  14
ATOM     14  O   LIG A   1     -10.764   5.503 131.787  0.00  0.00    -0.494 OA
ATOM     15  C   LIG A   1      -9.721   5.992 132.632  0.00  0.00    +0.277 C 
ENDBRANCH   1  14
TORSDOF 1
ENDMDL
MODEL 5
REMARK VINA RESULT:      -5.8     10.023     11.385
REMARK  Name = NuBBE_936
REMARK  2 active torsions:
REMARK  status: ('A' for Active; 'I' for Inactive)
REMARK    1  A    between atoms: O_1  and  C_2
REMARK    2  A    between atoms: O_1  and  C_3
REMARK                            x       y       z     vdW  Elec       q    Type
REMARK                         _______ _______ _______ _____ _____    ______ ____
ROOT
ATOM      1  C   LIG A   1      -6.661  -2.057 126.572  0.00  0.00    +0.141 A 
ATOM      2  C   LIG A   1      -7.189  -2.528 127.783  0.00  0.00    +0.082 A 
ATOM      3  C   LIG A   1      -8.424  -3.162 127.720  0.00  0.00    +0.231 A 
ATOM      4  N   LIG A   1      -9.167  -3.385 126.627  0.00  0.00    -0.212 NA
ATOM      5  C   LIG A   1      -8.621  -2.963 125.480  0.00  0.00    +0.078 A 
ATOM      6  C   LIG A   1      -7.373  -2.304 125.380  0.00  0.00    +0.043 A 
ATOM      7  C   LIG A   1      -6.890  -1.918 124.110  0.00  0.00    +0.013 A 
ATOM      8  C   LIG A   1      -7.628  -2.168 122.955  0.00  0.00    +0.001 A 
ATOM      9  C   LIG A   1      -8.854  -2.807 123.057  0.00  0.00    +0.002 A 
ATOM     10  C   LIG A   1      -9.334  -3.196 124.312  0.00  0.00    +0.028 A 
ATOM     11  O   LIG A   1      -8.806  -3.550 128.970  0.00  0.00    -0.445 OA
ATOM     12  C   LIG A   1      -7.817  -3.182 129.826  0.00  0.00    +0.198 A 
ATOM     13  C   LIG A   1      -6.800  -2.553 129.148  0.00  0.00    +0.055 A 
ENDROOT
BRANCH   1  14
ATOM     14  O   LIG A   1      -5.429  -1.437 126.528  0.00  0.00    -0.494 OA
ATOM     15  C   LIG A   1      -5.566  -0.054 126.859  0.00  0.00    +0.277 C 
ENDBRANCH   1  14
TORSDOF 1
ENDMDL
MODEL 6
REMARK VINA RESULT:      -5.8     10.124     10.751
REMARK  Name = NuBBE_936
REMARK  2 active torsions:
REMARK  status: ('A' for Active; 'I' for Inactive)
REMARK    1  A    between atoms: O_1  and  C_2
REMARK    2  A    between atoms: O_1  and  C_3
REMARK                            x       y       z     vdW  Elec       q    Type
REMARK                         _______ _______ _______ _____ _____    ______ ____
ROOT
ATOM      1  C   LIG A   1      -6.743  -2.129 125.759  0.00  0.00    +0.141 A 
ATOM      2  C   LIG A   1      -7.692  -2.280 124.737  0.00  0.00    +0.082 A 
ATOM      3  C   LIG A   1      -8.896  -2.879 125.088  0.00  0.00    +0.231 A 
ATOM      4  N   LIG A   1      -9.259  -3.321 126.300  0.00  0.00    -0.212 NA
ATOM      5  C   LIG A   1      -8.352  -3.126 127.266  0.00  0.00    +0.078 A 
ATOM      6  C   LIG A   1      -7.085  -2.531 127.067  0.00  0.00    +0.043 A 
ATOM      7  C   LIG A   1      -6.214  -2.362 128.167  0.00  0.00    +0.013 A 
ATOM      8  C   LIG A   1      -6.582  -2.783 129.443  0.00  0.00    +0.001 A 
ATOM      9  C   LIG A   1      -7.822  -3.375 129.634  0.00  0.00    +0.002 A 
ATOM     10  C   LIG A   1      -8.688  -3.538 128.548  0.00  0.00    +0.028 A 
ATOM     11  O   LIG A   1      -9.704  -2.965 123.993  0.00  0.00    -0.445 OA
ATOM     12  C   LIG A   1      -9.030  -2.412 122.951  0.00  0.00    +0.198 A 
ATOM     13  C   LIG A   1      -7.791  -1.973 123.355  0.00  0.00    +0.055 A 
ENDROOT
BRANCH   1  14
ATOM     14  O   LIG A   1      -5.527  -1.522 125.515  0.00  0.00    -0.494 OA
ATOM     15  C   LIG A   1      -5.655  -0.105 125.646  0.00  0.00    +0.277 C 
ENDBRANCH   1  14
TORSDOF 1
ENDMDL
MODEL 7
REMARK VINA RESULT:      -5.7      9.084      9.920
REMARK  Name = NuBBE_936
REMARK  2 active torsions:
REMARK  status: ('A' for Active; 'I' for Inactive)
REMARK    1  A    between atoms: O_1  and  C_2
REMARK    2  A    between atoms: O_1  and  C_3
REMARK                            x       y       z     vdW  Elec       q    Type
REMARK                         _______ _______ _______ _____ _____    ______ ____
ROOT
ATOM      1  C   LIG A   1      -8.774  -1.592 125.100  0.00  0.00    +0.141 A 
ATOM      2  C   LIG A   1      -8.060  -0.428 124.781  0.00  0.00    +0.082 A 
ATOM      3  C   LIG A   1      -7.228   0.083 125.770  0.00  0.00    +0.231 A 
ATOM      4  N   LIG A   1      -7.021  -0.419 126.995  0.00  0.00    -0.212 NA
ATOM      5  C   LIG A   1      -7.681  -1.553 127.258  0.00  0.00    +0.078 A 
ATOM      6  C   LIG A   1      -8.562  -2.196 126.357  0.00  0.00    +0.043 A 
ATOM      7  C   LIG A   1      -9.193  -3.401 126.740  0.00  0.00    +0.013 A 
ATOM      8  C   LIG A   1      -8.968  -3.960 127.996  0.00  0.00    +0.001 A 
ATOM      9  C   LIG A   1      -8.110  -3.323 128.880  0.00  0.00    +0.002 A 
ATOM     10  C   LIG A   1      -7.480  -2.134 128.503  0.00  0.00    +0.028 A 
ATOM     11  O   LIG A   1      -6.616   1.214 125.317  0.00  0.00    -0.445 OA
ATOM     12  C   LIG A   1      -7.040   1.419 124.042  0.00  0.00    +0.198 A 
ATOM     13  C   LIG A   1      -7.926   0.437 123.664  0.00  0.00    +0.055 A 
ENDROOT
BRANCH   1  14
ATOM     14  O   LIG A   1      -9.607  -2.190 124.175  0.00  0.00    -0.494 OA
ATOM     15  C   LIG A   1      -8.833  -2.932 123.231  0.00  0.00    +0.277 C 
ENDBRANCH   1  14
TORSDOF 1
ENDMDL
MODEL 8
REMARK VINA RESULT:      -5.7      7.540      9.475
REMARK  Name = NuBBE_936
REMARK  2 active torsions:
REMARK  status: ('A' for Active; 'I' for Inactive)
REMARK    1  A    between atoms: O_1  and  C_2
REMARK    2  A    between atoms: O_1  and  C_3
REMARK                            x       y       z     vdW  Elec       q    Type
REMARK                         _______ _______ _______ _____ _____    ______ ____
ROOT
ATOM      1  C   LIG A   1      -7.877   3.019 123.310  0.00  0.00    +0.141 A 
ATOM      2  C   LIG A   1      -7.383   3.047 124.623  0.00  0.00    +0.082 A 
ATOM      3  C   LIG A   1      -6.100   3.551 124.795  0.00  0.00    +0.231 A 
ATOM      4  N   LIG A   1      -5.281   4.027 123.847  0.00  0.00    -0.212 NA
ATOM      5  C   LIG A   1      -5.793   4.029 122.610  0.00  0.00    +0.078 A 
ATOM      6  C   LIG A   1      -7.082   3.552 122.275  0.00  0.00    +0.043 A 
ATOM      7  C   LIG A   1      -7.522   3.619 120.934  0.00  0.00    +0.013 A 
ATOM      8  C   LIG A   1      -6.703   4.141 119.936  0.00  0.00    +0.001 A 
ATOM      9  C   LIG A   1      -5.436   4.601 120.266  0.00  0.00    +0.002 A 
ATOM     10  C   LIG A   1      -4.999   4.540 121.592  0.00  0.00    +0.028 A 
ATOM     11  O   LIG A   1      -5.759   3.500 126.114  0.00  0.00    -0.445 OA
ATOM     12  C   LIG A   1      -6.821   2.983 126.785  0.00  0.00    +0.198 A 
ATOM     13  C   LIG A   1      -7.845   2.689 125.916  0.00  0.00    +0.055 A 
ENDROOT
BRANCH   1  14
ATOM     14  O   LIG A   1      -9.151   2.561 123.041  0.00  0.00    -0.494 OA
ATOM     15  C   LIG A   1      -9.174   1.133 123.082  0.00  0.00    +0.277 C 
ENDBRANCH   1  14
TORSDOF 1
ENDMDL
MODEL 9
REMARK VINA RESULT:      -5.6      2.151      5.178
REMARK  Name = NuBBE_936
REMARK  2 active torsions:
REMARK  status: ('A' for Active; 'I' for Inactive)
REMARK    1  A    between atoms: O_1  and  C_2
REMARK    2  A    between atoms: O_1  and  C_3
REMARK                            x       y       z     vdW  Elec       q    Type
REMARK                         _______ _______ _______ _____ _____    ______ ____
ROOT
ATOM      1  C   LIG A   1      -9.017   5.982 130.301  0.00  0.00    +0.141 A 
ATOM      2  C   LIG A   1      -8.426   5.773 131.555  0.00  0.00    +0.082 A 
ATOM      3  C   LIG A   1      -9.217   6.031 132.668  0.00  0.00    +0.231 A 
ATOM      4  N   LIG A   1     -10.491   6.449 132.679  0.00  0.00    -0.212 NA
ATOM      5  C   LIG A   1     -11.044   6.599 131.469  0.00  0.00    +0.078 A 
ATOM      6  C   LIG A   1     -10.371   6.375 130.245  0.00  0.00    +0.043 A 
ATOM      7  C   LIG A   1     -11.064   6.551 129.026  0.00  0.00    +0.013 A 
ATOM      8  C   LIG A   1     -12.397   6.952 129.012  0.00  0.00    +0.001 A 
ATOM      9  C   LIG A   1     -13.053   7.179 130.213  0.00  0.00    +0.002 A 
ATOM     10  C   LIG A   1     -12.372   7.001 131.421  0.00  0.00    +0.028 A 
ATOM     11  O   LIG A   1      -8.504   5.794 133.805  0.00  0.00    -0.445 OA
ATOM     12  C   LIG A   1      -7.269   5.373 133.425  0.00  0.00    +0.198 A 
ATOM     13  C   LIG A   1      -7.170   5.339 132.054  0.00  0.00    +0.055 A 
ENDROOT
BRANCH   1  14
ATOM     14  O   LIG A   1      -8.321   5.728 129.136  0.00  0.00    -0.494 OA
ATOM     15  C   LIG A   1      -8.240   4.319 128.913  0.00  0.00    +0.277 C 
ENDBRANCH   1  14
TORSDOF 1
ENDMDL
