MODEL 1
REMARK VINA RESULT:      -7.0      0.000      0.000
REMARK  Name = NuBBE_2103
REMARK  11 active torsions:
REMARK  status: ('A' for Active; 'I' for Inactive)
REMARK    1  A    between atoms: O_1  and  C_2
REMARK    2  A    between atoms: O_1  and  C_3
REMARK    3  A    between atoms: C_4  and  C_21
REMARK    4  A    between atoms: C_6  and  C_20
REMARK    5  A    between atoms: C_8  and  C_11
REMARK    6  A    between atoms: C_9  and  O_10
REMARK    7  A    between atoms: C_11  and  C_12
REMARK    8  A    between atoms: C_15  and  O_18
REMARK    9  A    between atoms: O_18  and  C_19
REMARK   10  A    between atoms: C_25  and  O_27
REMARK   11  A    between atoms: O_27  and  C_28
REMARK                            x       y       z     vdW  Elec       q    Type
REMARK                         _______ _______ _______ _____ _____    ______ ____
ROOT
ATOM      1  C   LIG A   1      -7.894   3.726 131.208  0.00  0.00    +0.168 C 
ATOM      2  C   LIG A   1      -7.977   5.219 131.711  0.00  0.00    +0.065 C 
ATOM      3  C   LIG A   1      -6.485   5.741 131.653  0.00  0.00    +0.009 C 
ATOM      4  C   LIG A   1      -5.678   4.585 130.972  0.00  0.00    +0.028 C 
ATOM      5  C   LIG A   1      -6.426   3.343 131.495  0.00  0.00    +0.165 C 
ATOM      6  C   LIG A   1      -5.857   4.657 129.463  0.00  0.00    +0.032 C 
ATOM      7  C   LIG A   1      -6.957   4.205 128.830  0.00  0.00    +0.162 C 
ATOM      8  C   LIG A   1      -8.077   3.668 129.679  0.00  0.00    +0.232 C 
ATOM      9  O   LIG A   1      -9.095   3.188 129.180  0.00  0.00    -0.286 OA
ATOM     10  C   LIG A   1      -6.186   7.137 131.115  0.00  0.00    +0.009 C 
ENDROOT
BRANCH   2  11
ATOM     11  C   LIG A   1      -9.156   6.040 131.182  0.00  0.00    -0.034 A 
ATOM     12  C   LIG A   1     -10.379   5.999 131.887  0.00  0.00    +0.053 A 
ATOM     13  C   LIG A   1     -11.459   6.732 131.420  0.00  0.00    +0.170 A 
ATOM     14  C   LIG A   1     -11.386   7.515 130.291  0.00  0.00    +0.207 A 
ATOM     15  C   LIG A   1     -10.217   7.588 129.560  0.00  0.00    +0.166 A 
ATOM     16  C   LIG A   1      -9.117   6.822 130.005  0.00  0.00    +0.053 A 
ATOM     17  O   LIG A   1     -12.570   8.139 130.037  0.00  0.00    -0.449 OA
ATOM     18  C   LIG A   1     -13.412   7.593 131.065  0.00  0.00    +0.467 C 
ATOM     19  O   LIG A   1     -12.693   6.767 132.000  0.00  0.00    -0.453 OA
BRANCH  15  20
ATOM     20  O   LIG A   1      -9.987   8.324 128.429  0.00  0.00    -0.491 OA
ATOM     21  C   LIG A   1     -10.639   7.891 127.239  0.00  0.00    +0.277 C 
ENDBRANCH  15  20
ENDBRANCH   2  11
BRANCH   1  22
ATOM     22  O   LIG A   1      -8.771   2.904 131.994  0.00  0.00    -0.365 OA
ATOM     23  C   LIG A   1      -8.659   1.498 131.769  0.00  0.00    +0.195 C 
ENDBRANCH   1  22
BRANCH   5  24
ATOM     24  O   LIG A   1      -6.194   3.140 132.893  0.00  0.00    -0.388 OA
ATOM     25  H   LIG A   1      -7.065   2.979 133.305  0.00  0.00    +0.210 HD
ENDBRANCH   5  24
BRANCH   7  26
ATOM     26  O   LIG A   1      -7.032   4.337 127.444  0.00  0.00    -0.492 OA
ATOM     27  C   LIG A   1      -5.780   4.264 126.764  0.00  0.00    +0.277 C 
ENDBRANCH   7  26
BRANCH   4  28
ATOM     28  C   LIG A   1      -4.180   4.581 131.383  0.00  0.00    +0.040 C 
BRANCH  28  29
ATOM     29  C   LIG A   1      -3.214   4.831 130.248  0.00  0.00    -0.034 C 
ATOM     30  C   LIG A   1      -2.470   5.938 130.135  0.00  0.00    +0.004 C 
ENDBRANCH  28  29
ENDBRANCH   4  28
TORSDOF 7
ENDMDL
MODEL 2
REMARK VINA RESULT:      -7.0      5.595      8.182
REMARK  Name = NuBBE_2103
REMARK  11 active torsions:
REMARK  status: ('A' for Active; 'I' for Inactive)
REMARK    1  A    between atoms: O_1  and  C_2
REMARK    2  A    between atoms: O_1  and  C_3
REMARK    3  A    between atoms: C_4  and  C_21
REMARK    4  A    between atoms: C_6  and  C_20
REMARK    5  A    between atoms: C_8  and  C_11
REMARK    6  A    between atoms: C_9  and  O_10
REMARK    7  A    between atoms: C_11  and  C_12
REMARK    8  A    between atoms: C_15  and  O_18
REMARK    9  A    between atoms: O_18  and  C_19
REMARK   10  A    between atoms: C_25  and  O_27
REMARK   11  A    between atoms: O_27  and  C_28
REMARK                            x       y       z     vdW  Elec       q    Type
REMARK                         _______ _______ _______ _____ _____    ______ ____
ROOT
ATOM      1  C   LIG A   1      -8.669  -1.730 125.120  0.00  0.00    +0.168 C 
ATOM      2  C   LIG A   1      -7.513  -1.547 126.178  0.00  0.00    +0.065 C 
ATOM      3  C   LIG A   1      -6.179  -1.662 125.336  0.00  0.00    +0.009 C 
ATOM      4  C   LIG A   1      -6.648  -1.736 123.844  0.00  0.00    +0.028 C 
ATOM      5  C   LIG A   1      -7.975  -2.509 123.980  0.00  0.00    +0.165 C 
ATOM      6  C   LIG A   1      -6.955  -0.335 123.336  0.00  0.00    +0.032 C 
ATOM      7  C   LIG A   1      -8.100   0.317 123.619  0.00  0.00    +0.162 C 
ATOM      8  C   LIG A   1      -9.079  -0.364 124.538  0.00  0.00    +0.232 C 
ATOM      9  O   LIG A   1     -10.170   0.139 124.807  0.00  0.00    -0.286 OA
ATOM     10  C   LIG A   1      -5.025  -0.700 125.601  0.00  0.00    +0.009 C 
ENDROOT
BRANCH   2  11
ATOM     11  C   LIG A   1      -7.731  -0.452 127.226  0.00  0.00    -0.034 A 
ATOM     12  C   LIG A   1      -7.677  -0.802 128.593  0.00  0.00    +0.053 A 
ATOM     13  C   LIG A   1      -7.877   0.176 129.555  0.00  0.00    +0.170 A 
ATOM     14  C   LIG A   1      -8.120   1.491 129.231  0.00  0.00    +0.207 A 
ATOM     15  C   LIG A   1      -8.189   1.888 127.911  0.00  0.00    +0.166 A 
ATOM     16  C   LIG A   1      -8.019   0.898 126.918  0.00  0.00    +0.053 A 
ATOM     17  O   LIG A   1      -8.279   2.260 130.344  0.00  0.00    -0.449 OA
ATOM     18  C   LIG A   1      -8.205   1.277 131.389  0.00  0.00    +0.467 C 
ATOM     19  O   LIG A   1      -7.862  -0.035 130.903  0.00  0.00    -0.453 OA
BRANCH  15  20
ATOM     20  O   LIG A   1      -8.413   3.151 127.432  0.00  0.00    -0.491 OA
ATOM     21  C   LIG A   1      -7.265   3.964 127.207  0.00  0.00    +0.277 C 
ENDBRANCH  15  20
ENDBRANCH   2  11
BRANCH   1  22
ATOM     22  O   LIG A   1      -9.717  -2.531 125.685  0.00  0.00    -0.365 OA
ATOM     23  C   LIG A   1      -9.322  -3.403 126.744  0.00  0.00    +0.195 C 
ENDBRANCH   1  22
BRANCH   5  24
ATOM     24  O   LIG A   1      -7.752  -3.878 124.333  0.00  0.00    -0.388 OA
ATOM     25  H   LIG A   1      -8.585  -4.212 124.717  0.00  0.00    +0.210 HD
ENDBRANCH   5  24
BRANCH   7  26
ATOM     26  O   LIG A   1      -8.275   1.607 123.121  0.00  0.00    -0.492 OA
ATOM     27  C   LIG A   1      -7.404   2.590 123.678  0.00  0.00    +0.277 C 
ENDBRANCH   7  26
BRANCH   4  28
ATOM     28  C   LIG A   1      -5.631  -2.478 122.935  0.00  0.00    +0.040 C 
BRANCH  28  29
ATOM     29  C   LIG A   1      -4.578  -3.265 123.679  0.00  0.00    -0.034 C 
ATOM     30  C   LIG A   1      -4.427  -4.591 123.572  0.00  0.00    +0.004 C 
ENDBRANCH  28  29
ENDBRANCH   4  28
TORSDOF 7
ENDMDL
MODEL 3
REMARK VINA RESULT:      -7.0      6.855      9.122
REMARK  Name = NuBBE_2103
REMARK  11 active torsions:
REMARK  status: ('A' for Active; 'I' for Inactive)
REMARK    1  A    between atoms: O_1  and  C_2
REMARK    2  A    between atoms: O_1  and  C_3
REMARK    3  A    between atoms: C_4  and  C_21
REMARK    4  A    between atoms: C_6  and  C_20
REMARK    5  A    between atoms: C_8  and  C_11
REMARK    6  A    between atoms: C_9  and  O_10
REMARK    7  A    between atoms: C_11  and  C_12
REMARK    8  A    between atoms: C_15  and  O_18
REMARK    9  A    between atoms: O_18  and  C_19
REMARK   10  A    between atoms: C_25  and  O_27
REMARK   11  A    between atoms: O_27  and  C_28
REMARK                            x       y       z     vdW  Elec       q    Type
REMARK                         _______ _______ _______ _____ _____    ______ ____
ROOT
ATOM      1  C   LIG A   1      -8.782  -1.944 124.434  0.00  0.00    +0.168 C 
ATOM      2  C   LIG A   1      -8.943  -0.536 125.128  0.00  0.00    +0.065 C 
ATOM      3  C   LIG A   1      -8.532  -0.785 126.635  0.00  0.00    +0.009 C 
ATOM      4  C   LIG A   1      -8.007  -2.260 126.672  0.00  0.00    +0.028 C 
ATOM      5  C   LIG A   1      -8.909  -2.930 125.616  0.00  0.00    +0.165 C 
ATOM      6  C   LIG A   1      -6.569  -2.303 126.177  0.00  0.00    +0.032 C 
ATOM      7  C   LIG A   1      -6.238  -2.263 124.872  0.00  0.00    +0.162 C 
ATOM      8  C   LIG A   1      -7.355  -2.101 123.876  0.00  0.00    +0.232 C 
ATOM      9  O   LIG A   1      -7.145  -2.107 122.663  0.00  0.00    -0.286 OA
ATOM     10  C   LIG A   1      -7.654   0.228 127.363  0.00  0.00    +0.009 C 
ENDROOT
BRANCH   2  11
ATOM     11  C   LIG A   1      -8.440   0.668 124.327  0.00  0.00    -0.034 A 
ATOM     12  C   LIG A   1      -9.196   1.106 123.218  0.00  0.00    +0.053 A 
ATOM     13  C   LIG A   1      -8.752   2.191 122.477  0.00  0.00    +0.170 A 
ATOM     14  C   LIG A   1      -7.598   2.874 122.787  0.00  0.00    +0.207 A 
ATOM     15  C   LIG A   1      -6.818   2.485 123.858  0.00  0.00    +0.166 A 
ATOM     16  C   LIG A   1      -7.239   1.362 124.602  0.00  0.00    +0.053 A 
ATOM     17  O   LIG A   1      -7.375   3.901 121.920  0.00  0.00    -0.449 OA
ATOM     18  C   LIG A   1      -8.453   3.730 120.986  0.00  0.00    +0.467 C 
ATOM     19  O   LIG A   1      -9.382   2.703 121.381  0.00  0.00    -0.453 OA
BRANCH  15  20
ATOM     20  O   LIG A   1      -5.657   3.063 124.294  0.00  0.00    -0.491 OA
ATOM     21  C   LIG A   1      -5.732   3.827 125.494  0.00  0.00    +0.277 C 
ENDBRANCH  15  20
ENDBRANCH   2  11
BRANCH   1  22
ATOM     22  O   LIG A   1      -9.862  -2.153 123.512  0.00  0.00    -0.365 OA
ATOM     23  C   LIG A   1      -9.968  -3.473 122.980  0.00  0.00    +0.195 C 
ENDBRANCH   1  22
BRANCH   5  24
ATOM     24  O   LIG A   1     -10.261  -3.040 126.073  0.00  0.00    -0.388 OA
ATOM     25  H   LIG A   1     -10.538  -2.147 126.359  0.00  0.00    +0.210 HD
ENDBRANCH   5  24
BRANCH   7  26
ATOM     26  O   LIG A   1      -4.888  -2.287 124.524  0.00  0.00    -0.492 OA
ATOM     27  C   LIG A   1      -4.485  -3.422 123.759  0.00  0.00    +0.277 C 
ENDBRANCH   7  26
BRANCH   4  28
ATOM     28  C   LIG A   1      -8.164  -2.913 128.073  0.00  0.00    +0.040 C 
BRANCH  28  29
ATOM     29  C   LIG A   1      -6.907  -2.913 128.912  0.00  0.00    -0.034 C 
ATOM     30  C   LIG A   1      -6.652  -3.814 129.869  0.00  0.00    +0.004 C 
ENDBRANCH  28  29
ENDBRANCH   4  28
TORSDOF 7
ENDMDL
MODEL 4
REMARK VINA RESULT:      -6.8      5.590      8.362
REMARK  Name = NuBBE_2103
REMARK  11 active torsions:
REMARK  status: ('A' for Active; 'I' for Inactive)
REMARK    1  A    between atoms: O_1  and  C_2
REMARK    2  A    between atoms: O_1  and  C_3
REMARK    3  A    between atoms: C_4  and  C_21
REMARK    4  A    between atoms: C_6  and  C_20
REMARK    5  A    between atoms: C_8  and  C_11
REMARK    6  A    between atoms: C_9  and  O_10
REMARK    7  A    between atoms: C_11  and  C_12
REMARK    8  A    between atoms: C_15  and  O_18
REMARK    9  A    between atoms: O_18  and  C_19
REMARK   10  A    between atoms: C_25  and  O_27
REMARK   11  A    between atoms: O_27  and  C_28
REMARK                            x       y       z     vdW  Elec       q    Type
REMARK                         _______ _______ _______ _____ _____    ______ ____
ROOT
ATOM      1  C   LIG A   1      -8.682  -1.698 125.110  0.00  0.00    +0.168 C 
ATOM      2  C   LIG A   1      -7.519  -1.505 126.159  0.00  0.00    +0.065 C 
ATOM      3  C   LIG A   1      -6.191  -1.632 125.310  0.00  0.00    +0.009 C 
ATOM      4  C   LIG A   1      -6.670  -1.721 123.821  0.00  0.00    +0.028 C 
ATOM      5  C   LIG A   1      -7.997  -2.490 123.975  0.00  0.00    +0.165 C 
ATOM      6  C   LIG A   1      -6.978  -0.325 123.300  0.00  0.00    +0.032 C 
ATOM      7  C   LIG A   1      -8.120   0.332 123.584  0.00  0.00    +0.162 C 
ATOM      8  C   LIG A   1      -9.094  -0.337 124.516  0.00  0.00    +0.232 C 
ATOM      9  O   LIG A   1     -10.182   0.170 124.788  0.00  0.00    -0.286 OA
ATOM     10  C   LIG A   1      -5.033  -0.669 125.556  0.00  0.00    +0.009 C 
ENDROOT
BRANCH   2  11
ATOM     11  C   LIG A   1      -7.729  -0.399 127.196  0.00  0.00    -0.034 A 
ATOM     12  C   LIG A   1      -7.848   0.935 126.747  0.00  0.00    +0.053 A 
ATOM     13  C   LIG A   1      -8.033   1.951 127.673  0.00  0.00    +0.170 A 
ATOM     14  C   LIG A   1      -8.117   1.711 129.025  0.00  0.00    +0.207 A 
ATOM     15  C   LIG A   1      -8.001   0.427 129.519  0.00  0.00    +0.166 A 
ATOM     16  C   LIG A   1      -7.780  -0.615 128.592  0.00  0.00    +0.053 A 
ATOM     17  O   LIG A   1      -8.303   2.863 129.728  0.00  0.00    -0.449 OA
ATOM     18  C   LIG A   1      -8.233   3.851 128.688  0.00  0.00    +0.467 C 
ATOM     19  O   LIG A   1      -8.150   3.276 127.370  0.00  0.00    -0.453 OA
BRANCH  15  20
ATOM     20  O   LIG A   1      -8.071   0.029 130.827  0.00  0.00    -0.491 OA
ATOM     21  C   LIG A   1      -6.835  -0.147 131.511  0.00  0.00    +0.277 C 
ENDBRANCH  15  20
ENDBRANCH   2  11
BRANCH   1  22
ATOM     22  O   LIG A   1      -9.728  -2.491 125.691  0.00  0.00    -0.365 OA
ATOM     23  C   LIG A   1      -9.321  -3.375 126.735  0.00  0.00    +0.195 C 
ENDBRANCH   1  22
BRANCH   5  24
ATOM     24  O   LIG A   1      -7.774  -3.856 124.340  0.00  0.00    -0.388 OA
ATOM     25  H   LIG A   1      -8.434  -4.078 125.026  0.00  0.00    +0.210 HD
ENDBRANCH   5  24
BRANCH   7  26
ATOM     26  O   LIG A   1      -8.296   1.617 123.073  0.00  0.00    -0.492 OA
ATOM     27  C   LIG A   1      -7.271   2.547 123.419  0.00  0.00    +0.277 C 
ENDBRANCH   7  26
BRANCH   4  28
ATOM     28  C   LIG A   1      -5.660  -2.474 122.913  0.00  0.00    +0.040 C 
BRANCH  28  29
ATOM     29  C   LIG A   1      -4.596  -3.246 123.659  0.00  0.00    -0.034 C 
ATOM     30  C   LIG A   1      -4.419  -4.568 123.545  0.00  0.00    +0.004 C 
ENDBRANCH  28  29
ENDBRANCH   4  28
TORSDOF 7
ENDMDL
MODEL 5
REMARK VINA RESULT:      -6.5      2.555      6.477
REMARK  Name = NuBBE_2103
REMARK  11 active torsions:
REMARK  status: ('A' for Active; 'I' for Inactive)
REMARK    1  A    between atoms: O_1  and  C_2
REMARK    2  A    between atoms: O_1  and  C_3
REMARK    3  A    between atoms: C_4  and  C_21
REMARK    4  A    between atoms: C_6  and  C_20
REMARK    5  A    between atoms: C_8  and  C_11
REMARK    6  A    between atoms: C_9  and  O_10
REMARK    7  A    between atoms: C_11  and  C_12
REMARK    8  A    between atoms: C_15  and  O_18
REMARK    9  A    between atoms: O_18  and  C_19
REMARK   10  A    between atoms: C_25  and  O_27
REMARK   11  A    between atoms: O_27  and  C_28
REMARK                            x       y       z     vdW  Elec       q    Type
REMARK                         _______ _______ _______ _____ _____    ______ ____
ROOT
ATOM      1  C   LIG A   1      -4.381   6.288 131.641  0.00  0.00    +0.168 C 
ATOM      2  C   LIG A   1      -4.447   4.789 131.153  0.00  0.00    +0.065 C 
ATOM      3  C   LIG A   1      -5.539   4.116 132.078  0.00  0.00    +0.009 C 
ATOM      4  C   LIG A   1      -6.143   5.294 132.914  0.00  0.00    +0.028 C 
ATOM      5  C   LIG A   1      -4.911   6.205 133.090  0.00  0.00    +0.165 C 
ATOM      6  C   LIG A   1      -7.176   6.036 132.079  0.00  0.00    +0.032 C 
ATOM      7  C   LIG A   1      -6.848   6.934 131.129  0.00  0.00    +0.162 C 
ATOM      8  C   LIG A   1      -5.385   7.150 130.851  0.00  0.00    +0.232 C 
ATOM      9  O   LIG A   1      -4.998   7.987 130.036  0.00  0.00    -0.286 OA
ATOM     10  C   LIG A   1      -6.566   3.163 131.475  0.00  0.00    +0.009 C 
ENDROOT
BRANCH   2  11
ATOM     11  C   LIG A   1      -4.409   4.576 129.637  0.00  0.00    -0.034 A 
ATOM     12  C   LIG A   1      -5.632   4.494 128.935  0.00  0.00    +0.053 A 
ATOM     13  C   LIG A   1      -5.617   4.296 127.563  0.00  0.00    +0.170 A 
ATOM     14  C   LIG A   1      -4.448   4.185 126.846  0.00  0.00    +0.207 A 
ATOM     15  C   LIG A   1      -3.224   4.254 127.482  0.00  0.00    +0.166 A 
ATOM     16  C   LIG A   1      -3.223   4.423 128.884  0.00  0.00    +0.053 A 
ATOM     17  O   LIG A   1      -4.690   4.000 125.518  0.00  0.00    -0.449 OA
ATOM     18  C   LIG A   1      -6.123   3.912 125.495  0.00  0.00    +0.467 C 
ATOM     19  O   LIG A   1      -6.725   4.186 126.774  0.00  0.00    -0.453 OA
BRANCH  15  20
ATOM     20  O   LIG A   1      -1.984   4.171 126.910  0.00  0.00    -0.491 OA
ATOM     21  C   LIG A   1      -1.524   2.869 126.561  0.00  0.00    +0.277 C 
ENDBRANCH  15  20
ENDBRANCH   2  11
BRANCH   1  22
ATOM     22  O   LIG A   1      -3.017   6.733 131.650  0.00  0.00    -0.365 OA
ATOM     23  C   LIG A   1      -2.793   8.016 132.235  0.00  0.00    +0.195 C 
ENDBRANCH   1  22
BRANCH   5  24
ATOM     24  O   LIG A   1      -3.948   5.621 133.974  0.00  0.00    -0.388 OA
ATOM     25  H   LIG A   1      -4.399   4.894 134.446  0.00  0.00    +0.210 HD
ENDBRANCH   5  24
BRANCH   7  26
ATOM     26  O   LIG A   1      -7.872   7.543 130.405  0.00  0.00    -0.492 OA
ATOM     27  C   LIG A   1      -9.166   6.972 130.595  0.00  0.00    +0.277 C 
ENDBRANCH   7  26
BRANCH   4  28
ATOM     28  C   LIG A   1      -6.720   4.824 134.277  0.00  0.00    +0.040 C 
BRANCH  28  29
ATOM     29  C   LIG A   1      -8.229   4.836 134.360  0.00  0.00    -0.034 C 
ATOM     30  C   LIG A   1      -8.996   3.771 134.094  0.00  0.00    +0.004 C 
ENDBRANCH  28  29
ENDBRANCH   4  28
TORSDOF 7
ENDMDL
MODEL 6
REMARK VINA RESULT:      -6.5      4.505      7.886
REMARK  Name = NuBBE_2103
REMARK  11 active torsions:
REMARK  status: ('A' for Active; 'I' for Inactive)
REMARK    1  A    between atoms: O_1  and  C_2
REMARK    2  A    between atoms: O_1  and  C_3
REMARK    3  A    between atoms: C_4  and  C_21
REMARK    4  A    between atoms: C_6  and  C_20
REMARK    5  A    between atoms: C_8  and  C_11
REMARK    6  A    between atoms: C_9  and  O_10
REMARK    7  A    between atoms: C_11  and  C_12
REMARK    8  A    between atoms: C_15  and  O_18
REMARK    9  A    between atoms: O_18  and  C_19
REMARK   10  A    between atoms: C_25  and  O_27
REMARK   11  A    between atoms: O_27  and  C_28
REMARK                            x       y       z     vdW  Elec       q    Type
REMARK                         _______ _______ _______ _____ _____    ______ ____
ROOT
ATOM      1  C   LIG A   1      -7.857   2.591 126.126  0.00  0.00    +0.168 C 
ATOM      2  C   LIG A   1      -7.143   1.324 125.514  0.00  0.00    +0.065 C 
ATOM      3  C   LIG A   1      -5.601   1.673 125.565  0.00  0.00    +0.009 C 
ATOM      4  C   LIG A   1      -5.519   3.029 126.345  0.00  0.00    +0.028 C 
ATOM      5  C   LIG A   1      -6.824   3.716 125.898  0.00  0.00    +0.165 C 
ATOM      6  C   LIG A   1      -5.600   2.762 127.841  0.00  0.00    +0.032 C 
ATOM      7  C   LIG A   1      -6.759   2.513 128.482  0.00  0.00    +0.162 C 
ATOM      8  C   LIG A   1      -8.011   2.432 127.651  0.00  0.00    +0.232 C 
ATOM      9  O   LIG A   1      -9.117   2.259 128.162  0.00  0.00    -0.286 OA
ATOM     10  C   LIG A   1      -4.594   0.615 126.006  0.00  0.00    +0.009 C 
ENDROOT
BRANCH   2  11
ATOM     11  C   LIG A   1      -7.693  -0.034 125.957  0.00  0.00    -0.034 A 
ATOM     12  C   LIG A   1      -7.353  -0.516 127.240  0.00  0.00    +0.053 A 
ATOM     13  C   LIG A   1      -7.838  -1.747 127.656  0.00  0.00    +0.170 A 
ATOM     14  C   LIG A   1      -8.655  -2.522 126.867  0.00  0.00    +0.207 A 
ATOM     15  C   LIG A   1      -9.016  -2.102 125.602  0.00  0.00    +0.166 A 
ATOM     16  C   LIG A   1      -8.504  -0.866 125.151  0.00  0.00    +0.053 A 
ATOM     17  O   LIG A   1      -9.004  -3.681 127.493  0.00  0.00    -0.449 OA
ATOM     18  C   LIG A   1      -8.246  -3.592 128.710  0.00  0.00    +0.467 C 
ATOM     19  O   LIG A   1      -7.573  -2.328 128.861  0.00  0.00    -0.453 OA
BRANCH  15  20
ATOM     20  O   LIG A   1      -9.823  -2.752 124.708  0.00  0.00    -0.491 OA
ATOM     21  C   LIG A   1      -9.264  -3.039 123.430  0.00  0.00    +0.277 C 
ENDBRANCH  15  20
ENDBRANCH   2  11
BRANCH   1  22
ATOM     22  O   LIG A   1      -9.053   2.876 125.384  0.00  0.00    -0.365 OA
ATOM     23  C   LIG A   1      -9.070   2.396 124.040  0.00  0.00    +0.195 C 
ENDBRANCH   1  22
BRANCH   5  24
ATOM     24  O   LIG A   1      -6.765   4.113 124.524  0.00  0.00    -0.388 OA
ATOM     25  H   LIG A   1      -5.909   3.797 124.174  0.00  0.00    +0.210 HD
ENDBRANCH   5  24
BRANCH   7  26
ATOM     26  O   LIG A   1      -6.722   2.261 129.853  0.00  0.00    -0.492 OA
ATOM     27  C   LIG A   1      -6.888   3.411 130.680  0.00  0.00    +0.277 C 
ENDBRANCH   7  26
BRANCH   4  28
ATOM     28  C   LIG A   1      -4.262   3.859 125.967  0.00  0.00    +0.040 C 
BRANCH  28  29
ATOM     29  C   LIG A   1      -3.139   3.798 126.976  0.00  0.00    -0.034 C 
ATOM     30  C   LIG A   1      -1.972   3.180 126.754  0.00  0.00    +0.004 C 
ENDBRANCH  28  29
ENDBRANCH   4  28
TORSDOF 7
ENDMDL
MODEL 7
REMARK VINA RESULT:      -6.4      5.138      7.796
REMARK  Name = NuBBE_2103
REMARK  11 active torsions:
REMARK  status: ('A' for Active; 'I' for Inactive)
REMARK    1  A    between atoms: O_1  and  C_2
REMARK    2  A    between atoms: O_1  and  C_3
REMARK    3  A    between atoms: C_4  and  C_21
REMARK    4  A    between atoms: C_6  and  C_20
REMARK    5  A    between atoms: C_8  and  C_11
REMARK    6  A    between atoms: C_9  and  O_10
REMARK    7  A    between atoms: C_11  and  C_12
REMARK    8  A    between atoms: C_15  and  O_18
REMARK    9  A    between atoms: O_18  and  C_19
REMARK   10  A    between atoms: C_25  and  O_27
REMARK   11  A    between atoms: O_27  and  C_28
REMARK                            x       y       z     vdW  Elec       q    Type
REMARK                         _______ _______ _______ _____ _____    ______ ____
ROOT
ATOM      1  C   LIG A   1      -7.332   0.130 128.374  0.00  0.00    +0.168 C 
ATOM      2  C   LIG A   1      -5.949   0.045 127.619  0.00  0.00    +0.065 C 
ATOM      3  C   LIG A   1      -6.179  -1.036 126.488  0.00  0.00    +0.009 C 
ATOM      4  C   LIG A   1      -7.707  -1.375 126.557  0.00  0.00    +0.028 C 
ATOM      5  C   LIG A   1      -7.980  -1.238 128.068  0.00  0.00    +0.165 C 
ATOM      6  C   LIG A   1      -8.501  -0.305 125.823  0.00  0.00    +0.032 C 
ATOM      7  C   LIG A   1      -8.787   0.897 126.359  0.00  0.00    +0.162 C 
ATOM      8  C   LIG A   1      -8.229   1.201 127.723  0.00  0.00    +0.232 C 
ATOM      9  O   LIG A   1      -8.484   2.255 128.306  0.00  0.00    -0.286 OA
ATOM     10  C   LIG A   1      -5.638  -0.795 125.082  0.00  0.00    +0.009 C 
ENDROOT
BRANCH   2  11
ATOM     11  C   LIG A   1      -5.249   1.380 127.350  0.00  0.00    -0.034 A 
ATOM     12  C   LIG A   1      -4.443   1.937 128.367  0.00  0.00    +0.053 A 
ATOM     13  C   LIG A   1      -3.805   3.148 128.143  0.00  0.00    +0.170 A 
ATOM     14  C   LIG A   1      -3.918   3.833 126.955  0.00  0.00    +0.207 A 
ATOM     15  C   LIG A   1      -4.697   3.336 125.929  0.00  0.00    +0.166 A 
ATOM     16  C   LIG A   1      -5.379   2.120 126.153  0.00  0.00    +0.053 A 
ATOM     17  O   LIG A   1      -3.200   4.990 126.973  0.00  0.00    -0.449 OA
ATOM     18  C   LIG A   1      -2.706   5.003 128.322  0.00  0.00    +0.467 C 
ATOM     19  O   LIG A   1      -3.013   3.796 129.044  0.00  0.00    -0.453 OA
BRANCH  15  20
ATOM     20  O   LIG A   1      -4.900   3.891 124.694  0.00  0.00    -0.491 OA
ATOM     21  C   LIG A   1      -6.070   3.484 123.992  0.00  0.00    +0.277 C 
ENDBRANCH  15  20
ENDBRANCH   2  11
BRANCH   1  22
ATOM     22  O   LIG A   1      -7.104   0.252 129.786  0.00  0.00    -0.365 OA
ATOM     23  C   LIG A   1      -8.263   0.121 130.609  0.00  0.00    +0.195 C 
ENDBRANCH   1  22
BRANCH   5  24
ATOM     24  O   LIG A   1      -7.364  -2.295 128.812  0.00  0.00    -0.388 OA
ATOM     25  H   LIG A   1      -7.553  -2.126 129.755  0.00  0.00    +0.210 HD
ENDBRANCH   5  24
BRANCH   7  26
ATOM     26  O   LIG A   1      -9.505   1.816 125.594  0.00  0.00    -0.492 OA
ATOM     27  C   LIG A   1      -9.618   1.487 124.210  0.00  0.00    +0.277 C 
ENDBRANCH   7  26
BRANCH   4  28
ATOM     28  C   LIG A   1      -8.025  -2.803 126.033  0.00  0.00    +0.040 C 
BRANCH  28  29
ATOM     29  C   LIG A   1      -9.316  -2.916 125.257  0.00  0.00    -0.034 C 
ATOM     30  C   LIG A   1      -9.381  -3.288 123.972  0.00  0.00    +0.004 C 
ENDBRANCH  28  29
ENDBRANCH   4  28
TORSDOF 7
ENDMDL
MODEL 8
REMARK VINA RESULT:      -6.4      6.223      9.003
REMARK  Name = NuBBE_2103
REMARK  11 active torsions:
REMARK  status: ('A' for Active; 'I' for Inactive)
REMARK    1  A    between atoms: O_1  and  C_2
REMARK    2  A    between atoms: O_1  and  C_3
REMARK    3  A    between atoms: C_4  and  C_21
REMARK    4  A    between atoms: C_6  and  C_20
REMARK    5  A    between atoms: C_8  and  C_11
REMARK    6  A    between atoms: C_9  and  O_10
REMARK    7  A    between atoms: C_11  and  C_12
REMARK    8  A    between atoms: C_15  and  O_18
REMARK    9  A    between atoms: O_18  and  C_19
REMARK   10  A    between atoms: C_25  and  O_27
REMARK   11  A    between atoms: O_27  and  C_28
REMARK                            x       y       z     vdW  Elec       q    Type
REMARK                         _______ _______ _______ _____ _____    ______ ____
ROOT
ATOM      1  C   LIG A   1      -6.607  -1.428 124.388  0.00  0.00    +0.168 C 
ATOM      2  C   LIG A   1      -7.728  -0.352 124.113  0.00  0.00    +0.065 C 
ATOM      3  C   LIG A   1      -8.923  -0.771 125.060  0.00  0.00    +0.009 C 
ATOM      4  C   LIG A   1      -8.358  -1.944 125.930  0.00  0.00    +0.028 C 
ATOM      5  C   LIG A   1      -7.408  -2.633 124.930  0.00  0.00    +0.165 C 
ATOM      6  C   LIG A   1      -7.529  -1.379 127.074  0.00  0.00    +0.032 C 
ATOM      7  C   LIG A   1      -6.265  -0.941 126.920  0.00  0.00    +0.162 C 
ATOM      8  C   LIG A   1      -5.687  -0.958 125.530  0.00  0.00    +0.232 C 
ATOM      9  O   LIG A   1      -4.523  -0.623 125.310  0.00  0.00    -0.286 OA
ATOM     10  C   LIG A   1      -9.688   0.296 125.839  0.00  0.00    +0.009 C 
ENDROOT
BRANCH   2  11
ATOM     11  C   LIG A   1      -7.249   1.096 123.984  0.00  0.00    -0.034 A 
ATOM     12  C   LIG A   1      -6.978   1.826 125.162  0.00  0.00    +0.053 A 
ATOM     13  C   LIG A   1      -6.548   3.140 125.066  0.00  0.00    +0.170 A 
ATOM     14  C   LIG A   1      -6.362   3.768 123.855  0.00  0.00    +0.207 A 
ATOM     15  C   LIG A   1      -6.617   3.104 122.672  0.00  0.00    +0.166 A 
ATOM     16  C   LIG A   1      -7.086   1.775 122.755  0.00  0.00    +0.053 A 
ATOM     17  O   LIG A   1      -5.933   5.052 124.017  0.00  0.00    -0.449 OA
ATOM     18  C   LIG A   1      -5.962   5.188 125.447  0.00  0.00    +0.467 C 
ATOM     19  O   LIG A   1      -6.266   3.954 126.124  0.00  0.00    -0.453 OA
BRANCH  15  20
ATOM     20  O   LIG A   1      -6.473   3.586 121.400  0.00  0.00    -0.491 OA
ATOM     21  C   LIG A   1      -5.142   3.708 120.906  0.00  0.00    +0.277 C 
ENDBRANCH  15  20
ENDBRANCH   2  11
BRANCH   1  22
ATOM     22  O   LIG A   1      -5.970  -1.788 123.153  0.00  0.00    -0.365 OA
ATOM     23  C   LIG A   1      -5.100  -2.918 123.217  0.00  0.00    +0.195 C 
ENDBRANCH   1  22
BRANCH   5  24
ATOM     24  O   LIG A   1      -8.133  -3.300 123.891  0.00  0.00    -0.388 OA
ATOM     25  H   LIG A   1      -8.398  -2.616 123.246  0.00  0.00    +0.210 HD
ENDBRANCH   5  24
BRANCH   7  26
ATOM     26  O   LIG A   1      -5.598  -0.421 128.029  0.00  0.00    -0.492 OA
ATOM     27  C   LIG A   1      -5.323  -1.366 129.062  0.00  0.00    +0.277 C 
ENDBRANCH   7  26
BRANCH   4  28
ATOM     28  C   LIG A   1      -9.472  -2.903 126.433  0.00  0.00    +0.040 C 
BRANCH  28  29
ATOM     29  C   LIG A   1      -8.996  -3.980 127.381  0.00  0.00    -0.034 C 
ATOM     30  C   LIG A   1      -8.989  -3.847 128.713  0.00  0.00    +0.004 C 
ENDBRANCH  28  29
ENDBRANCH   4  28
TORSDOF 7
ENDMDL
MODEL 9
REMARK VINA RESULT:      -6.4      4.476      7.934
REMARK  Name = NuBBE_2103
REMARK  11 active torsions:
REMARK  status: ('A' for Active; 'I' for Inactive)
REMARK    1  A    between atoms: O_1  and  C_2
REMARK    2  A    between atoms: O_1  and  C_3
REMARK    3  A    between atoms: C_4  and  C_21
REMARK    4  A    between atoms: C_6  and  C_20
REMARK    5  A    between atoms: C_8  and  C_11
REMARK    6  A    between atoms: C_9  and  O_10
REMARK    7  A    between atoms: C_11  and  C_12
REMARK    8  A    between atoms: C_15  and  O_18
REMARK    9  A    between atoms: O_18  and  C_19
REMARK   10  A    between atoms: C_25  and  O_27
REMARK   11  A    between atoms: O_27  and  C_28
REMARK                            x       y       z     vdW  Elec       q    Type
REMARK                         _______ _______ _______ _____ _____    ______ ____
ROOT
ATOM      1  C   LIG A   1      -6.842   3.353 124.585  0.00  0.00    +0.168 C 
ATOM      2  C   LIG A   1      -6.187   1.928 124.761  0.00  0.00    +0.065 C 
ATOM      3  C   LIG A   1      -5.037   2.147 125.825  0.00  0.00    +0.009 C 
ATOM      4  C   LIG A   1      -5.211   3.626 126.310  0.00  0.00    +0.028 C 
ATOM      5  C   LIG A   1      -5.712   4.311 125.023  0.00  0.00    +0.165 C 
ATOM      6  C   LIG A   1      -6.315   3.694 127.355  0.00  0.00    +0.032 C 
ATOM      7  C   LIG A   1      -7.625   3.687 127.042  0.00  0.00    +0.162 C 
ATOM      8  C   LIG A   1      -7.994   3.537 125.591  0.00  0.00    +0.232 C 
ATOM      9  O   LIG A   1      -9.165   3.572 125.214  0.00  0.00    -0.286 OA
ATOM     10  C   LIG A   1      -4.824   1.126 126.938  0.00  0.00    +0.009 C 
ENDROOT
BRANCH   2  11
ATOM     11  C   LIG A   1      -7.159   0.748 124.833  0.00  0.00    -0.034 A 
ATOM     12  C   LIG A   1      -7.113  -0.099 125.962  0.00  0.00    +0.053 A 
ATOM     13  C   LIG A   1      -7.983  -1.176 126.042  0.00  0.00    +0.170 A 
ATOM     14  C   LIG A   1      -8.908  -1.451 125.061  0.00  0.00    +0.207 A 
ATOM     15  C   LIG A   1      -8.994  -0.659 123.934  0.00  0.00    +0.166 A 
ATOM     16  C   LIG A   1      -8.093   0.423 123.822  0.00  0.00    +0.053 A 
ATOM     17  O   LIG A   1      -9.649  -2.553 125.366  0.00  0.00    -0.449 OA
ATOM     18  C   LIG A   1      -9.029  -2.989 126.586  0.00  0.00    +0.467 C 
ATOM     19  O   LIG A   1      -8.030  -2.072 127.069  0.00  0.00    -0.453 OA
BRANCH  15  20
ATOM     20  O   LIG A   1      -9.861  -0.797 122.883  0.00  0.00    -0.491 OA
ATOM     21  C   LIG A   1     -10.361   0.403 122.302  0.00  0.00    +0.277 C 
ENDBRANCH  15  20
ENDBRANCH   2  11
BRANCH   1  22
ATOM     22  O   LIG A   1      -7.153   3.573 123.201  0.00  0.00    -0.365 OA
ATOM     23  C   LIG A   1      -6.293   2.920 122.267  0.00  0.00    +0.195 C 
ENDBRANCH   1  22
BRANCH   5  24
ATOM     24  O   LIG A   1      -4.677   4.397 124.037  0.00  0.00    -0.388 OA
ATOM     25  H   LIG A   1      -3.838   4.180 124.486  0.00  0.00    +0.210 HD
ENDBRANCH   5  24
BRANCH   7  26
ATOM     26  O   LIG A   1      -8.559   3.732 128.077  0.00  0.00    -0.492 OA
ATOM     27  C   LIG A   1      -8.538   2.607 128.955  0.00  0.00    +0.277 C 
ENDBRANCH   7  26
BRANCH   4  28
ATOM     28  C   LIG A   1      -3.882   4.246 126.822  0.00  0.00    +0.040 C 
BRANCH  28  29
ATOM     29  C   LIG A   1      -2.632   3.628 126.239  0.00  0.00    -0.034 C 
ATOM     30  C   LIG A   1      -1.661   3.077 126.977  0.00  0.00    +0.004 C 
ENDBRANCH  28  29
ENDBRANCH   4  28
TORSDOF 7
ENDMDL
