MODEL 1
REMARK VINA RESULT:      -8.6      0.000      0.000
REMARK  Name = NuBBE_1407
REMARK  8 active torsions:
REMARK  status: ('A' for Active; 'I' for Inactive)
REMARK    1  A    between atoms: C_1  and  C_2
REMARK    2  A    between atoms: C_4  and  C_5
REMARK    3  A    between atoms: C_5  and  O_6
REMARK    4  A    between atoms: C_11  and  C_31
REMARK    5  A    between atoms: C_14  and  C_30
REMARK    6  A    between atoms: C_15  and  C_29
REMARK    7  A    between atoms: C_18  and  C_19
REMARK    8  A    between atoms: C_22  and  C_24
REMARK                            x       y       z     vdW  Elec       q    Type
REMARK                         _______ _______ _______ _____ _____    ______ ____
ROOT
ATOM      1  C   LIG A   1      -5.702  -3.137 131.007  0.00  0.00    +0.044 C 
ATOM      2  C   LIG A   1      -6.349  -2.520 129.790  0.00  0.00    -0.046 C 
ATOM      3  C   LIG A   1      -6.029  -1.131 129.382  0.00  0.00    -0.028 C 
ATOM      4  C   LIG A   1      -4.993  -0.507 130.000  0.00  0.00    +0.096 C 
ATOM      5  C   LIG A   1      -7.266  -3.239 129.129  0.00  0.00    +0.003 C 
ATOM      6  C   LIG A   1      -7.919  -2.782 127.941  0.00  0.00    +0.001 C 
ATOM      7  C   LIG A   1      -7.831  -1.514 127.495  0.00  0.00    -0.053 C 
ATOM      8  C   LIG A   1      -7.006  -0.471 128.328  0.00  0.00    +0.015 C 
ATOM      9  C   LIG A   1      -6.221   0.389 127.290  0.00  0.00    +0.016 C 
ATOM     10  C   LIG A   1      -5.968  -0.337 125.968  0.00  0.00    +0.009 C 
ATOM     11  C   LIG A   1      -7.270  -0.588 125.123  0.00  0.00    -0.020 C 
ATOM     12  C   LIG A   1      -8.442  -1.065 126.112  0.00  0.00    -0.004 C 
ATOM     13  C   LIG A   1      -9.449   0.098 126.339  0.00  0.00    +0.012 C 
ATOM     14  C   LIG A   1     -10.119   0.609 125.062  0.00  0.00    +0.008 C 
ATOM     15  C   LIG A   1      -9.128   0.956 123.919  0.00  0.00    -0.022 C 
ATOM     16  C   LIG A   1      -9.520   0.150 122.656  0.00  0.00    +0.012 C 
ATOM     17  C   LIG A   1      -7.639   0.770 124.372  0.00  0.00    +0.003 C 
ATOM     18  C   LIG A   1      -6.677   1.157 123.218  0.00  0.00    +0.015 C 
ATOM     19  C   LIG A   1      -6.860   2.619 122.786  0.00  0.00    +0.052 C 
ATOM     20  C   LIG A   1      -5.989   2.932 121.573  0.00  0.00    +0.015 C 
ATOM     21  C   LIG A   1      -9.321   2.456 123.560  0.00  0.00    +0.081 C 
ATOM     22  C   LIG A   1      -8.327   2.925 122.515  0.00  0.00    +0.137 C 
ATOM     23  O   LIG A   1      -8.694   3.618 121.567  0.00  0.00    -0.297 OA
ATOM     24  C   LIG A   1      -9.280  -2.231 125.497  0.00  0.00    +0.016 C 
ATOM     25  C   LIG A   1      -6.853  -1.687 124.111  0.00  0.00    +0.012 C 
ATOM     26  C   LIG A   1      -8.006   0.376 129.169  0.00  0.00    +0.021 C 
ENDROOT
BRANCH   4  27
ATOM     27  C   LIG A   1      -4.520   0.888 129.974  0.00  0.00    +0.330 C 
ATOM     28  O   LIG A   1      -4.959   1.770 130.690  0.00  0.00    -0.246 OA
BRANCH  27  29
ATOM     29  O   LIG A   1      -3.634   1.157 129.008  0.00  0.00    -0.477 OA
ATOM     30  H   LIG A   1      -2.792   1.277 129.492  0.00  0.00    +0.295 HD
ENDBRANCH  27  29
ENDBRANCH   4  27
TORSDOF 2
ENDMDL
MODEL 2
REMARK VINA RESULT:      -8.4      2.902      4.621
REMARK  Name = NuBBE_1407
REMARK  8 active torsions:
REMARK  status: ('A' for Active; 'I' for Inactive)
REMARK    1  A    between atoms: C_1  and  C_2
REMARK    2  A    between atoms: C_4  and  C_5
REMARK    3  A    between atoms: C_5  and  O_6
REMARK    4  A    between atoms: C_11  and  C_31
REMARK    5  A    between atoms: C_14  and  C_30
REMARK    6  A    between atoms: C_15  and  C_29
REMARK    7  A    between atoms: C_18  and  C_19
REMARK    8  A    between atoms: C_22  and  C_24
REMARK                            x       y       z     vdW  Elec       q    Type
REMARK                         _______ _______ _______ _____ _____    ______ ____
ROOT
ATOM      1  C   LIG A   1      -8.611  -3.301 128.422  0.00  0.00    +0.044 C 
ATOM      2  C   LIG A   1      -8.093  -2.022 127.806  0.00  0.00    -0.046 C 
ATOM      3  C   LIG A   1      -7.553  -2.009 126.426  0.00  0.00    -0.028 C 
ATOM      4  C   LIG A   1      -7.727  -3.118 125.661  0.00  0.00    +0.096 C 
ATOM      5  C   LIG A   1      -8.077  -0.917 128.564  0.00  0.00    +0.003 C 
ATOM      6  C   LIG A   1      -7.649   0.361 128.084  0.00  0.00    +0.001 C 
ATOM      7  C   LIG A   1      -7.030   0.532 126.900  0.00  0.00    -0.053 C 
ATOM      8  C   LIG A   1      -6.726  -0.727 126.013  0.00  0.00    +0.015 C 
ATOM      9  C   LIG A   1      -7.033  -0.305 124.543  0.00  0.00    +0.016 C 
ATOM     10  C   LIG A   1      -8.046   0.836 124.438  0.00  0.00    +0.009 C 
ATOM     11  C   LIG A   1      -7.507   2.215 124.967  0.00  0.00    -0.020 C 
ATOM     12  C   LIG A   1      -6.691   1.962 126.328  0.00  0.00    -0.004 C 
ATOM     13  C   LIG A   1      -5.164   2.068 126.057  0.00  0.00    +0.012 C 
ATOM     14  C   LIG A   1      -4.714   3.423 125.509  0.00  0.00    +0.008 C 
ATOM     15  C   LIG A   1      -5.525   3.914 124.280  0.00  0.00    -0.022 C 
ATOM     16  C   LIG A   1      -6.109   5.313 124.593  0.00  0.00    +0.012 C 
ATOM     17  C   LIG A   1      -6.586   2.853 123.830  0.00  0.00    +0.003 C 
ATOM     18  C   LIG A   1      -7.354   3.361 122.582  0.00  0.00    +0.015 C 
ATOM     19  C   LIG A   1      -6.412   3.618 121.397  0.00  0.00    +0.052 C 
ATOM     20  C   LIG A   1      -7.179   4.230 120.227  0.00  0.00    +0.015 C 
ATOM     21  C   LIG A   1      -4.532   4.107 123.100  0.00  0.00    +0.081 C 
ATOM     22  C   LIG A   1      -5.240   4.493 121.815  0.00  0.00    +0.137 C 
ATOM     23  O   LIG A   1      -4.799   5.396 121.104  0.00  0.00    -0.297 OA
ATOM     24  C   LIG A   1      -7.003   3.053 127.401  0.00  0.00    +0.016 C 
ATOM     25  C   LIG A   1      -8.789   3.061 125.183  0.00  0.00    +0.012 C 
ATOM     26  C   LIG A   1      -5.233  -1.116 126.221  0.00  0.00    +0.021 C 
ENDROOT
BRANCH   4  27
ATOM     27  C   LIG A   1      -7.187  -3.511 124.348  0.00  0.00    +0.330 C 
ATOM     28  O   LIG A   1      -6.051  -3.914 124.172  0.00  0.00    -0.246 OA
BRANCH  27  29
ATOM     29  O   LIG A   1      -8.009  -3.282 123.318  0.00  0.00    -0.477 OA
ATOM     30  H   LIG A   1      -7.880  -4.062 122.741  0.00  0.00    +0.295 HD
ENDBRANCH  27  29
ENDBRANCH   4  27
TORSDOF 2
ENDMDL
MODEL 3
REMARK VINA RESULT:      -8.3      3.700      6.261
REMARK  Name = NuBBE_1407
REMARK  8 active torsions:
REMARK  status: ('A' for Active; 'I' for Inactive)
REMARK    1  A    between atoms: C_1  and  C_2
REMARK    2  A    between atoms: C_4  and  C_5
REMARK    3  A    between atoms: C_5  and  O_6
REMARK    4  A    between atoms: C_11  and  C_31
REMARK    5  A    between atoms: C_14  and  C_30
REMARK    6  A    between atoms: C_15  and  C_29
REMARK    7  A    between atoms: C_18  and  C_19
REMARK    8  A    between atoms: C_22  and  C_24
REMARK                            x       y       z     vdW  Elec       q    Type
REMARK                         _______ _______ _______ _____ _____    ______ ____
ROOT
ATOM      1  C   LIG A   1      -8.220   5.040 134.277  0.00  0.00    +0.044 C 
ATOM      2  C   LIG A   1      -7.993   3.806 133.436  0.00  0.00    -0.046 C 
ATOM      3  C   LIG A   1      -8.671   3.644 132.128  0.00  0.00    -0.028 C 
ATOM      4  C   LIG A   1      -9.329   4.715 131.613  0.00  0.00    +0.096 C 
ATOM      5  C   LIG A   1      -7.214   2.836 133.934  0.00  0.00    +0.003 C 
ATOM      6  C   LIG A   1      -6.891   1.640 133.218  0.00  0.00    +0.001 C 
ATOM      7  C   LIG A   1      -7.501   1.281 132.073  0.00  0.00    -0.053 C 
ATOM      8  C   LIG A   1      -8.647   2.192 131.504  0.00  0.00    +0.015 C 
ATOM      9  C   LIG A   1      -8.435   2.242 129.960  0.00  0.00    +0.016 C 
ATOM     10  C   LIG A   1      -6.987   1.987 129.538  0.00  0.00    +0.009 C 
ATOM     11  C   LIG A   1      -6.502   0.513 129.790  0.00  0.00    -0.020 C 
ATOM     12  C   LIG A   1      -7.036   0.034 131.227  0.00  0.00    -0.004 C 
ATOM     13  C   LIG A   1      -8.227  -0.950 131.048  0.00  0.00    +0.012 C 
ATOM     14  C   LIG A   1      -7.889  -2.211 130.252  0.00  0.00    +0.008 C 
ATOM     15  C   LIG A   1      -7.194  -1.937 128.891  0.00  0.00    -0.022 C 
ATOM     16  C   LIG A   1      -5.853  -2.710 128.849  0.00  0.00    +0.012 C 
ATOM     17  C   LIG A   1      -7.067  -0.400 128.609  0.00  0.00    +0.003 C 
ATOM     18  C   LIG A   1      -6.400  -0.164 127.229  0.00  0.00    +0.015 C 
ATOM     19  C   LIG A   1      -7.214  -0.787 126.086  0.00  0.00    +0.052 C 
ATOM     20  C   LIG A   1      -6.471  -0.642 124.760  0.00  0.00    +0.015 C 
ATOM     21  C   LIG A   1      -8.085  -2.542 127.771  0.00  0.00    +0.081 C 
ATOM     22  C   LIG A   1      -7.544  -2.242 126.386  0.00  0.00    +0.137 C 
ATOM     23  O   LIG A   1      -7.494  -3.123 125.528  0.00  0.00    -0.297 OA
ATOM     24  C   LIG A   1      -5.947  -0.765 132.012  0.00  0.00    +0.016 C 
ATOM     25  C   LIG A   1      -4.956   0.612 129.726  0.00  0.00    +0.012 C 
ATOM     26  C   LIG A   1     -10.011   1.553 131.898  0.00  0.00    +0.021 C 
ENDROOT
BRANCH   4  27
ATOM     27  C   LIG A   1     -10.233   4.861 130.459  0.00  0.00    +0.330 C 
ATOM     28  O   LIG A   1      -9.926   5.416 129.419  0.00  0.00    -0.246 OA
BRANCH  27  29
ATOM     29  O   LIG A   1     -11.483   4.435 130.675  0.00  0.00    -0.477 OA
ATOM     30  H   LIG A   1     -11.363   3.533 131.034  0.00  0.00    +0.295 HD
ENDBRANCH  27  29
ENDBRANCH   4  27
TORSDOF 2
ENDMDL
MODEL 4
REMARK VINA RESULT:      -8.3      2.995      4.952
REMARK  Name = NuBBE_1407
REMARK  8 active torsions:
REMARK  status: ('A' for Active; 'I' for Inactive)
REMARK    1  A    between atoms: C_1  and  C_2
REMARK    2  A    between atoms: C_4  and  C_5
REMARK    3  A    between atoms: C_5  and  O_6
REMARK    4  A    between atoms: C_11  and  C_31
REMARK    5  A    between atoms: C_14  and  C_30
REMARK    6  A    between atoms: C_15  and  C_29
REMARK    7  A    between atoms: C_18  and  C_19
REMARK    8  A    between atoms: C_22  and  C_24
REMARK                            x       y       z     vdW  Elec       q    Type
REMARK                         _______ _______ _______ _____ _____    ______ ____
ROOT
ATOM      1  C   LIG A   1      -3.298   5.348 130.078  0.00  0.00    +0.044 C 
ATOM      2  C   LIG A   1      -4.241   4.489 129.269  0.00  0.00    -0.046 C 
ATOM      3  C   LIG A   1      -3.773   3.791 128.047  0.00  0.00    -0.028 C 
ATOM      4  C   LIG A   1      -2.439   3.773 127.794  0.00  0.00    +0.096 C 
ATOM      5  C   LIG A   1      -5.524   4.428 129.650  0.00  0.00    +0.003 C 
ATOM      6  C   LIG A   1      -6.504   3.619 128.990  0.00  0.00    +0.001 C 
ATOM      7  C   LIG A   1      -6.281   3.011 127.810  0.00  0.00    -0.053 C 
ATOM      8  C   LIG A   1      -4.899   3.220 127.096  0.00  0.00    +0.015 C 
ATOM      9  C   LIG A   1      -4.497   1.830 126.513  0.00  0.00    +0.016 C 
ATOM     10  C   LIG A   1      -5.127   0.654 127.262  0.00  0.00    +0.009 C 
ATOM     11  C   LIG A   1      -6.684   0.542 127.074  0.00  0.00    -0.020 C 
ATOM     12  C   LIG A   1      -7.321   2.014 127.169  0.00  0.00    -0.004 C 
ATOM     13  C   LIG A   1      -7.716   2.512 125.750  0.00  0.00    +0.012 C 
ATOM     14  C   LIG A   1      -8.736   1.626 125.033  0.00  0.00    +0.008 C 
ATOM     15  C   LIG A   1      -8.361   0.120 125.001  0.00  0.00    -0.022 C 
ATOM     16  C   LIG A   1      -9.520  -0.698 125.621  0.00  0.00    +0.012 C 
ATOM     17  C   LIG A   1      -6.961  -0.137 125.657  0.00  0.00    +0.003 C 
ATOM     18  C   LIG A   1      -6.603  -1.645 125.578  0.00  0.00    +0.015 C 
ATOM     19  C   LIG A   1      -6.543  -2.143 124.127  0.00  0.00    +0.052 C 
ATOM     20  C   LIG A   1      -6.309  -3.651 124.089  0.00  0.00    +0.015 C 
ATOM     21  C   LIG A   1      -8.264  -0.316 123.512  0.00  0.00    +0.081 C 
ATOM     22  C   LIG A   1      -7.803  -1.754 123.367  0.00  0.00    +0.137 C 
ATOM     23  O   LIG A   1      -8.363  -2.515 122.579  0.00  0.00    -0.297 OA
ATOM     24  C   LIG A   1      -8.645   2.019 127.998  0.00  0.00    +0.016 C 
ATOM     25  C   LIG A   1      -7.135  -0.384 128.233  0.00  0.00    +0.012 C 
ATOM     26  C   LIG A   1      -5.086   4.298 125.988  0.00  0.00    +0.021 C 
ENDROOT
BRANCH   4  27
ATOM     27  C   LIG A   1      -1.659   3.340 126.622  0.00  0.00    +0.330 C 
ATOM     28  O   LIG A   1      -1.752   3.846 125.517  0.00  0.00    -0.246 OA
BRANCH  27  29
ATOM     29  O   LIG A   1      -0.908   2.252 126.825  0.00  0.00    -0.477 OA
ATOM     30  H   LIG A   1       0.002   2.607 126.890  0.00  0.00    +0.295 HD
ENDBRANCH  27  29
ENDBRANCH   4  27
TORSDOF 2
ENDMDL
MODEL 5
REMARK VINA RESULT:      -8.2      2.928      4.840
REMARK  Name = NuBBE_1407
REMARK  8 active torsions:
REMARK  status: ('A' for Active; 'I' for Inactive)
REMARK    1  A    between atoms: C_1  and  C_2
REMARK    2  A    between atoms: C_4  and  C_5
REMARK    3  A    between atoms: C_5  and  O_6
REMARK    4  A    between atoms: C_11  and  C_31
REMARK    5  A    between atoms: C_14  and  C_30
REMARK    6  A    between atoms: C_15  and  C_29
REMARK    7  A    between atoms: C_18  and  C_19
REMARK    8  A    between atoms: C_22  and  C_24
REMARK                            x       y       z     vdW  Elec       q    Type
REMARK                         _______ _______ _______ _____ _____    ______ ____
ROOT
ATOM      1  C   LIG A   1      -6.155   3.835 132.682  0.00  0.00    +0.044 C 
ATOM      2  C   LIG A   1      -6.342   2.746 131.651  0.00  0.00    -0.046 C 
ATOM      3  C   LIG A   1      -7.596   2.652 130.866  0.00  0.00    -0.028 C 
ATOM      4  C   LIG A   1      -8.477   3.682 130.944  0.00  0.00    +0.096 C 
ATOM      5  C   LIG A   1      -5.371   1.833 131.514  0.00  0.00    +0.003 C 
ATOM      6  C   LIG A   1      -5.413   0.779 130.547  0.00  0.00    +0.001 C 
ATOM      7  C   LIG A   1      -6.513   0.480 129.832  0.00  0.00    -0.053 C 
ATOM      8  C   LIG A   1      -7.830   1.296 130.087  0.00  0.00    +0.015 C 
ATOM      9  C   LIG A   1      -8.461   1.551 128.683  0.00  0.00    +0.016 C 
ATOM     10  C   LIG A   1      -7.437   1.535 127.546  0.00  0.00    +0.009 C 
ATOM     11  C   LIG A   1      -6.821   0.115 127.268  0.00  0.00    -0.020 C 
ATOM     12  C   LIG A   1      -6.499  -0.591 128.675  0.00  0.00    -0.004 C 
ATOM     13  C   LIG A   1      -7.558  -1.692 128.968  0.00  0.00    +0.012 C 
ATOM     14  C   LIG A   1      -7.625  -2.798 127.915  0.00  0.00    +0.008 C 
ATOM     15  C   LIG A   1      -7.760  -2.282 126.457  0.00  0.00    -0.022 C 
ATOM     16  C   LIG A   1      -6.604  -2.867 125.611  0.00  0.00    +0.012 C 
ATOM     17  C   LIG A   1      -7.874  -0.719 126.409  0.00  0.00    +0.003 C 
ATOM     18  C   LIG A   1      -8.041  -0.241 124.942  0.00  0.00    +0.015 C 
ATOM     19  C   LIG A   1      -9.301  -0.827 124.289  0.00  0.00    +0.052 C 
ATOM     20  C   LIG A   1      -9.371  -0.436 122.816  0.00  0.00    +0.015 C 
ATOM     21  C   LIG A   1      -9.075  -2.863 125.866  0.00  0.00    +0.081 C 
ATOM     22  C   LIG A   1      -9.354  -2.337 124.470  0.00  0.00    +0.137 C 
ATOM     23  O   LIG A   1      -9.718  -3.099 123.575  0.00  0.00    -0.297 OA
ATOM     24  C   LIG A   1      -5.123  -1.330 128.650  0.00  0.00    +0.016 C 
ATOM     25  C   LIG A   1      -5.544   0.418 126.442  0.00  0.00    +0.012 C 
ATOM     26  C   LIG A   1      -8.753   0.447 131.009  0.00  0.00    +0.021 C 
ENDROOT
BRANCH   4  27
ATOM     27  C   LIG A   1      -9.857   3.844 130.455  0.00  0.00    +0.330 C 
ATOM     28  O   LIG A   1     -10.185   4.640 129.593  0.00  0.00    -0.246 OA
BRANCH  27  29
ATOM     29  O   LIG A   1     -10.770   3.123 131.117  0.00  0.00    -0.477 OA
ATOM     30  H   LIG A   1     -10.310   2.279 131.300  0.00  0.00    +0.295 HD
ENDBRANCH  27  29
ENDBRANCH   4  27
TORSDOF 2
ENDMDL
MODEL 6
REMARK VINA RESULT:      -8.1      2.490      7.306
REMARK  Name = NuBBE_1407
REMARK  8 active torsions:
REMARK  status: ('A' for Active; 'I' for Inactive)
REMARK    1  A    between atoms: C_1  and  C_2
REMARK    2  A    between atoms: C_4  and  C_5
REMARK    3  A    between atoms: C_5  and  O_6
REMARK    4  A    between atoms: C_11  and  C_31
REMARK    5  A    between atoms: C_14  and  C_30
REMARK    6  A    between atoms: C_15  and  C_29
REMARK    7  A    between atoms: C_18  and  C_19
REMARK    8  A    between atoms: C_22  and  C_24
REMARK                            x       y       z     vdW  Elec       q    Type
REMARK                         _______ _______ _______ _____ _____    ______ ____
ROOT
ATOM      1  C   LIG A   1      -9.603  -3.273 125.414  0.00  0.00    +0.044 C 
ATOM      2  C   LIG A   1      -8.852  -2.845 126.653  0.00  0.00    -0.046 C 
ATOM      3  C   LIG A   1      -8.069  -1.586 126.668  0.00  0.00    -0.028 C 
ATOM      4  C   LIG A   1      -8.214  -0.731 125.623  0.00  0.00    +0.096 C 
ATOM      5  C   LIG A   1      -8.861  -3.666 127.712  0.00  0.00    +0.003 C 
ATOM      6  C   LIG A   1      -8.222  -3.355 128.954  0.00  0.00    +0.001 C 
ATOM      7  C   LIG A   1      -7.382  -2.314 129.109  0.00  0.00    -0.053 C 
ATOM      8  C   LIG A   1      -7.052  -1.412 127.866  0.00  0.00    +0.015 C 
ATOM      9  C   LIG A   1      -7.039   0.058 128.389  0.00  0.00    +0.016 C 
ATOM     10  C   LIG A   1      -7.893   0.264 129.641  0.00  0.00    +0.009 C 
ATOM     11  C   LIG A   1      -7.320  -0.442 130.923  0.00  0.00    -0.020 C 
ATOM     12  C   LIG A   1      -6.798  -1.906 130.516  0.00  0.00    -0.004 C 
ATOM     13  C   LIG A   1      -5.245  -1.917 130.460  0.00  0.00    +0.012 C 
ATOM     14  C   LIG A   1      -4.564  -1.550 131.780  0.00  0.00    +0.008 C 
ATOM     15  C   LIG A   1      -5.081  -0.232 132.417  0.00  0.00    -0.022 C 
ATOM     16  C   LIG A   1      -5.565  -0.528 133.857  0.00  0.00    +0.012 C 
ATOM     17  C   LIG A   1      -6.146   0.469 131.504  0.00  0.00    +0.003 C 
ATOM     18  C   LIG A   1      -6.615   1.797 132.154  0.00  0.00    +0.015 C 
ATOM     19  C   LIG A   1      -5.451   2.777 132.357  0.00  0.00    +0.052 C 
ATOM     20  C   LIG A   1      -5.923   4.020 133.107  0.00  0.00    +0.015 C 
ATOM     21  C   LIG A   1      -3.874   0.738 132.550  0.00  0.00    +0.081 C 
ATOM     22  C   LIG A   1      -4.291   2.100 133.074  0.00  0.00    +0.137 C 
ATOM     23  O   LIG A   1      -3.637   2.660 133.952  0.00  0.00    -0.297 OA
ATOM     24  C   LIG A   1      -7.188  -2.977 131.584  0.00  0.00    +0.016 C 
ATOM     25  C   LIG A   1      -8.526  -0.484 131.898  0.00  0.00    +0.012 C 
ATOM     26  C   LIG A   1      -5.672  -1.856 127.301  0.00  0.00    +0.021 C 
ENDROOT
BRANCH   4  27
ATOM     27  C   LIG A   1      -7.485   0.488 125.233  0.00  0.00    +0.330 C 
ATOM     28  O   LIG A   1      -6.333   0.496 124.838  0.00  0.00    -0.246 OA
BRANCH  27  29
ATOM     29  O   LIG A   1      -8.150   1.628 125.455  0.00  0.00    -0.477 OA
ATOM     30  H   LIG A   1      -7.446   2.267 125.685  0.00  0.00    +0.295 HD
ENDBRANCH  27  29
ENDBRANCH   4  27
TORSDOF 2
ENDMDL
MODEL 7
REMARK VINA RESULT:      -8.0      2.360      7.115
REMARK  Name = NuBBE_1407
REMARK  8 active torsions:
REMARK  status: ('A' for Active; 'I' for Inactive)
REMARK    1  A    between atoms: C_1  and  C_2
REMARK    2  A    between atoms: C_4  and  C_5
REMARK    3  A    between atoms: C_5  and  O_6
REMARK    4  A    between atoms: C_11  and  C_31
REMARK    5  A    between atoms: C_14  and  C_30
REMARK    6  A    between atoms: C_15  and  C_29
REMARK    7  A    between atoms: C_18  and  C_19
REMARK    8  A    between atoms: C_22  and  C_24
REMARK                            x       y       z     vdW  Elec       q    Type
REMARK                         _______ _______ _______ _____ _____    ______ ____
ROOT
ATOM      1  C   LIG A   1      -6.711  -1.234 122.887  0.00  0.00    +0.044 C 
ATOM      2  C   LIG A   1      -6.469  -0.903 124.341  0.00  0.00    -0.046 C 
ATOM      3  C   LIG A   1      -6.960   0.370 124.921  0.00  0.00    -0.028 C 
ATOM      4  C   LIG A   1      -7.806   1.127 124.177  0.00  0.00    +0.096 C 
ATOM      5  C   LIG A   1      -5.745  -1.761 125.071  0.00  0.00    +0.003 C 
ATOM      6  C   LIG A   1      -5.481  -1.580 126.466  0.00  0.00    +0.001 C 
ATOM      7  C   LIG A   1      -5.755  -0.438 127.124  0.00  0.00    -0.053 C 
ATOM      8  C   LIG A   1      -6.358   0.772 126.327  0.00  0.00    +0.015 C 
ATOM      9  C   LIG A   1      -7.448   1.400 127.250  0.00  0.00    +0.016 C 
ATOM     10  C   LIG A   1      -8.031   0.409 128.259  0.00  0.00    +0.009 C 
ATOM     11  C   LIG A   1      -7.014  -0.037 129.372  0.00  0.00    -0.020 C 
ATOM     12  C   LIG A   1      -5.586  -0.306 128.686  0.00  0.00    -0.004 C 
ATOM     13  C   LIG A   1      -4.615   0.864 129.011  0.00  0.00    +0.012 C 
ATOM     14  C   LIG A   1      -4.363   1.078 130.504  0.00  0.00    +0.008 C 
ATOM     15  C   LIG A   1      -5.654   1.184 131.359  0.00  0.00    -0.022 C 
ATOM     16  C   LIG A   1      -5.600   0.119 132.481  0.00  0.00    +0.012 C 
ATOM     17  C   LIG A   1      -6.941   1.122 130.466  0.00  0.00    +0.003 C 
ATOM     18  C   LIG A   1      -8.210   1.264 131.347  0.00  0.00    +0.015 C 
ATOM     19  C   LIG A   1      -8.229   2.596 132.111  0.00  0.00    +0.052 C 
ATOM     20  C   LIG A   1      -9.425   2.652 133.058  0.00  0.00    +0.015 C 
ATOM     21  C   LIG A   1      -5.645   2.568 132.066  0.00  0.00    +0.081 C 
ATOM     22  C   LIG A   1      -6.918   2.815 132.853  0.00  0.00    +0.137 C 
ATOM     23  O   LIG A   1      -6.871   3.282 133.990  0.00  0.00    -0.297 OA
ATOM     24  C   LIG A   1      -4.902  -1.590 129.258  0.00  0.00    +0.016 C 
ATOM     25  C   LIG A   1      -7.648  -1.323 129.965  0.00  0.00    +0.012 C 
ATOM     26  C   LIG A   1      -5.203   1.766 126.009  0.00  0.00    +0.021 C 
ENDROOT
BRANCH   4  27
ATOM     27  C   LIG A   1      -8.335   2.490 124.358  0.00  0.00    +0.330 C 
ATOM     28  O   LIG A   1      -7.664   3.501 124.246  0.00  0.00    -0.246 OA
BRANCH  27  29
ATOM     29  O   LIG A   1      -9.604   2.543 124.777  0.00  0.00    -0.477 OA
ATOM     30  H   LIG A   1     -10.085   2.925 124.015  0.00  0.00    +0.295 HD
ENDBRANCH  27  29
ENDBRANCH   4  27
TORSDOF 2
ENDMDL
MODEL 8
REMARK VINA RESULT:      -8.0      3.211      7.014
REMARK  Name = NuBBE_1407
REMARK  8 active torsions:
REMARK  status: ('A' for Active; 'I' for Inactive)
REMARK    1  A    between atoms: C_1  and  C_2
REMARK    2  A    between atoms: C_4  and  C_5
REMARK    3  A    between atoms: C_5  and  O_6
REMARK    4  A    between atoms: C_11  and  C_31
REMARK    5  A    between atoms: C_14  and  C_30
REMARK    6  A    between atoms: C_15  and  C_29
REMARK    7  A    between atoms: C_18  and  C_19
REMARK    8  A    between atoms: C_22  and  C_24
REMARK                            x       y       z     vdW  Elec       q    Type
REMARK                         _______ _______ _______ _____ _____    ______ ____
ROOT
ATOM      1  C   LIG A   1      -8.707  -3.658 126.695  0.00  0.00    +0.044 C 
ATOM      2  C   LIG A   1      -8.300  -2.672 127.765  0.00  0.00    -0.046 C 
ATOM      3  C   LIG A   1      -7.825  -1.314 127.404  0.00  0.00    -0.028 C 
ATOM      4  C   LIG A   1      -7.963  -0.911 126.114  0.00  0.00    +0.096 C 
ATOM      5  C   LIG A   1      -8.320  -3.079 129.041  0.00  0.00    +0.003 C 
ATOM      6  C   LIG A   1      -7.996  -2.228 130.144  0.00  0.00    +0.001 C 
ATOM      7  C   LIG A   1      -7.445  -1.009 129.995  0.00  0.00    -0.053 C 
ATOM      8  C   LIG A   1      -7.101  -0.501 128.550  0.00  0.00    +0.015 C 
ATOM      9  C   LIG A   1      -7.501   1.006 128.514  0.00  0.00    +0.016 C 
ATOM     10  C   LIG A   1      -8.589   1.369 129.526  0.00  0.00    +0.009 C 
ATOM     11  C   LIG A   1      -8.115   1.291 131.023  0.00  0.00    -0.020 C 
ATOM     12  C   LIG A   1      -7.224  -0.031 131.213  0.00  0.00    -0.004 C 
ATOM     13  C   LIG A   1      -5.720   0.353 131.310  0.00  0.00    +0.012 C 
ATOM     14  C   LIG A   1      -5.383   1.292 132.469  0.00  0.00    +0.008 C 
ATOM     15  C   LIG A   1      -6.279   2.557 132.544  0.00  0.00    -0.022 C 
ATOM     16  C   LIG A   1      -6.937   2.622 133.944  0.00  0.00    +0.012 C 
ATOM     17  C   LIG A   1      -7.290   2.618 131.348  0.00  0.00    +0.003 C 
ATOM     18  C   LIG A   1      -8.145   3.910 131.436  0.00  0.00    +0.015 C 
ATOM     19  C   LIG A   1      -7.277   5.175 131.385  0.00  0.00    +0.052 C 
ATOM     20  C   LIG A   1      -8.133   6.420 131.595  0.00  0.00    +0.015 C 
ATOM     21  C   LIG A   1      -5.355   3.802 132.435  0.00  0.00    +0.081 C 
ATOM     22  C   LIG A   1      -6.144   5.097 132.399  0.00  0.00    +0.137 C 
ATOM     23  O   LIG A   1      -5.795   6.063 133.077  0.00  0.00    -0.297 OA
ATOM     24  C   LIG A   1      -7.556  -0.766 132.552  0.00  0.00    +0.016 C 
ATOM     25  C   LIG A   1      -9.438   1.247 131.832  0.00  0.00    +0.012 C 
ATOM     26  C   LIG A   1      -5.579  -0.720 128.310  0.00  0.00    +0.021 C 
ENDROOT
BRANCH   4  27
ATOM     27  C   LIG A   1      -7.459   0.265 125.385  0.00  0.00    +0.330 C 
ATOM     28  O   LIG A   1      -8.149   1.220 125.072  0.00  0.00    -0.246 OA
BRANCH  27  29
ATOM     29  O   LIG A   1      -6.190   0.164 124.976  0.00  0.00    -0.477 OA
ATOM     30  H   LIG A   1      -5.790   1.016 125.245  0.00  0.00    +0.295 HD
ENDBRANCH  27  29
ENDBRANCH   4  27
TORSDOF 2
ENDMDL
MODEL 9
REMARK VINA RESULT:      -7.9      3.465      4.612
REMARK  Name = NuBBE_1407
REMARK  8 active torsions:
REMARK  status: ('A' for Active; 'I' for Inactive)
REMARK    1  A    between atoms: C_1  and  C_2
REMARK    2  A    between atoms: C_4  and  C_5
REMARK    3  A    between atoms: C_5  and  O_6
REMARK    4  A    between atoms: C_11  and  C_31
REMARK    5  A    between atoms: C_14  and  C_30
REMARK    6  A    between atoms: C_15  and  C_29
REMARK    7  A    between atoms: C_18  and  C_19
REMARK    8  A    between atoms: C_22  and  C_24
REMARK                            x       y       z     vdW  Elec       q    Type
REMARK                         _______ _______ _______ _____ _____    ______ ____
ROOT
ATOM      1  C   LIG A   1      -7.617   3.510 134.065  0.00  0.00    +0.044 C 
ATOM      2  C   LIG A   1      -7.607   3.086 132.615  0.00  0.00    -0.046 C 
ATOM      3  C   LIG A   1      -7.847   4.072 131.534  0.00  0.00    -0.028 C 
ATOM      4  C   LIG A   1      -7.867   5.389 131.864  0.00  0.00    +0.096 C 
ATOM      5  C   LIG A   1      -7.439   1.786 132.338  0.00  0.00    +0.003 C 
ATOM      6  C   LIG A   1      -7.372   1.267 131.006  0.00  0.00    +0.001 C 
ATOM      7  C   LIG A   1      -7.676   1.996 129.916  0.00  0.00    -0.053 C 
ATOM      8  C   LIG A   1      -8.164   3.477 130.104  0.00  0.00    +0.015 C 
ATOM      9  C   LIG A   1      -7.474   4.307 128.979  0.00  0.00    +0.016 C 
ATOM     10  C   LIG A   1      -6.167   3.686 128.481  0.00  0.00    +0.009 C 
ATOM     11  C   LIG A   1      -6.366   2.342 127.689  0.00  0.00    -0.020 C 
ATOM     12  C   LIG A   1      -7.462   1.450 128.452  0.00  0.00    -0.004 C 
ATOM     13  C   LIG A   1      -8.810   1.491 127.677  0.00  0.00    +0.012 C 
ATOM     14  C   LIG A   1      -8.727   0.968 126.242  0.00  0.00    +0.008 C 
ATOM     15  C   LIG A   1      -7.589   1.604 125.398  0.00  0.00    -0.022 C 
ATOM     16  C   LIG A   1      -6.688   0.475 124.843  0.00  0.00    +0.012 C 
ATOM     17  C   LIG A   1      -6.823   2.709 126.205  0.00  0.00    +0.003 C 
ATOM     18  C   LIG A   1      -5.718   3.345 125.322  0.00  0.00    +0.015 C 
ATOM     19  C   LIG A   1      -6.299   3.999 124.060  0.00  0.00    +0.052 C 
ATOM     20  C   LIG A   1      -5.178   4.507 123.157  0.00  0.00    +0.015 C 
ATOM     21  C   LIG A   1      -8.238   2.294 124.166  0.00  0.00    +0.081 C 
ATOM     22  C   LIG A   1      -7.218   3.035 123.323  0.00  0.00    +0.137 C 
ATOM     23  O   LIG A   1      -7.228   2.937 122.097  0.00  0.00    -0.297 OA
ATOM     24  C   LIG A   1      -7.051  -0.056 128.501  0.00  0.00    +0.016 C 
ATOM     25  C   LIG A   1      -4.956   1.695 127.692  0.00  0.00    +0.012 C 
ATOM     26  C   LIG A   1      -9.716   3.492 129.988  0.00  0.00    +0.021 C 
ENDROOT
BRANCH   4  27
ATOM     27  C   LIG A   1      -8.240   6.596 131.105  0.00  0.00    +0.330 C 
ATOM     28  O   LIG A   1      -9.383   6.874 130.788  0.00  0.00    -0.246 OA
BRANCH  27  29
ATOM     29  O   LIG A   1      -7.204   7.325 130.676  0.00  0.00    -0.477 OA
ATOM     30  H   LIG A   1      -6.507   6.660 130.504  0.00  0.00    +0.295 HD
ENDBRANCH  27  29
ENDBRANCH   4  27
TORSDOF 2
ENDMDL
