MODEL 1
REMARK VINA RESULT:      -8.3      0.000      0.000
REMARK  Name = NuBBE_1451
REMARK  6 active torsions:
REMARK  status: ('A' for Active; 'I' for Inactive)
REMARK    1  A    between atoms: C_9  and  C_10
REMARK    2  A    between atoms: C_10  and  C_11
REMARK    3  A    between atoms: C_20  and  O_21
REMARK    4  A    between atoms: O_21  and  C_22
REMARK    5  A    between atoms: C_23  and  O_24
REMARK    6  A    between atoms: O_24  and  C_25
REMARK                            x       y       z     vdW  Elec       q    Type
REMARK                         _______ _______ _______ _____ _____    ______ ____
ROOT
ATOM      1  O   LIG A   1      -6.328   2.524 127.641  0.00  0.00    -0.286 OA
ATOM      2  C   LIG A   1      -6.604   2.088 126.534  0.00  0.00    +0.201 A 
ATOM      3  C   LIG A   1      -6.282   2.880 125.333  0.00  0.00    +0.065 A 
ATOM      4  C   LIG A   1      -5.555   4.081 125.441  0.00  0.00    +0.019 A 
ATOM      5  C   LIG A   1      -5.204   4.792 124.290  0.00  0.00    +0.047 A 
ATOM      6  C   LIG A   1      -5.591   4.278 123.068  0.00  0.00    +0.128 A 
ATOM      7  C   LIG A   1      -6.334   3.116 122.959  0.00  0.00    +0.041 A 
ATOM      8  C   LIG A   1      -6.661   2.870 121.537  0.00  0.00    +0.091 C 
ATOM      9  C   LIG A   1      -5.715   3.888 120.872  0.00  0.00    +0.203 C 
ATOM     10  O   LIG A   1      -5.291   4.861 121.867  0.00  0.00    -0.484 OA
ATOM     11  C   LIG A   1      -6.688   2.402 124.090  0.00  0.00    +0.146 A 
ATOM     12  O   LIG A   1      -7.415   1.258 123.936  0.00  0.00    -0.455 OA
ATOM     13  C   LIG A   1      -7.589   0.446 125.041  0.00  0.00    +0.154 A 
ATOM     14  C   LIG A   1      -7.230   0.755 126.300  0.00  0.00    +0.074 A 
ATOM     15  C   LIG A   1      -7.438  -0.284 127.327  0.00  0.00    +0.035 A 
ATOM     16  C   LIG A   1      -7.333  -0.053 128.706  0.00  0.00    +0.061 A 
ATOM     17  C   LIG A   1      -7.409  -1.111 129.626  0.00  0.00    +0.162 A 
ATOM     18  C   LIG A   1      -7.640  -2.422 129.176  0.00  0.00    +0.165 A 
ATOM     19  C   LIG A   1      -7.786  -2.652 127.809  0.00  0.00    +0.095 A 
ATOM     20  C   LIG A   1      -7.691  -1.594 126.902  0.00  0.00    +0.133 A 
ATOM     21  O   LIG A   1      -7.803  -1.945 125.582  0.00  0.00    -0.484 OA
ATOM     22  C   LIG A   1      -8.211  -0.881 124.718  0.00  0.00    +0.303 C 
ENDROOT
BRANCH   9  23
ATOM     23  C   LIG A   1      -6.335   4.606 119.689  0.00  0.00    -0.040 C 
ATOM     24  C   LIG A   1      -5.558   5.746 119.090  0.00  0.00    +0.042 C 
ATOM     25  C   LIG A   1      -7.525   4.236 119.183  0.00  0.00    +0.011 C 
ENDBRANCH   9  23
BRANCH  17  26
ATOM     26  O   LIG A   1      -7.295  -0.933 130.985  0.00  0.00    -0.491 OA
ATOM     27  C   LIG A   1      -8.363  -0.233 131.613  0.00  0.00    +0.277 C 
ENDBRANCH  17  26
BRANCH  18  28
ATOM     28  O   LIG A   1      -7.682  -3.405 130.132  0.00  0.00    -0.491 OA
ATOM     29  C   LIG A   1      -6.464  -4.081 130.422  0.00  0.00    +0.277 C 
ENDBRANCH  18  28
TORSDOF 3
ENDMDL
MODEL 2
REMARK VINA RESULT:      -8.2      3.797      6.839
REMARK  Name = NuBBE_1451
REMARK  6 active torsions:
REMARK  status: ('A' for Active; 'I' for Inactive)
REMARK    1  A    between atoms: C_9  and  C_10
REMARK    2  A    between atoms: C_10  and  C_11
REMARK    3  A    between atoms: C_20  and  O_21
REMARK    4  A    between atoms: O_21  and  C_22
REMARK    5  A    between atoms: C_23  and  O_24
REMARK    6  A    between atoms: O_24  and  C_25
REMARK                            x       y       z     vdW  Elec       q    Type
REMARK                         _______ _______ _______ _____ _____    ______ ____
ROOT
ATOM      1  O   LIG A   1      -8.187   0.303 130.827  0.00  0.00    -0.286 OA
ATOM      2  C   LIG A   1      -7.957   0.669 129.684  0.00  0.00    +0.201 A 
ATOM      3  C   LIG A   1      -7.677  -0.330 128.636  0.00  0.00    +0.065 A 
ATOM      4  C   LIG A   1      -7.785  -1.706 128.912  0.00  0.00    +0.019 A 
ATOM      5  C   LIG A   1      -7.575  -2.642 127.896  0.00  0.00    +0.047 A 
ATOM      6  C   LIG A   1      -7.264  -2.171 126.636  0.00  0.00    +0.128 A 
ATOM      7  C   LIG A   1      -7.123  -0.820 126.368  0.00  0.00    +0.041 A 
ATOM      8  C   LIG A   1      -6.709  -0.636 124.959  0.00  0.00    +0.091 C 
ATOM      9  C   LIG A   1      -6.963  -2.059 124.424  0.00  0.00    +0.203 C 
ATOM     10  O   LIG A   1      -7.059  -2.977 125.549  0.00  0.00    -0.484 OA
ATOM     11  C   LIG A   1      -7.329   0.117 127.364  0.00  0.00    +0.146 A 
ATOM     12  O   LIG A   1      -7.187   1.437 127.055  0.00  0.00    -0.455 OA
ATOM     13  C   LIG A   1      -7.590   2.371 127.991  0.00  0.00    +0.154 A 
ATOM     14  C   LIG A   1      -7.975   2.095 129.250  0.00  0.00    +0.074 A 
ATOM     15  C   LIG A   1      -8.439   3.232 130.069  0.00  0.00    +0.035 A 
ATOM     16  C   LIG A   1      -8.658   3.161 131.452  0.00  0.00    +0.061 A 
ATOM     17  C   LIG A   1      -9.227   4.237 132.153  0.00  0.00    +0.162 A 
ATOM     18  C   LIG A   1      -9.545   5.428 131.478  0.00  0.00    +0.165 A 
ATOM     19  C   LIG A   1      -9.291   5.519 130.110  0.00  0.00    +0.095 A 
ATOM     20  C   LIG A   1      -8.741   4.437 129.422  0.00  0.00    +0.133 A 
ATOM     21  O   LIG A   1      -8.580   4.622 128.073  0.00  0.00    -0.484 OA
ATOM     22  C   LIG A   1      -7.594   3.779 127.472  0.00  0.00    +0.303 C 
ENDROOT
BRANCH   9  23
ATOM     23  C   LIG A   1      -5.894  -2.542 123.463  0.00  0.00    -0.040 C 
ATOM     24  C   LIG A   1      -4.936  -3.589 123.966  0.00  0.00    +0.042 C 
ATOM     25  C   LIG A   1      -5.808  -2.070 122.208  0.00  0.00    +0.011 C 
ENDBRANCH   9  23
BRANCH  17  26
ATOM     26  O   LIG A   1      -9.476   4.206 133.504  0.00  0.00    -0.491 OA
ATOM     27  C   LIG A   1      -8.330   4.146 134.346  0.00  0.00    +0.277 C 
ENDBRANCH  17  26
BRANCH  18  28
ATOM     28  O   LIG A   1     -10.117   6.428 132.224  0.00  0.00    -0.491 OA
ATOM     29  C   LIG A   1     -11.505   6.669 132.033  0.00  0.00    +0.277 C 
ENDBRANCH  18  28
TORSDOF 3
ENDMDL
MODEL 3
REMARK VINA RESULT:      -8.0      3.357      8.683
REMARK  Name = NuBBE_1451
REMARK  6 active torsions:
REMARK  status: ('A' for Active; 'I' for Inactive)
REMARK    1  A    between atoms: C_9  and  C_10
REMARK    2  A    between atoms: C_10  and  C_11
REMARK    3  A    between atoms: C_20  and  O_21
REMARK    4  A    between atoms: O_21  and  C_22
REMARK    5  A    between atoms: C_23  and  O_24
REMARK    6  A    between atoms: O_24  and  C_25
REMARK                            x       y       z     vdW  Elec       q    Type
REMARK                         _______ _______ _______ _____ _____    ______ ____
ROOT
ATOM      1  O   LIG A   1      -5.061   4.449 125.489  0.00  0.00    -0.286 OA
ATOM      2  C   LIG A   1      -6.118   3.958 125.855  0.00  0.00    +0.201 A 
ATOM      3  C   LIG A   1      -6.478   3.974 127.284  0.00  0.00    +0.065 A 
ATOM      4  C   LIG A   1      -5.672   4.653 128.218  0.00  0.00    +0.019 A 
ATOM      5  C   LIG A   1      -6.054   4.712 129.561  0.00  0.00    +0.047 A 
ATOM      6  C   LIG A   1      -7.232   4.091 129.926  0.00  0.00    +0.128 A 
ATOM      7  C   LIG A   1      -8.010   3.394 129.018  0.00  0.00    +0.041 A 
ATOM      8  C   LIG A   1      -9.156   2.775 129.722  0.00  0.00    +0.091 C 
ATOM      9  C   LIG A   1      -9.058   3.508 131.075  0.00  0.00    +0.203 C 
ATOM     10  O   LIG A   1      -7.732   4.095 131.200  0.00  0.00    -0.484 OA
ATOM     11  C   LIG A   1      -7.644   3.327 127.687  0.00  0.00    +0.146 A 
ATOM     12  O   LIG A   1      -8.444   2.636 126.825  0.00  0.00    -0.455 OA
ATOM     13  C   LIG A   1      -8.186   2.744 125.471  0.00  0.00    +0.154 A 
ATOM     14  C   LIG A   1      -7.118   3.355 124.927  0.00  0.00    +0.074 A 
ATOM     15  C   LIG A   1      -7.067   3.423 123.454  0.00  0.00    +0.035 A 
ATOM     16  C   LIG A   1      -5.934   3.816 122.728  0.00  0.00    +0.061 A 
ATOM     17  C   LIG A   1      -5.989   3.990 121.335  0.00  0.00    +0.162 A 
ATOM     18  C   LIG A   1      -7.181   3.725 120.638  0.00  0.00    +0.165 A 
ATOM     19  C   LIG A   1      -8.299   3.294 121.351  0.00  0.00    +0.095 A 
ATOM     20  C   LIG A   1      -8.236   3.141 122.737  0.00  0.00    +0.133 A 
ATOM     21  O   LIG A   1      -9.409   2.760 123.336  0.00  0.00    -0.484 OA
ATOM     22  C   LIG A   1      -9.246   2.126 124.608  0.00  0.00    +0.303 C 
ENDROOT
BRANCH   9  23
ATOM     23  C   LIG A   1      -9.333   2.612 132.267  0.00  0.00    -0.040 C 
ATOM     24  C   LIG A   1      -9.254   3.239 133.633  0.00  0.00    +0.042 C 
ATOM     25  C   LIG A   1      -9.647   1.314 132.118  0.00  0.00    +0.011 C 
ENDBRANCH   9  23
BRANCH  17  26
ATOM     26  O   LIG A   1      -4.909   4.391 120.585  0.00  0.00    -0.491 OA
ATOM     27  C   LIG A   1      -4.171   5.495 121.098  0.00  0.00    +0.277 C 
ENDBRANCH  17  26
BRANCH  18  28
ATOM     28  O   LIG A   1      -7.164   3.937 119.283  0.00  0.00    -0.491 OA
ATOM     29  C   LIG A   1      -8.345   4.465 118.694  0.00  0.00    +0.277 C 
ENDBRANCH  18  28
TORSDOF 3
ENDMDL
MODEL 4
REMARK VINA RESULT:      -8.0      5.256      7.383
REMARK  Name = NuBBE_1451
REMARK  6 active torsions:
REMARK  status: ('A' for Active; 'I' for Inactive)
REMARK    1  A    between atoms: C_9  and  C_10
REMARK    2  A    between atoms: C_10  and  C_11
REMARK    3  A    between atoms: C_20  and  O_21
REMARK    4  A    between atoms: O_21  and  C_22
REMARK    5  A    between atoms: C_23  and  O_24
REMARK    6  A    between atoms: O_24  and  C_25
REMARK                            x       y       z     vdW  Elec       q    Type
REMARK                         _______ _______ _______ _____ _____    ______ ____
ROOT
ATOM      1  O   LIG A   1      -7.829   0.564 133.197  0.00  0.00    -0.286 OA
ATOM      2  C   LIG A   1      -8.108   1.151 132.163  0.00  0.00    +0.201 A 
ATOM      3  C   LIG A   1      -8.698   2.501 132.221  0.00  0.00    +0.065 A 
ATOM      4  C   LIG A   1      -8.835   3.169 133.453  0.00  0.00    +0.019 A 
ATOM      5  C   LIG A   1      -9.341   4.471 133.491  0.00  0.00    +0.047 A 
ATOM      6  C   LIG A   1      -9.692   5.064 132.293  0.00  0.00    +0.128 A 
ATOM      7  C   LIG A   1      -9.590   4.399 131.084  0.00  0.00    +0.041 A 
ATOM      8  C   LIG A   1     -10.115   5.261 130.000  0.00  0.00    +0.091 C 
ATOM      9  C   LIG A   1     -10.212   6.600 130.756  0.00  0.00    +0.203 C 
ATOM     10  O   LIG A   1     -10.174   6.340 132.187  0.00  0.00    -0.484 OA
ATOM     11  C   LIG A   1      -9.091   3.110 131.033  0.00  0.00    +0.146 A 
ATOM     12  O   LIG A   1      -9.001   2.495 129.819  0.00  0.00    -0.455 OA
ATOM     13  C   LIG A   1      -8.318   1.296 129.748  0.00  0.00    +0.154 A 
ATOM     14  C   LIG A   1      -7.856   0.598 130.801  0.00  0.00    +0.074 A 
ATOM     15  C   LIG A   1      -7.086  -0.625 130.505  0.00  0.00    +0.035 A 
ATOM     16  C   LIG A   1      -6.731  -1.579 131.469  0.00  0.00    +0.061 A 
ATOM     17  C   LIG A   1      -5.883  -2.653 131.151  0.00  0.00    +0.162 A 
ATOM     18  C   LIG A   1      -5.413  -2.813 129.836  0.00  0.00    +0.165 A 
ATOM     19  C   LIG A   1      -5.796  -1.891 128.863  0.00  0.00    +0.095 A 
ATOM     20  C   LIG A   1      -6.625  -0.818 129.196  0.00  0.00    +0.133 A 
ATOM     21  O   LIG A   1      -6.897   0.051 128.171  0.00  0.00    -0.484 OA
ATOM     22  C   LIG A   1      -8.092   0.816 128.344  0.00  0.00    +0.303 C 
ENDROOT
BRANCH   9  23
ATOM     23  C   LIG A   1     -11.456   7.396 130.416  0.00  0.00    -0.040 C 
ATOM     24  C   LIG A   1     -12.626   7.282 131.355  0.00  0.00    +0.042 C 
ATOM     25  C   LIG A   1     -11.515   8.185 129.329  0.00  0.00    +0.011 C 
ENDBRANCH   9  23
BRANCH  17  26
ATOM     26  O   LIG A   1      -5.495  -3.600 132.068  0.00  0.00    -0.491 OA
ATOM     27  C   LIG A   1      -6.372  -3.792 133.173  0.00  0.00    +0.277 C 
ENDBRANCH  17  26
BRANCH  18  28
ATOM     28  O   LIG A   1      -4.573  -3.874 129.605  0.00  0.00    -0.491 OA
ATOM     29  C   LIG A   1      -3.233  -3.573 129.240  0.00  0.00    +0.277 C 
ENDBRANCH  18  28
TORSDOF 3
ENDMDL
MODEL 5
REMARK VINA RESULT:      -7.7      3.472      6.504
REMARK  Name = NuBBE_1451
REMARK  6 active torsions:
REMARK  status: ('A' for Active; 'I' for Inactive)
REMARK    1  A    between atoms: C_9  and  C_10
REMARK    2  A    between atoms: C_10  and  C_11
REMARK    3  A    between atoms: C_20  and  O_21
REMARK    4  A    between atoms: O_21  and  C_22
REMARK    5  A    between atoms: C_23  and  O_24
REMARK    6  A    between atoms: O_24  and  C_25
REMARK                            x       y       z     vdW  Elec       q    Type
REMARK                         _______ _______ _______ _____ _____    ______ ____
ROOT
ATOM      1  O   LIG A   1      -8.693   3.440 128.151  0.00  0.00    -0.286 OA
ATOM      2  C   LIG A   1      -8.268   2.316 128.366  0.00  0.00    +0.201 A 
ATOM      3  C   LIG A   1      -7.739   1.506 127.253  0.00  0.00    +0.065 A 
ATOM      4  C   LIG A   1      -7.611   2.058 125.964  0.00  0.00    +0.019 A 
ATOM      5  C   LIG A   1      -7.054   1.301 124.930  0.00  0.00    +0.047 A 
ATOM      6  C   LIG A   1      -6.641   0.015 125.220  0.00  0.00    +0.128 A 
ATOM      7  C   LIG A   1      -6.795  -0.543 126.477  0.00  0.00    +0.041 A 
ATOM      8  C   LIG A   1      -6.337  -1.950 126.452  0.00  0.00    +0.091 C 
ATOM      9  C   LIG A   1      -5.616  -1.966 125.090  0.00  0.00    +0.203 C 
ATOM     10  O   LIG A   1      -6.057  -0.821 124.308  0.00  0.00    -0.484 OA
ATOM     11  C   LIG A   1      -7.346   0.195 127.509  0.00  0.00    +0.146 A 
ATOM     12  O   LIG A   1      -7.473  -0.392 128.733  0.00  0.00    -0.455 OA
ATOM     13  C   LIG A   1      -7.829   0.408 129.803  0.00  0.00    +0.154 A 
ATOM     14  C   LIG A   1      -8.210   1.695 129.721  0.00  0.00    +0.074 A 
ATOM     15  C   LIG A   1      -8.480   2.393 130.992  0.00  0.00    +0.035 A 
ATOM     16  C   LIG A   1      -9.096   3.650 131.080  0.00  0.00    +0.061 A 
ATOM     17  C   LIG A   1      -9.203   4.322 132.308  0.00  0.00    +0.162 A 
ATOM     18  C   LIG A   1      -8.731   3.717 133.486  0.00  0.00    +0.165 A 
ATOM     19  C   LIG A   1      -8.155   2.449 133.411  0.00  0.00    +0.095 A 
ATOM     20  C   LIG A   1      -8.039   1.799 132.181  0.00  0.00    +0.133 A 
ATOM     21  O   LIG A   1      -7.413   0.580 132.222  0.00  0.00    -0.484 OA
ATOM     22  C   LIG A   1      -7.731  -0.287 131.130  0.00  0.00    +0.303 C 
ENDROOT
BRANCH   9  23
ATOM     23  C   LIG A   1      -5.844  -3.240 124.301  0.00  0.00    -0.040 C 
ATOM     24  C   LIG A   1      -7.249  -3.780 124.253  0.00  0.00    +0.042 C 
ATOM     25  C   LIG A   1      -4.841  -3.862 123.657  0.00  0.00    +0.011 C 
ENDBRANCH   9  23
BRANCH  17  26
ATOM     26  O   LIG A   1      -9.783   5.561 132.438  0.00  0.00    -0.491 OA
ATOM     27  C   LIG A   1      -9.481   6.500 131.411  0.00  0.00    +0.277 C 
ENDBRANCH  17  26
BRANCH  18  28
ATOM     28  O   LIG A   1      -8.852   4.442 134.645  0.00  0.00    -0.491 OA
ATOM     29  C   LIG A   1      -7.665   5.011 135.181  0.00  0.00    +0.277 C 
ENDBRANCH  18  28
TORSDOF 3
ENDMDL
MODEL 6
REMARK VINA RESULT:      -7.7      7.188      7.597
REMARK  Name = NuBBE_1451
REMARK  6 active torsions:
REMARK  status: ('A' for Active; 'I' for Inactive)
REMARK    1  A    between atoms: C_9  and  C_10
REMARK    2  A    between atoms: C_10  and  C_11
REMARK    3  A    between atoms: C_20  and  O_21
REMARK    4  A    between atoms: O_21  and  C_22
REMARK    5  A    between atoms: C_23  and  O_24
REMARK    6  A    between atoms: O_24  and  C_25
REMARK                            x       y       z     vdW  Elec       q    Type
REMARK                         _______ _______ _______ _____ _____    ______ ____
ROOT
ATOM      1  O   LIG A   1      -6.459   4.246 132.828  0.00  0.00    -0.286 OA
ATOM      2  C   LIG A   1      -7.539   4.011 132.308  0.00  0.00    +0.201 A 
ATOM      3  C   LIG A   1      -8.251   5.078 131.582  0.00  0.00    +0.065 A 
ATOM      4  C   LIG A   1      -7.647   6.333 131.381  0.00  0.00    +0.019 A 
ATOM      5  C   LIG A   1      -8.307   7.317 130.640  0.00  0.00    +0.047 A 
ATOM      6  C   LIG A   1      -9.551   7.013 130.123  0.00  0.00    +0.128 A 
ATOM      7  C   LIG A   1     -10.163   5.792 130.346  0.00  0.00    +0.041 A 
ATOM      8  C   LIG A   1     -11.512   5.797 129.737  0.00  0.00    +0.091 C 
ATOM      9  C   LIG A   1     -11.407   7.074 128.881  0.00  0.00    +0.203 C 
ATOM     10  O   LIG A   1     -10.291   7.875 129.360  0.00  0.00    -0.484 OA
ATOM     11  C   LIG A   1      -9.521   4.809 131.078  0.00  0.00    +0.146 A 
ATOM     12  O   LIG A   1     -10.158   3.618 131.267  0.00  0.00    -0.455 OA
ATOM     13  C   LIG A   1      -9.436   2.576 131.818  0.00  0.00    +0.154 A 
ATOM     14  C   LIG A   1      -8.194   2.671 132.325  0.00  0.00    +0.074 A 
ATOM     15  C   LIG A   1      -7.570   1.421 132.800  0.00  0.00    +0.035 A 
ATOM     16  C   LIG A   1      -6.389   1.373 133.555  0.00  0.00    +0.061 A 
ATOM     17  C   LIG A   1      -5.773   0.149 133.861  0.00  0.00    +0.162 A 
ATOM     18  C   LIG A   1      -6.363  -1.059 133.452  0.00  0.00    +0.165 A 
ATOM     19  C   LIG A   1      -7.559  -1.019 132.736  0.00  0.00    +0.095 A 
ATOM     20  C   LIG A   1      -8.153   0.204 132.423  0.00  0.00    +0.133 A 
ATOM     21  O   LIG A   1      -9.299   0.123 131.676  0.00  0.00    -0.484 OA
ATOM     22  C   LIG A   1     -10.159   1.262 131.783  0.00  0.00    +0.303 C 
ENDROOT
BRANCH   9  23
ATOM     23  C   LIG A   1     -12.672   7.910 128.887  0.00  0.00    -0.040 C 
ATOM     24  C   LIG A   1     -12.779   8.993 129.926  0.00  0.00    +0.042 C 
ATOM     25  C   LIG A   1     -13.657   7.707 127.994  0.00  0.00    +0.011 C 
ENDBRANCH   9  23
BRANCH  17  26
ATOM     26  O   LIG A   1      -4.607   0.056 134.583  0.00  0.00    -0.491 OA
ATOM     27  C   LIG A   1      -3.432   0.524 133.929  0.00  0.00    +0.277 C 
ENDBRANCH  17  26
BRANCH  18  28
ATOM     28  O   LIG A   1      -5.693  -2.213 133.771  0.00  0.00    -0.491 OA
ATOM     29  C   LIG A   1      -5.238  -3.019 132.691  0.00  0.00    +0.277 C 
ENDBRANCH  18  28
TORSDOF 3
ENDMDL
MODEL 7
REMARK VINA RESULT:      -7.5      1.579      9.160
REMARK  Name = NuBBE_1451
REMARK  6 active torsions:
REMARK  status: ('A' for Active; 'I' for Inactive)
REMARK    1  A    between atoms: C_9  and  C_10
REMARK    2  A    between atoms: C_10  and  C_11
REMARK    3  A    between atoms: C_20  and  O_21
REMARK    4  A    between atoms: O_21  and  C_22
REMARK    5  A    between atoms: C_23  and  O_24
REMARK    6  A    between atoms: O_24  and  C_25
REMARK                            x       y       z     vdW  Elec       q    Type
REMARK                         _______ _______ _______ _____ _____    ______ ____
ROOT
ATOM      1  O   LIG A   1      -8.234  -0.317 125.101  0.00  0.00    -0.286 OA
ATOM      2  C   LIG A   1      -7.678  -0.032 126.150  0.00  0.00    +0.201 A 
ATOM      3  C   LIG A   1      -7.672  -0.997 127.264  0.00  0.00    +0.065 A 
ATOM      4  C   LIG A   1      -8.201  -2.291 127.093  0.00  0.00    +0.019 A 
ATOM      5  C   LIG A   1      -8.137  -3.217 128.137  0.00  0.00    +0.047 A 
ATOM      6  C   LIG A   1      -7.545  -2.819 129.320  0.00  0.00    +0.128 A 
ATOM      7  C   LIG A   1      -7.054  -1.538 129.504  0.00  0.00    +0.041 A 
ATOM      8  C   LIG A   1      -6.559  -1.394 130.892  0.00  0.00    +0.091 C 
ATOM      9  C   LIG A   1      -6.558  -2.873 131.324  0.00  0.00    +0.203 C 
ATOM     10  O   LIG A   1      -7.395  -3.634 130.409  0.00  0.00    -0.484 OA
ATOM     11  C   LIG A   1      -7.111  -0.612 128.479  0.00  0.00    +0.146 A 
ATOM     12  O   LIG A   1      -6.609   0.637 128.702  0.00  0.00    -0.455 OA
ATOM     13  C   LIG A   1      -6.482   1.488 127.620  0.00  0.00    +0.154 A 
ATOM     14  C   LIG A   1      -6.950   1.249 126.381  0.00  0.00    +0.074 A 
ATOM     15  C   LIG A   1      -6.644   2.257 125.348  0.00  0.00    +0.035 A 
ATOM     16  C   LIG A   1      -7.238   2.280 124.078  0.00  0.00    +0.061 A 
ATOM     17  C   LIG A   1      -6.808   3.183 123.092  0.00  0.00    +0.162 A 
ATOM     18  C   LIG A   1      -5.798   4.116 123.383  0.00  0.00    +0.165 A 
ATOM     19  C   LIG A   1      -5.233   4.125 124.657  0.00  0.00    +0.095 A 
ATOM     20  C   LIG A   1      -5.657   3.212 125.623  0.00  0.00    +0.133 A 
ATOM     21  O   LIG A   1      -4.998   3.282 126.823  0.00  0.00    -0.484 OA
ATOM     22  C   LIG A   1      -5.725   2.746 127.932  0.00  0.00    +0.303 C 
ENDROOT
BRANCH   9  23
ATOM     23  C   LIG A   1      -7.035  -3.086 132.747  0.00  0.00    -0.040 C 
ATOM     24  C   LIG A   1      -6.415  -4.219 133.520  0.00  0.00    +0.042 C 
ATOM     25  C   LIG A   1      -7.964  -2.291 133.308  0.00  0.00    +0.011 C 
ENDBRANCH   9  23
BRANCH  17  26
ATOM     26  O   LIG A   1      -7.348   3.229 121.829  0.00  0.00    -0.491 OA
ATOM     27  C   LIG A   1      -8.766   3.117 121.754  0.00  0.00    +0.277 C 
ENDBRANCH  17  26
BRANCH  18  28
ATOM     28  O   LIG A   1      -5.417   4.952 122.363  0.00  0.00    -0.491 OA
ATOM     29  C   LIG A   1      -4.143   4.720 121.776  0.00  0.00    +0.277 C 
ENDBRANCH  18  28
TORSDOF 3
ENDMDL
MODEL 8
REMARK VINA RESULT:      -7.5      4.146      7.485
REMARK  Name = NuBBE_1451
REMARK  6 active torsions:
REMARK  status: ('A' for Active; 'I' for Inactive)
REMARK    1  A    between atoms: C_9  and  C_10
REMARK    2  A    between atoms: C_10  and  C_11
REMARK    3  A    between atoms: C_20  and  O_21
REMARK    4  A    between atoms: O_21  and  C_22
REMARK    5  A    between atoms: C_23  and  O_24
REMARK    6  A    between atoms: O_24  and  C_25
REMARK                            x       y       z     vdW  Elec       q    Type
REMARK                         _______ _______ _______ _____ _____    ______ ____
ROOT
ATOM      1  O   LIG A   1      -4.127   2.533 125.906  0.00  0.00    -0.286 OA
ATOM      2  C   LIG A   1      -4.767   2.915 126.875  0.00  0.00    +0.201 A 
ATOM      3  C   LIG A   1      -4.188   3.917 127.788  0.00  0.00    +0.065 A 
ATOM      4  C   LIG A   1      -2.953   4.525 127.493  0.00  0.00    +0.019 A 
ATOM      5  C   LIG A   1      -2.442   5.516 128.335  0.00  0.00    +0.047 A 
ATOM      6  C   LIG A   1      -3.184   5.867 129.446  0.00  0.00    +0.128 A 
ATOM      7  C   LIG A   1      -4.382   5.248 129.758  0.00  0.00    +0.041 A 
ATOM      8  C   LIG A   1      -4.893   5.780 131.042  0.00  0.00    +0.091 C 
ATOM      9  C   LIG A   1      -3.966   7.000 131.207  0.00  0.00    +0.203 C 
ATOM     10  O   LIG A   1      -2.811   6.837 130.336  0.00  0.00    -0.484 OA
ATOM     11  C   LIG A   1      -4.899   4.266 128.933  0.00  0.00    +0.146 A 
ATOM     12  O   LIG A   1      -6.086   3.687 129.275  0.00  0.00    -0.455 OA
ATOM     13  C   LIG A   1      -6.695   2.860 128.350  0.00  0.00    +0.154 A 
ATOM     14  C   LIG A   1      -6.149   2.452 127.191  0.00  0.00    +0.074 A 
ATOM     15  C   LIG A   1      -6.997   1.628 126.308  0.00  0.00    +0.035 A 
ATOM     16  C   LIG A   1      -6.519   0.938 125.185  0.00  0.00    +0.061 A 
ATOM     17  C   LIG A   1      -7.397   0.281 124.308  0.00  0.00    +0.162 A 
ATOM     18  C   LIG A   1      -8.778   0.267 124.573  0.00  0.00    +0.165 A 
ATOM     19  C   LIG A   1      -9.254   0.916 125.711  0.00  0.00    +0.095 A 
ATOM     20  C   LIG A   1      -8.373   1.580 126.566  0.00  0.00    +0.133 A 
ATOM     21  O   LIG A   1      -8.958   2.223 127.625  0.00  0.00    -0.484 OA
ATOM     22  C   LIG A   1      -8.087   2.452 128.736  0.00  0.00    +0.303 C 
ENDROOT
BRANCH   9  23
ATOM     23  C   LIG A   1      -3.501   7.215 132.634  0.00  0.00    -0.040 C 
ATOM     24  C   LIG A   1      -4.132   6.362 133.701  0.00  0.00    +0.042 C 
ATOM     25  C   LIG A   1      -2.555   8.120 132.939  0.00  0.00    +0.011 C 
ENDBRANCH   9  23
BRANCH  17  26
ATOM     26  O   LIG A   1      -6.975  -0.392 123.187  0.00  0.00    -0.491 OA
ATOM     27  C   LIG A   1      -6.361  -1.656 123.414  0.00  0.00    +0.277 C 
ENDBRANCH  17  26
BRANCH  18  28
ATOM     28  O   LIG A   1      -9.576  -0.378 123.662  0.00  0.00    -0.491 OA
ATOM     29  C   LIG A   1     -10.182   0.419 122.652  0.00  0.00    +0.277 C 
ENDBRANCH  18  28
TORSDOF 3
ENDMDL
MODEL 9
REMARK VINA RESULT:      -7.4      3.606      7.114
REMARK  Name = NuBBE_1451
REMARK  6 active torsions:
REMARK  status: ('A' for Active; 'I' for Inactive)
REMARK    1  A    between atoms: C_9  and  C_10
REMARK    2  A    between atoms: C_10  and  C_11
REMARK    3  A    between atoms: C_20  and  O_21
REMARK    4  A    between atoms: O_21  and  C_22
REMARK    5  A    between atoms: C_23  and  O_24
REMARK    6  A    between atoms: O_24  and  C_25
REMARK                            x       y       z     vdW  Elec       q    Type
REMARK                         _______ _______ _______ _____ _____    ______ ____
ROOT
ATOM      1  O   LIG A   1      -5.509   4.611 125.587  0.00  0.00    -0.286 OA
ATOM      2  C   LIG A   1      -5.692   3.544 126.154  0.00  0.00    +0.201 A 
ATOM      3  C   LIG A   1      -6.304   2.420 125.423  0.00  0.00    +0.065 A 
ATOM      4  C   LIG A   1      -6.573   2.524 124.045  0.00  0.00    +0.019 A 
ATOM      5  C   LIG A   1      -7.099   1.432 123.349  0.00  0.00    +0.047 A 
ATOM      6  C   LIG A   1      -7.337   0.269 124.056  0.00  0.00    +0.128 A 
ATOM      7  C   LIG A   1      -7.104   0.173 125.416  0.00  0.00    +0.041 A 
ATOM      8  C   LIG A   1      -7.531  -1.161 125.897  0.00  0.00    +0.091 C 
ATOM      9  C   LIG A   1      -7.722  -1.876 124.546  0.00  0.00    +0.203 C 
ATOM     10  O   LIG A   1      -7.824  -0.878 123.492  0.00  0.00    -0.484 OA
ATOM     11  C   LIG A   1      -6.585   1.246 126.117  0.00  0.00    +0.146 A 
ATOM     12  O   LIG A   1      -6.365   1.105 127.455  0.00  0.00    -0.455 OA
ATOM     13  C   LIG A   1      -5.660   2.100 128.106  0.00  0.00    +0.154 A 
ATOM     14  C   LIG A   1      -5.296   3.277 127.567  0.00  0.00    +0.074 A 
ATOM     15  C   LIG A   1      -4.483   4.174 128.411  0.00  0.00    +0.035 A 
ATOM     16  C   LIG A   1      -4.213   5.513 128.095  0.00  0.00    +0.061 A 
ATOM     17  C   LIG A   1      -3.322   6.276 128.868  0.00  0.00    +0.162 A 
ATOM     18  C   LIG A   1      -2.720   5.715 130.008  0.00  0.00    +0.165 A 
ATOM     19  C   LIG A   1      -3.017   4.397 130.350  0.00  0.00    +0.095 A 
ATOM     20  C   LIG A   1      -3.891   3.644 129.564  0.00  0.00    +0.133 A 
ATOM     21  O   LIG A   1      -4.071   2.347 129.968  0.00  0.00    -0.484 OA
ATOM     22  C   LIG A   1      -5.288   1.748 129.517  0.00  0.00    +0.303 C 
ENDROOT
BRANCH   9  23
ATOM     23  C   LIG A   1      -8.938  -2.782 124.509  0.00  0.00    -0.040 C 
ATOM     24  C   LIG A   1      -9.574  -3.136 125.826  0.00  0.00    +0.042 C 
ATOM     25  C   LIG A   1      -9.440  -3.243 123.350  0.00  0.00    +0.011 C 
ENDBRANCH   9  23
BRANCH  17  26
ATOM     26  O   LIG A   1      -3.014   7.585 128.586  0.00  0.00    -0.491 OA
ATOM     27  C   LIG A   1      -3.836   8.566 129.211  0.00  0.00    +0.277 C 
ENDBRANCH  17  26
BRANCH  18  28
ATOM     28  O   LIG A   1      -1.847   6.514 130.702  0.00  0.00    -0.491 OA
ATOM     29  C   LIG A   1      -2.021   6.596 132.111  0.00  0.00    +0.277 C 
ENDBRANCH  18  28
TORSDOF 3
ENDMDL
