MODEL 1
REMARK VINA RESULT:      -7.9      0.000      0.000
REMARK  Name = NuBBE_2385
REMARK  7 active torsions:
REMARK  status: ('A' for Active; 'I' for Inactive)
REMARK    1  A    between atoms: C_1  and  C_20
REMARK    2  A    between atoms: C_1  and  C_21
REMARK    3  A    between atoms: C_5  and  O_16
REMARK    4  A    between atoms: C_6  and  O_7
REMARK    5  A    between atoms: C_8  and  C_13
REMARK    6  A    between atoms: C_13  and  C_14
REMARK    7  A    between atoms: C_13  and  C_15
REMARK                            x       y       z     vdW  Elec       q    Type
REMARK                         _______ _______ _______ _____ _____    ______ ____
ROOT
ATOM      1  C   LIG A   1      -8.413  -2.348 124.143  0.00  0.00    -0.032 C 
ATOM      2  C   LIG A   1      -8.047  -2.864 125.579  0.00  0.00    +0.003 C 
ATOM      3  C   LIG A   1      -7.120  -1.867 126.336  0.00  0.00    +0.027 C 
ATOM      4  C   LIG A   1      -6.804  -2.302 127.760  0.00  0.00    +0.004 A 
ATOM      5  C   LIG A   1      -5.694  -1.808 128.464  0.00  0.00    +0.162 A 
ATOM      6  C   LIG A   1      -5.439  -2.187 129.790  0.00  0.00    +0.162 A 
ATOM      7  C   LIG A   1      -6.266  -3.077 130.468  0.00  0.00    +0.001 A 
ATOM      8  C   LIG A   1      -7.378  -3.572 129.771  0.00  0.00    +0.011 A 
ATOM      9  C   LIG A   1      -7.656  -3.197 128.438  0.00  0.00    -0.040 A 
ATOM     10  C   LIG A   1      -8.838  -3.846 127.765  0.00  0.00    +0.036 C 
ATOM     11  C   LIG A   1      -9.268  -3.184 126.461  0.00  0.00    +0.009 C 
ATOM     12  C   LIG A   1      -7.706  -0.440 126.347  0.00  0.00    +0.008 C 
ATOM     13  C   LIG A   1      -8.055   0.061 124.951  0.00  0.00    +0.001 C 
ATOM     14  C   LIG A   1      -8.968  -0.907 124.205  0.00  0.00    +0.007 C 
ATOM     15  C   LIG A   1      -7.157  -2.389 123.237  0.00  0.00    +0.011 C 
ATOM     16  C   LIG A   1      -9.468  -3.247 123.464  0.00  0.00    +0.011 C 
ENDROOT
BRANCH   7  17
ATOM     17  C   LIG A   1      -5.992  -3.476 131.908  0.00  0.00    +0.017 C 
ATOM     18  C   LIG A   1      -7.218  -3.210 132.785  0.00  0.00    +0.012 C 
ATOM     19  C   LIG A   1      -5.538  -4.933 132.037  0.00  0.00    +0.012 C 
ENDBRANCH   7  17
BRANCH   6  20
ATOM     20  O   LIG A   1      -4.342  -1.651 130.413  0.00  0.00    -0.503 OA
ATOM     21  H   LIG A   1      -4.420  -0.690 130.246  0.00  0.00    +0.292 HD
ENDBRANCH   6  20
BRANCH   5  22
ATOM     22  O   LIG A   1      -4.780  -0.930 127.930  0.00  0.00    -0.503 OA
ATOM     23  H   LIG A   1      -5.249  -0.171 127.552  0.00  0.00    +0.292 HD
ENDBRANCH   5  22
TORSDOF 3
ENDMDL
MODEL 2
REMARK VINA RESULT:      -7.4      2.100      6.596
REMARK  Name = NuBBE_2385
REMARK  7 active torsions:
REMARK  status: ('A' for Active; 'I' for Inactive)
REMARK    1  A    between atoms: C_1  and  C_20
REMARK    2  A    between atoms: C_1  and  C_21
REMARK    3  A    between atoms: C_5  and  O_16
REMARK    4  A    between atoms: C_6  and  O_7
REMARK    5  A    between atoms: C_8  and  C_13
REMARK    6  A    between atoms: C_13  and  C_14
REMARK    7  A    between atoms: C_13  and  C_15
REMARK                            x       y       z     vdW  Elec       q    Type
REMARK                         _______ _______ _______ _____ _____    ______ ____
ROOT
ATOM      1  C   LIG A   1      -5.168  -3.693 131.088  0.00  0.00    -0.032 C 
ATOM      2  C   LIG A   1      -5.520  -3.331 129.603  0.00  0.00    +0.003 C 
ATOM      3  C   LIG A   1      -7.056  -3.362 129.346  0.00  0.00    +0.027 C 
ATOM      4  C   LIG A   1      -7.439  -2.945 127.932  0.00  0.00    +0.004 A 
ATOM      5  C   LIG A   1      -8.673  -3.290 127.360  0.00  0.00    +0.162 A 
ATOM      6  C   LIG A   1      -9.027  -2.863 126.072  0.00  0.00    +0.162 A 
ATOM      7  C   LIG A   1      -8.170  -2.088 125.296  0.00  0.00    +0.001 A 
ATOM      8  C   LIG A   1      -6.937  -1.738 125.864  0.00  0.00    +0.011 A 
ATOM      9  C   LIG A   1      -6.565  -2.152 127.163  0.00  0.00    -0.040 A 
ATOM     10  C   LIG A   1      -5.186  -1.777 127.643  0.00  0.00    +0.036 C 
ATOM     11  C   LIG A   1      -4.959  -1.975 129.138  0.00  0.00    +0.009 C 
ATOM     12  C   LIG A   1      -7.823  -2.497 130.368  0.00  0.00    +0.008 C 
ATOM     13  C   LIG A   1      -7.483  -2.854 131.810  0.00  0.00    +0.001 C 
ATOM     14  C   LIG A   1      -5.981  -2.820 132.071  0.00  0.00    +0.007 C 
ATOM     15  C   LIG A   1      -5.465  -5.191 131.347  0.00  0.00    +0.011 C 
ATOM     16  C   LIG A   1      -3.666  -3.491 131.386  0.00  0.00    +0.011 C 
ENDROOT
BRANCH   7  17
ATOM     17  C   LIG A   1      -8.563  -1.619 123.905  0.00  0.00    +0.017 C 
ATOM     18  C   LIG A   1      -8.998  -0.152 123.932  0.00  0.00    +0.012 C 
ATOM     19  C   LIG A   1      -7.450  -1.837 122.877  0.00  0.00    +0.012 C 
ENDBRANCH   7  17
BRANCH   6  20
ATOM     20  O   LIG A   1     -10.256  -3.230 125.587  0.00  0.00    -0.503 OA
ATOM     21  H   LIG A   1     -10.142  -3.216 124.615  0.00  0.00    +0.292 HD
ENDBRANCH   6  20
BRANCH   5  22
ATOM     22  O   LIG A   1      -9.622  -4.057 127.994  0.00  0.00    -0.503 OA
ATOM     23  H   LIG A   1      -9.239  -4.917 128.220  0.00  0.00    +0.292 HD
ENDBRANCH   5  22
TORSDOF 3
ENDMDL
MODEL 3
REMARK VINA RESULT:      -7.4      1.530      6.248
REMARK  Name = NuBBE_2385
REMARK  7 active torsions:
REMARK  status: ('A' for Active; 'I' for Inactive)
REMARK    1  A    between atoms: C_1  and  C_20
REMARK    2  A    between atoms: C_1  and  C_21
REMARK    3  A    between atoms: C_5  and  O_16
REMARK    4  A    between atoms: C_6  and  O_7
REMARK    5  A    between atoms: C_8  and  C_13
REMARK    6  A    between atoms: C_13  and  C_14
REMARK    7  A    between atoms: C_13  and  C_15
REMARK                            x       y       z     vdW  Elec       q    Type
REMARK                         _______ _______ _______ _____ _____    ______ ____
ROOT
ATOM      1  C   LIG A   1      -6.227  -2.390 131.124  0.00  0.00    -0.032 C 
ATOM      2  C   LIG A   1      -6.991  -2.367 129.754  0.00  0.00    +0.003 C 
ATOM      3  C   LIG A   1      -6.041  -2.042 128.564  0.00  0.00    +0.027 C 
ATOM      4  C   LIG A   1      -6.736  -2.083 127.209  0.00  0.00    +0.004 A 
ATOM      5  C   LIG A   1      -6.211  -1.435 126.080  0.00  0.00    +0.162 A 
ATOM      6  C   LIG A   1      -6.842  -1.517 124.831  0.00  0.00    +0.162 A 
ATOM      7  C   LIG A   1      -8.021  -2.234 124.651  0.00  0.00    +0.001 A 
ATOM      8  C   LIG A   1      -8.548  -2.886 125.775  0.00  0.00    +0.011 A 
ATOM      9  C   LIG A   1      -7.924  -2.822 127.041  0.00  0.00    -0.040 A 
ATOM     10  C   LIG A   1      -8.618  -3.501 128.193  0.00  0.00    +0.036 C 
ATOM     11  C   LIG A   1      -7.760  -3.664 129.443  0.00  0.00    +0.009 C 
ATOM     12  C   LIG A   1      -4.811  -2.973 128.544  0.00  0.00    +0.008 C 
ATOM     13  C   LIG A   1      -4.067  -2.990 129.874  0.00  0.00    +0.001 C 
ATOM     14  C   LIG A   1      -4.990  -3.314 131.044  0.00  0.00    +0.007 C 
ATOM     15  C   LIG A   1      -5.786  -0.954 131.501  0.00  0.00    +0.011 C 
ATOM     16  C   LIG A   1      -7.129  -2.884 132.275  0.00  0.00    +0.011 C 
ENDROOT
BRANCH   7  17
ATOM     17  C   LIG A   1      -8.695  -2.328 123.293  0.00  0.00    +0.017 C 
ATOM     18  C   LIG A   1      -9.713  -3.470 123.272  0.00  0.00    +0.012 C 
ATOM     19  C   LIG A   1      -9.349  -1.009 122.870  0.00  0.00    +0.012 C 
ENDBRANCH   7  17
BRANCH   6  20
ATOM     20  O   LIG A   1      -6.261  -0.867 123.772  0.00  0.00    -0.503 OA
ATOM     21  H   LIG A   1      -6.797  -1.141 123.001  0.00  0.00    +0.292 HD
ENDBRANCH   6  20
BRANCH   5  22
ATOM     22  O   LIG A   1      -5.061  -0.682 126.097  0.00  0.00    -0.503 OA
ATOM     23  H   LIG A   1      -4.728  -0.584 125.192  0.00  0.00    +0.292 HD
ENDBRANCH   5  22
TORSDOF 3
ENDMDL
MODEL 4
REMARK VINA RESULT:      -7.3      9.110     11.383
REMARK  Name = NuBBE_2385
REMARK  7 active torsions:
REMARK  status: ('A' for Active; 'I' for Inactive)
REMARK    1  A    between atoms: C_1  and  C_20
REMARK    2  A    between atoms: C_1  and  C_21
REMARK    3  A    between atoms: C_5  and  O_16
REMARK    4  A    between atoms: C_6  and  O_7
REMARK    5  A    between atoms: C_8  and  C_13
REMARK    6  A    between atoms: C_13  and  C_14
REMARK    7  A    between atoms: C_13  and  C_15
REMARK                            x       y       z     vdW  Elec       q    Type
REMARK                         _______ _______ _______ _____ _____    ______ ____
ROOT
ATOM      1  C   LIG A   1      -4.717   4.578 133.557  0.00  0.00    -0.032 C 
ATOM      2  C   LIG A   1      -5.804   5.128 132.567  0.00  0.00    +0.003 C 
ATOM      3  C   LIG A   1      -7.219   5.156 133.216  0.00  0.00    +0.027 C 
ATOM      4  C   LIG A   1      -8.286   5.753 132.308  0.00  0.00    +0.004 A 
ATOM      5  C   LIG A   1      -9.655   5.504 132.498  0.00  0.00    +0.162 A 
ATOM      6  C   LIG A   1     -10.627   6.093 131.678  0.00  0.00    +0.162 A 
ATOM      7  C   LIG A   1     -10.284   6.944 130.631  0.00  0.00    +0.001 A 
ATOM      8  C   LIG A   1      -8.919   7.199 130.438  0.00  0.00    +0.011 A 
ATOM      9  C   LIG A   1      -7.924   6.620 131.258  0.00  0.00    -0.040 A 
ATOM     10  C   LIG A   1      -6.485   6.908 130.913  0.00  0.00    +0.036 C 
ATOM     11  C   LIG A   1      -5.484   6.521 131.996  0.00  0.00    +0.009 C 
ATOM     12  C   LIG A   1      -7.213   5.901 134.567  0.00  0.00    +0.008 C 
ATOM     13  C   LIG A   1      -6.161   5.362 135.528  0.00  0.00    +0.001 C 
ATOM     14  C   LIG A   1      -4.770   5.336 134.902  0.00  0.00    +0.007 C 
ATOM     15  C   LIG A   1      -4.946   3.065 133.797  0.00  0.00    +0.011 C 
ATOM     16  C   LIG A   1      -3.293   4.715 132.977  0.00  0.00    +0.011 C 
ENDROOT
BRANCH   7  17
ATOM     17  C   LIG A   1     -11.342   7.588 129.752  0.00  0.00    +0.017 C 
ATOM     18  C   LIG A   1     -10.691   8.410 128.637  0.00  0.00    +0.012 C 
ATOM     19  C   LIG A   1     -12.325   6.567 129.172  0.00  0.00    +0.012 C 
ENDBRANCH   7  17
BRANCH   6  20
ATOM     20  O   LIG A   1     -11.944   5.811 131.936  0.00  0.00    -0.503 OA
ATOM     21  H   LIG A   1     -11.909   5.029 132.523  0.00  0.00    +0.292 HD
ENDBRANCH   6  20
BRANCH   5  22
ATOM     22  O   LIG A   1     -10.152   4.681 133.482  0.00  0.00    -0.503 OA
ATOM     23  H   LIG A   1      -9.420   4.352 134.024  0.00  0.00    +0.292 HD
ENDBRANCH   5  22
TORSDOF 3
ENDMDL
MODEL 5
REMARK VINA RESULT:      -7.2      8.185     10.940
REMARK  Name = NuBBE_2385
REMARK  7 active torsions:
REMARK  status: ('A' for Active; 'I' for Inactive)
REMARK    1  A    between atoms: C_1  and  C_20
REMARK    2  A    between atoms: C_1  and  C_21
REMARK    3  A    between atoms: C_5  and  O_16
REMARK    4  A    between atoms: C_6  and  O_7
REMARK    5  A    between atoms: C_8  and  C_13
REMARK    6  A    between atoms: C_13  and  C_14
REMARK    7  A    between atoms: C_13  and  C_15
REMARK                            x       y       z     vdW  Elec       q    Type
REMARK                         _______ _______ _______ _____ _____    ______ ____
ROOT
ATOM      1  C   LIG A   1      -6.338   3.536 132.799  0.00  0.00    -0.032 C 
ATOM      2  C   LIG A   1      -7.013   4.570 131.832  0.00  0.00    +0.003 C 
ATOM      3  C   LIG A   1      -8.558   4.387 131.771  0.00  0.00    +0.027 C 
ATOM      4  C   LIG A   1      -9.253   5.422 130.896  0.00  0.00    +0.004 A 
ATOM      5  C   LIG A   1     -10.536   5.212 130.367  0.00  0.00    +0.162 A 
ATOM      6  C   LIG A   1     -11.179   6.192 129.597  0.00  0.00    +0.162 A 
ATOM      7  C   LIG A   1     -10.575   7.414 129.313  0.00  0.00    +0.001 A 
ATOM      8  C   LIG A   1      -9.295   7.629 129.842  0.00  0.00    +0.011 A 
ATOM      9  C   LIG A   1      -8.633   6.658 130.625  0.00  0.00    -0.040 A 
ATOM     10  C   LIG A   1      -7.230   6.970 131.081  0.00  0.00    +0.036 C 
ATOM     11  C   LIG A   1      -6.693   6.040 132.163  0.00  0.00    +0.009 C 
ATOM     12  C   LIG A   1      -9.189   4.389 133.178  0.00  0.00    +0.008 C 
ATOM     13  C   LIG A   1      -8.536   3.380 134.115  0.00  0.00    +0.001 C 
ATOM     14  C   LIG A   1      -7.023   3.557 134.185  0.00  0.00    +0.007 C 
ATOM     15  C   LIG A   1      -6.428   2.115 132.190  0.00  0.00    +0.011 C 
ATOM     16  C   LIG A   1      -4.835   3.830 132.995  0.00  0.00    +0.011 C 
ENDROOT
BRANCH   7  17
ATOM     17  C   LIG A   1     -11.281   8.476 128.488  0.00  0.00    +0.017 C 
ATOM     18  C   LIG A   1     -11.428   8.021 127.034  0.00  0.00    +0.012 C 
ATOM     19  C   LIG A   1     -12.640   8.867 129.075  0.00  0.00    +0.012 C 
ENDBRANCH   7  17
BRANCH   6  20
ATOM     20  O   LIG A   1     -12.437   5.918 129.126  0.00  0.00    -0.503 OA
ATOM     21  H   LIG A   1     -13.017   6.526 129.627  0.00  0.00    +0.292 HD
ENDBRANCH   6  20
BRANCH   5  22
ATOM     22  O   LIG A   1     -11.259   4.057 130.550  0.00  0.00    -0.503 OA
ATOM     23  H   LIG A   1     -11.660   4.067 131.432  0.00  0.00    +0.292 HD
ENDBRANCH   5  22
TORSDOF 3
ENDMDL
MODEL 6
REMARK VINA RESULT:      -6.9      9.264     11.307
REMARK  Name = NuBBE_2385
REMARK  7 active torsions:
REMARK  status: ('A' for Active; 'I' for Inactive)
REMARK    1  A    between atoms: C_1  and  C_20
REMARK    2  A    between atoms: C_1  and  C_21
REMARK    3  A    between atoms: C_5  and  O_16
REMARK    4  A    between atoms: C_6  and  O_7
REMARK    5  A    between atoms: C_8  and  C_13
REMARK    6  A    between atoms: C_13  and  C_14
REMARK    7  A    between atoms: C_13  and  C_15
REMARK                            x       y       z     vdW  Elec       q    Type
REMARK                         _______ _______ _______ _____ _____    ______ ____
ROOT
ATOM      1  C   LIG A   1      -2.448   5.680 132.680  0.00  0.00    -0.032 C 
ATOM      2  C   LIG A   1      -3.881   5.842 132.062  0.00  0.00    +0.003 C 
ATOM      3  C   LIG A   1      -4.999   5.581 133.113  0.00  0.00    +0.027 C 
ATOM      4  C   LIG A   1      -6.403   5.801 132.566  0.00  0.00    +0.004 A 
ATOM      5  C   LIG A   1      -7.538   5.239 133.172  0.00  0.00    +0.162 A 
ATOM      6  C   LIG A   1      -8.828   5.485 132.679  0.00  0.00    +0.162 A 
ATOM      7  C   LIG A   1      -9.045   6.287 131.563  0.00  0.00    +0.001 A 
ATOM      8  C   LIG A   1      -7.915   6.853 130.955  0.00  0.00    +0.011 A 
ATOM      9  C   LIG A   1      -6.608   6.624 131.440  0.00  0.00    -0.040 A 
ATOM     10  C   LIG A   1      -5.464   7.225 130.665  0.00  0.00    +0.036 C 
ATOM     11  C   LIG A   1      -4.126   7.208 131.395  0.00  0.00    +0.009 C 
ATOM     12  C   LIG A   1      -4.799   6.433 134.383  0.00  0.00    +0.008 C 
ATOM     13  C   LIG A   1      -3.408   6.270 134.985  0.00  0.00    +0.001 C 
ATOM     14  C   LIG A   1      -2.307   6.530 133.963  0.00  0.00    +0.007 C 
ATOM     15  C   LIG A   1      -2.184   4.189 133.005  0.00  0.00    +0.011 C 
ATOM     16  C   LIG A   1      -1.345   6.110 131.688  0.00  0.00    +0.011 C 
ENDROOT
BRANCH   7  17
ATOM     17  C   LIG A   1     -10.445   6.558 131.040  0.00  0.00    +0.017 C 
ATOM     18  C   LIG A   1     -10.409   7.585 129.906  0.00  0.00    +0.012 C 
ATOM     19  C   LIG A   1     -11.162   5.281 130.593  0.00  0.00    +0.012 C 
ENDBRANCH   7  17
BRANCH   6  20
ATOM     20  O   LIG A   1      -9.887   4.910 133.334  0.00  0.00    -0.503 OA
ATOM     21  H   LIG A   1      -9.585   3.999 133.521  0.00  0.00    +0.292 HD
ENDBRANCH   6  20
BRANCH   5  22
ATOM     22  O   LIG A   1      -7.489   4.419 134.275  0.00  0.00    -0.503 OA
ATOM     23  H   LIG A   1      -8.381   4.315 134.636  0.00  0.00    +0.292 HD
ENDBRANCH   5  22
TORSDOF 3
ENDMDL
MODEL 7
REMARK VINA RESULT:      -6.8      3.171      4.209
REMARK  Name = NuBBE_2385
REMARK  7 active torsions:
REMARK  status: ('A' for Active; 'I' for Inactive)
REMARK    1  A    between atoms: C_1  and  C_20
REMARK    2  A    between atoms: C_1  and  C_21
REMARK    3  A    between atoms: C_5  and  O_16
REMARK    4  A    between atoms: C_6  and  O_7
REMARK    5  A    between atoms: C_8  and  C_13
REMARK    6  A    between atoms: C_13  and  C_14
REMARK    7  A    between atoms: C_13  and  C_15
REMARK                            x       y       z     vdW  Elec       q    Type
REMARK                         _______ _______ _______ _____ _____    ______ ____
ROOT
ATOM      1  C   LIG A   1      -6.360  -2.677 124.184  0.00  0.00    -0.032 C 
ATOM      2  C   LIG A   1      -6.223  -1.731 125.428  0.00  0.00    +0.003 C 
ATOM      3  C   LIG A   1      -7.566  -1.022 125.770  0.00  0.00    +0.027 C 
ATOM      4  C   LIG A   1      -7.487  -0.152 127.017  0.00  0.00    +0.004 A 
ATOM      5  C   LIG A   1      -8.408   0.877 127.270  0.00  0.00    +0.162 A 
ATOM      6  C   LIG A   1      -8.346   1.643 128.442  0.00  0.00    +0.162 A 
ATOM      7  C   LIG A   1      -7.366   1.428 129.407  0.00  0.00    +0.001 A 
ATOM      8  C   LIG A   1      -6.445   0.399 129.161  0.00  0.00    +0.011 A 
ATOM      9  C   LIG A   1      -6.495  -0.388 127.989  0.00  0.00    -0.040 A 
ATOM     10  C   LIG A   1      -5.411  -1.418 127.797  0.00  0.00    +0.036 C 
ATOM     11  C   LIG A   1      -5.687  -2.430 126.691  0.00  0.00    +0.009 C 
ATOM     12  C   LIG A   1      -8.723  -2.032 125.914  0.00  0.00    +0.008 C 
ATOM     13  C   LIG A   1      -8.859  -2.946 124.703  0.00  0.00    +0.001 C 
ATOM     14  C   LIG A   1      -7.548  -3.649 124.365  0.00  0.00    +0.007 C 
ATOM     15  C   LIG A   1      -6.564  -1.830 122.903  0.00  0.00    +0.011 C 
ATOM     16  C   LIG A   1      -5.081  -3.511 123.954  0.00  0.00    +0.011 C 
ENDROOT
BRANCH   7  17
ATOM     17  C   LIG A   1      -7.310   2.254 130.680  0.00  0.00    +0.017 C 
ATOM     18  C   LIG A   1      -8.149   1.603 131.783  0.00  0.00    +0.012 C 
ATOM     19  C   LIG A   1      -5.876   2.496 131.160  0.00  0.00    +0.012 C 
ENDBRANCH   7  17
BRANCH   6  20
ATOM     20  O   LIG A   1      -9.289   2.622 128.623  0.00  0.00    -0.503 OA
ATOM     21  H   LIG A   1     -10.049   2.322 128.084  0.00  0.00    +0.292 HD
ENDBRANCH   6  20
BRANCH   5  22
ATOM     22  O   LIG A   1      -9.428   1.218 126.412  0.00  0.00    -0.503 OA
ATOM     23  H   LIG A   1      -9.095   1.845 125.753  0.00  0.00    +0.292 HD
ENDBRANCH   5  22
TORSDOF 3
ENDMDL
MODEL 8
REMARK VINA RESULT:      -6.8      8.713     10.128
REMARK  Name = NuBBE_2385
REMARK  7 active torsions:
REMARK  status: ('A' for Active; 'I' for Inactive)
REMARK    1  A    between atoms: C_1  and  C_20
REMARK    2  A    between atoms: C_1  and  C_21
REMARK    3  A    between atoms: C_5  and  O_16
REMARK    4  A    between atoms: C_6  and  O_7
REMARK    5  A    between atoms: C_8  and  C_13
REMARK    6  A    between atoms: C_13  and  C_14
REMARK    7  A    between atoms: C_13  and  C_15
REMARK                            x       y       z     vdW  Elec       q    Type
REMARK                         _______ _______ _______ _____ _____    ______ ____
ROOT
ATOM      1  C   LIG A   1     -11.961   7.418 130.125  0.00  0.00    -0.032 C 
ATOM      2  C   LIG A   1     -10.541   7.278 130.779  0.00  0.00    +0.003 C 
ATOM      3  C   LIG A   1     -10.397   5.948 131.576  0.00  0.00    +0.027 C 
ATOM      4  C   LIG A   1      -9.007   5.746 132.163  0.00  0.00    +0.004 A 
ATOM      5  C   LIG A   1      -8.768   4.869 133.233  0.00  0.00    +0.162 A 
ATOM      6  C   LIG A   1      -7.475   4.663 133.736  0.00  0.00    +0.162 A 
ATOM      7  C   LIG A   1      -6.370   5.323 133.208  0.00  0.00    +0.001 A 
ATOM      8  C   LIG A   1      -6.603   6.198 132.136  0.00  0.00    +0.011 A 
ATOM      9  C   LIG A   1      -7.896   6.414 131.611  0.00  0.00    -0.040 A 
ATOM     10  C   LIG A   1      -8.037   7.430 130.507  0.00  0.00    +0.036 C 
ATOM     11  C   LIG A   1      -9.376   7.394 129.779  0.00  0.00    +0.009 C 
ATOM     12  C   LIG A   1     -10.781   4.724 130.718  0.00  0.00    +0.008 C 
ATOM     13  C   LIG A   1     -12.162   4.860 130.089  0.00  0.00    +0.001 C 
ATOM     14  C   LIG A   1     -12.309   6.157 129.301  0.00  0.00    +0.007 C 
ATOM     15  C   LIG A   1     -13.025   7.635 131.228  0.00  0.00    +0.011 C 
ATOM     16  C   LIG A   1     -12.044   8.646 129.193  0.00  0.00    +0.011 C 
ENDROOT
BRANCH   7  17
ATOM     17  C   LIG A   1      -4.970   5.088 133.749  0.00  0.00    +0.017 C 
ATOM     18  C   LIG A   1      -4.272   3.968 132.975  0.00  0.00    +0.012 C 
ATOM     19  C   LIG A   1      -4.120   6.362 133.748  0.00  0.00    +0.012 C 
ENDBRANCH   7  17
BRANCH   6  20
ATOM     20  O   LIG A   1      -7.321   3.781 134.775  0.00  0.00    -0.503 OA
ATOM     21  H   LIG A   1      -8.154   3.267 134.775  0.00  0.00    +0.292 HD
ENDBRANCH   6  20
BRANCH   5  22
ATOM     22  O   LIG A   1      -9.754   4.151 133.868  0.00  0.00    -0.503 OA
ATOM     23  H   LIG A   1     -10.617   4.402 133.504  0.00  0.00    +0.292 HD
ENDBRANCH   5  22
TORSDOF 3
ENDMDL
MODEL 9
REMARK VINA RESULT:      -6.7      2.414      3.481
REMARK  Name = NuBBE_2385
REMARK  7 active torsions:
REMARK  status: ('A' for Active; 'I' for Inactive)
REMARK    1  A    between atoms: C_1  and  C_20
REMARK    2  A    between atoms: C_1  and  C_21
REMARK    3  A    between atoms: C_5  and  O_16
REMARK    4  A    between atoms: C_6  and  O_7
REMARK    5  A    between atoms: C_8  and  C_13
REMARK    6  A    between atoms: C_13  and  C_14
REMARK    7  A    between atoms: C_13  and  C_15
REMARK                            x       y       z     vdW  Elec       q    Type
REMARK                         _______ _______ _______ _____ _____    ______ ____
ROOT
ATOM      1  C   LIG A   1      -8.672  -1.937 123.673  0.00  0.00    -0.032 C 
ATOM      2  C   LIG A   1      -8.736  -1.239 125.076  0.00  0.00    +0.003 C 
ATOM      3  C   LIG A   1      -7.948  -2.034 126.158  0.00  0.00    +0.027 C 
ATOM      4  C   LIG A   1      -7.928  -1.348 127.517  0.00  0.00    +0.004 A 
ATOM      5  C   LIG A   1      -7.658  -2.046 128.704  0.00  0.00    +0.162 A 
ATOM      6  C   LIG A   1      -7.604  -1.391 129.942  0.00  0.00    +0.162 A 
ATOM      7  C   LIG A   1      -7.824  -0.022 130.057  0.00  0.00    +0.001 A 
ATOM      8  C   LIG A   1      -8.091   0.682 128.874  0.00  0.00    +0.011 A 
ATOM      9  C   LIG A   1      -8.143   0.042 127.616  0.00  0.00    -0.040 A 
ATOM     10  C   LIG A   1      -8.510   0.885 126.421  0.00  0.00    +0.036 C 
ATOM     11  C   LIG A   1      -8.250   0.222 125.073  0.00  0.00    +0.009 C 
ATOM     12  C   LIG A   1      -6.503  -2.333 125.707  0.00  0.00    +0.008 C 
ATOM     13  C   LIG A   1      -6.443  -3.016 124.346  0.00  0.00    +0.001 C 
ATOM     14  C   LIG A   1      -7.208  -2.239 123.279  0.00  0.00    +0.007 C 
ATOM     15  C   LIG A   1      -9.489  -3.252 123.705  0.00  0.00    +0.011 C 
ATOM     16  C   LIG A   1      -9.301  -1.061 122.568  0.00  0.00    +0.011 C 
ENDROOT
BRANCH   7  17
ATOM     17  C   LIG A   1      -7.753   0.685 131.400  0.00  0.00    +0.017 C 
ATOM     18  C   LIG A   1      -6.911   1.959 131.296  0.00  0.00    +0.012 C 
ATOM     19  C   LIG A   1      -9.138   0.994 131.974  0.00  0.00    +0.012 C 
ENDBRANCH   7  17
BRANCH   6  20
ATOM     20  O   LIG A   1      -7.321  -2.141 131.055  0.00  0.00    -0.503 OA
ATOM     21  H   LIG A   1      -8.200  -2.415 131.386  0.00  0.00    +0.292 HD
ENDBRANCH   6  20
BRANCH   5  22
ATOM     22  O   LIG A   1      -7.428  -3.401 128.758  0.00  0.00    -0.503 OA
ATOM     23  H   LIG A   1      -8.161  -3.867 128.329  0.00  0.00    +0.292 HD
ENDBRANCH   5  22
TORSDOF 3
ENDMDL
