MODEL 1
REMARK VINA RESULT:      -5.7      0.000      0.000
REMARK  Name = NuBBE_657
REMARK  3 active torsions:
REMARK  status: ('A' for Active; 'I' for Inactive)
REMARK    1  A    between atoms: C_5  and  O_8
REMARK    2  A    between atoms: C_5  and  C_9
REMARK    3  A    between atoms: C_9  and  C_10
REMARK                            x       y       z     vdW  Elec       q    Type
REMARK                         _______ _______ _______ _____ _____    ______ ____
ROOT
ATOM      1  O   LIG A   1     -10.475   6.680 126.157  0.00  0.00    -0.297 OA
ATOM      2  C   LIG A   1     -11.162   7.283 126.980  0.00  0.00    +0.134 C 
ATOM      3  C   LIG A   1     -12.667   7.129 127.011  0.00  0.00    +0.077 C 
ATOM      4  C   LIG A   1     -13.183   7.061 128.443  0.00  0.00    +0.042 C 
ATOM      5  C   LIG A   1     -12.658   8.204 129.334  0.00  0.00    +0.067 C 
ATOM      6  C   LIG A   1     -11.120   8.192 129.304  0.00  0.00    +0.042 C 
ATOM      7  C   LIG A   1     -10.556   8.324 127.897  0.00  0.00    +0.077 C 
ENDROOT
BRANCH   5   8
ATOM      8  O   LIG A   1     -13.083   7.942 130.675  0.00  0.00    -0.389 OA
ATOM      9  H   LIG A   1     -12.320   8.039 131.271  0.00  0.00    +0.210 HD
ENDBRANCH   5   8
BRANCH   5  10
ATOM     10  C   LIG A   1     -13.281   9.556 128.919  0.00  0.00    +0.031 C 
ATOM     11  C   LIG A   1     -13.330  10.599 130.032  0.00  0.00    +0.007 C 
ENDBRANCH   5  10
TORSDOF 2
ENDMDL
MODEL 2
REMARK VINA RESULT:      -5.2      1.950      3.585
REMARK  Name = NuBBE_657
REMARK  3 active torsions:
REMARK  status: ('A' for Active; 'I' for Inactive)
REMARK    1  A    between atoms: C_5  and  O_8
REMARK    2  A    between atoms: C_5  and  C_9
REMARK    3  A    between atoms: C_9  and  C_10
REMARK                            x       y       z     vdW  Elec       q    Type
REMARK                         _______ _______ _______ _____ _____    ______ ____
ROOT
ATOM      1  O   LIG A   1     -10.347   6.380 132.361  0.00  0.00    -0.297 OA
ATOM      2  C   LIG A   1     -10.965   6.722 131.354  0.00  0.00    +0.134 C 
ATOM      3  C   LIG A   1     -12.448   7.016 131.403  0.00  0.00    +0.077 C 
ATOM      4  C   LIG A   1     -12.797   8.226 130.547  0.00  0.00    +0.042 C 
ATOM      5  C   LIG A   1     -12.229   8.146 129.116  0.00  0.00    +0.067 C 
ATOM      6  C   LIG A   1     -10.705   7.952 129.198  0.00  0.00    +0.042 C 
ATOM      7  C   LIG A   1     -10.308   6.715 129.990  0.00  0.00    +0.077 C 
ENDROOT
BRANCH   5   8
ATOM      8  O   LIG A   1     -12.489   9.396 128.472  0.00  0.00    -0.389 OA
ATOM      9  H   LIG A   1     -11.924  10.080 128.873  0.00  0.00    +0.210 HD
ENDBRANCH   5   8
BRANCH   5  10
ATOM     10  C   LIG A   1     -12.954   7.055 128.297  0.00  0.00    +0.031 C 
ATOM     11  C   LIG A   1     -12.595   7.034 126.814  0.00  0.00    +0.007 C 
ENDBRANCH   5  10
TORSDOF 2
ENDMDL
MODEL 3
REMARK VINA RESULT:      -5.2      1.254      2.443
REMARK  Name = NuBBE_657
REMARK  3 active torsions:
REMARK  status: ('A' for Active; 'I' for Inactive)
REMARK    1  A    between atoms: C_5  and  O_8
REMARK    2  A    between atoms: C_5  and  C_9
REMARK    3  A    between atoms: C_9  and  C_10
REMARK                            x       y       z     vdW  Elec       q    Type
REMARK                         _______ _______ _______ _____ _____    ______ ____
ROOT
ATOM      1  O   LIG A   1     -11.075   7.593 125.491  0.00  0.00    -0.297 OA
ATOM      2  C   LIG A   1     -11.449   7.525 126.661  0.00  0.00    +0.134 C 
ATOM      3  C   LIG A   1     -10.468   7.640 127.807  0.00  0.00    +0.077 C 
ATOM      4  C   LIG A   1     -11.048   8.470 128.946  0.00  0.00    +0.042 C 
ATOM      5  C   LIG A   1     -12.455   8.013 129.377  0.00  0.00    +0.067 C 
ATOM      6  C   LIG A   1     -13.384   8.039 128.151  0.00  0.00    +0.042 C 
ATOM      7  C   LIG A   1     -12.878   7.170 127.009  0.00  0.00    +0.077 C 
ENDROOT
BRANCH   5   8
ATOM      8  O   LIG A   1     -12.947   8.958 130.333  0.00  0.00    -0.389 OA
ATOM      9  H   LIG A   1     -13.800   9.307 130.019  0.00  0.00    +0.210 HD
ENDBRANCH   5   8
BRANCH   5  10
ATOM     10  C   LIG A   1     -12.396   6.642 130.087  0.00  0.00    +0.031 C 
ATOM     11  C   LIG A   1     -11.936   6.702 131.541  0.00  0.00    +0.007 C 
ENDBRANCH   5  10
TORSDOF 2
ENDMDL
MODEL 4
REMARK VINA RESULT:      -5.1     12.147     13.284
REMARK  Name = NuBBE_657
REMARK  3 active torsions:
REMARK  status: ('A' for Active; 'I' for Inactive)
REMARK    1  A    between atoms: C_5  and  O_8
REMARK    2  A    between atoms: C_5  and  C_9
REMARK    3  A    between atoms: C_9  and  C_10
REMARK                            x       y       z     vdW  Elec       q    Type
REMARK                         _______ _______ _______ _____ _____    ______ ____
ROOT
ATOM      1  O   LIG A   1     -10.008  -3.053 123.356  0.00  0.00    -0.297 OA
ATOM      2  C   LIG A   1      -8.788  -2.928 123.451  0.00  0.00    +0.134 C 
ATOM      3  C   LIG A   1      -8.019  -2.001 122.535  0.00  0.00    +0.077 C 
ATOM      4  C   LIG A   1      -6.932  -1.253 123.297  0.00  0.00    +0.042 C 
ATOM      5  C   LIG A   1      -6.033  -2.178 124.141  0.00  0.00    +0.067 C 
ATOM      6  C   LIG A   1      -6.918  -2.989 125.103  0.00  0.00    +0.042 C 
ATOM      7  C   LIG A   1      -7.980  -3.806 124.382  0.00  0.00    +0.077 C 
ENDROOT
BRANCH   5   8
ATOM      8  O   LIG A   1      -5.164  -1.349 124.920  0.00  0.00    -0.389 OA
ATOM      9  H   LIG A   1      -4.372  -1.142 124.393  0.00  0.00    +0.210 HD
ENDBRANCH   5   8
BRANCH   5  10
ATOM     10  C   LIG A   1      -5.134  -3.049 123.234  0.00  0.00    +0.031 C 
ATOM     11  C   LIG A   1      -4.443  -4.204 123.952  0.00  0.00    +0.007 C 
ENDBRANCH   5  10
TORSDOF 2
ENDMDL
MODEL 5
REMARK VINA RESULT:      -4.9      2.048      3.568
REMARK  Name = NuBBE_657
REMARK  3 active torsions:
REMARK  status: ('A' for Active; 'I' for Inactive)
REMARK    1  A    between atoms: C_5  and  O_8
REMARK    2  A    between atoms: C_5  and  C_9
REMARK    3  A    between atoms: C_9  and  C_10
REMARK                            x       y       z     vdW  Elec       q    Type
REMARK                         _______ _______ _______ _____ _____    ______ ____
ROOT
ATOM      1  O   LIG A   1     -10.225   6.350 132.368  0.00  0.00    -0.297 OA
ATOM      2  C   LIG A   1     -10.678   6.784 131.311  0.00  0.00    +0.134 C 
ATOM      3  C   LIG A   1      -9.766   7.201 130.178  0.00  0.00    +0.077 C 
ATOM      4  C   LIG A   1     -10.329   6.767 128.831  0.00  0.00    +0.042 C 
ATOM      5  C   LIG A   1     -11.801   7.176 128.625  0.00  0.00    +0.067 C 
ATOM      6  C   LIG A   1     -12.641   6.606 129.780  0.00  0.00    +0.042 C 
ATOM      7  C   LIG A   1     -12.156   7.066 131.147  0.00  0.00    +0.077 C 
ENDROOT
BRANCH   5   8
ATOM      8  O   LIG A   1     -12.253   6.581 127.404  0.00  0.00    -0.389 OA
ATOM      9  H   LIG A   1     -12.838   5.832 127.618  0.00  0.00    +0.210 HD
ENDBRANCH   5   8
BRANCH   5  10
ATOM     10  C   LIG A   1     -11.929   8.707 128.456  0.00  0.00    +0.031 C 
ATOM     11  C   LIG A   1     -13.364   9.224 128.444  0.00  0.00    +0.007 C 
ENDBRANCH   5  10
TORSDOF 2
ENDMDL
MODEL 6
REMARK VINA RESULT:      -4.9      2.172      3.678
REMARK  Name = NuBBE_657
REMARK  3 active torsions:
REMARK  status: ('A' for Active; 'I' for Inactive)
REMARK    1  A    between atoms: C_5  and  O_8
REMARK    2  A    between atoms: C_5  and  C_9
REMARK    3  A    between atoms: C_9  and  C_10
REMARK                            x       y       z     vdW  Elec       q    Type
REMARK                         _______ _______ _______ _____ _____    ______ ____
ROOT
ATOM      1  O   LIG A   1     -13.316   9.384 128.545  0.00  0.00    -0.297 OA
ATOM      2  C   LIG A   1     -12.384   8.673 128.916  0.00  0.00    +0.134 C 
ATOM      3  C   LIG A   1     -12.427   7.952 130.245  0.00  0.00    +0.077 C 
ATOM      4  C   LIG A   1     -11.852   6.546 130.126  0.00  0.00    +0.042 C 
ATOM      5  C   LIG A   1     -10.470   6.508 129.445  0.00  0.00    +0.067 C 
ATOM      6  C   LIG A   1     -10.580   7.175 128.063  0.00  0.00    +0.042 C 
ATOM      7  C   LIG A   1     -11.088   8.607 128.136  0.00  0.00    +0.077 C 
ENDROOT
BRANCH   5   8
ATOM      8  O   LIG A   1     -10.115   5.135 129.254  0.00  0.00    -0.389 OA
ATOM      9  H   LIG A   1     -10.058   4.701 130.124  0.00  0.00    +0.210 HD
ENDBRANCH   5   8
BRANCH   5  10
ATOM     10  C   LIG A   1      -9.390   7.132 130.356  0.00  0.00    +0.031 C 
ATOM     11  C   LIG A   1      -9.134   6.365 131.650  0.00  0.00    +0.007 C 
ENDBRANCH   5  10
TORSDOF 2
ENDMDL
MODEL 7
REMARK VINA RESULT:      -4.5     12.174     12.983
REMARK  Name = NuBBE_657
REMARK  3 active torsions:
REMARK  status: ('A' for Active; 'I' for Inactive)
REMARK    1  A    between atoms: C_5  and  O_8
REMARK    2  A    between atoms: C_5  and  C_9
REMARK    3  A    between atoms: C_9  and  C_10
REMARK                            x       y       z     vdW  Elec       q    Type
REMARK                         _______ _______ _______ _____ _____    ______ ____
ROOT
ATOM      1  O   LIG A   1     -10.079  -3.308 123.157  0.00  0.00    -0.297 OA
ATOM      2  C   LIG A   1      -8.961  -2.935 123.509  0.00  0.00    +0.134 C 
ATOM      3  C   LIG A   1      -8.252  -3.574 124.683  0.00  0.00    +0.077 C 
ATOM      4  C   LIG A   1      -6.767  -3.755 124.396  0.00  0.00    +0.042 C 
ATOM      5  C   LIG A   1      -6.084  -2.472 123.884  0.00  0.00    +0.067 C 
ATOM      6  C   LIG A   1      -6.829  -1.978 122.632  0.00  0.00    +0.042 C 
ATOM      7  C   LIG A   1      -8.307  -1.720 122.887  0.00  0.00    +0.077 C 
ENDROOT
BRANCH   5   8
ATOM      8  O   LIG A   1      -4.746  -2.810 123.507  0.00  0.00    -0.389 OA
ATOM      9  H   LIG A   1      -4.530  -2.355 122.674  0.00  0.00    +0.210 HD
ENDBRANCH   5   8
BRANCH   5  10
ATOM     10  C   LIG A   1      -5.985  -1.416 125.008  0.00  0.00    +0.031 C 
ATOM     11  C   LIG A   1      -5.577  -1.975 126.368  0.00  0.00    +0.007 C 
ENDBRANCH   5  10
TORSDOF 2
ENDMDL
MODEL 8
REMARK VINA RESULT:      -4.5     10.273     12.007
REMARK  Name = NuBBE_657
REMARK  3 active torsions:
REMARK  status: ('A' for Active; 'I' for Inactive)
REMARK    1  A    between atoms: C_5  and  O_8
REMARK    2  A    between atoms: C_5  and  C_9
REMARK    3  A    between atoms: C_9  and  C_10
REMARK                            x       y       z     vdW  Elec       q    Type
REMARK                         _______ _______ _______ _____ _____    ______ ____
ROOT
ATOM      1  O   LIG A   1      -5.477  -4.077 123.956  0.00  0.00    -0.297 OA
ATOM      2  C   LIG A   1      -6.424  -3.320 124.159  0.00  0.00    +0.134 C 
ATOM      3  C   LIG A   1      -6.243  -1.818 124.167  0.00  0.00    +0.077 C 
ATOM      4  C   LIG A   1      -7.407  -1.119 123.476  0.00  0.00    +0.042 C 
ATOM      5  C   LIG A   1      -8.785  -1.580 123.989  0.00  0.00    +0.067 C 
ATOM      6  C   LIG A   1      -8.889  -3.106 123.831  0.00  0.00    +0.042 C 
ATOM      7  C   LIG A   1      -7.782  -3.853 124.561  0.00  0.00    +0.077 C 
ENDROOT
BRANCH   5   8
ATOM      8  O   LIG A   1      -9.784  -0.974 123.162  0.00  0.00    -0.389 OA
ATOM      9  H   LIG A   1     -10.426  -1.655 122.895  0.00  0.00    +0.210 HD
ENDBRANCH   5   8
BRANCH   5  10
ATOM     10  C   LIG A   1      -9.030  -1.083 125.431  0.00  0.00    +0.031 C 
ATOM     11  C   LIG A   1      -9.459   0.378 125.533  0.00  0.00    +0.007 C 
ENDBRANCH   5  10
TORSDOF 2
ENDMDL
MODEL 9
REMARK VINA RESULT:      -4.4     11.776     13.399
REMARK  Name = NuBBE_657
REMARK  3 active torsions:
REMARK  status: ('A' for Active; 'I' for Inactive)
REMARK    1  A    between atoms: C_5  and  O_8
REMARK    2  A    between atoms: C_5  and  C_9
REMARK    3  A    between atoms: C_9  and  C_10
REMARK                            x       y       z     vdW  Elec       q    Type
REMARK                         _______ _______ _______ _____ _____    ______ ____
ROOT
ATOM      1  O   LIG A   1      -8.125  -2.079 127.459  0.00  0.00    -0.297 OA
ATOM      2  C   LIG A   1      -7.487  -2.464 126.480  0.00  0.00    +0.134 C 
ATOM      3  C   LIG A   1      -8.111  -3.369 125.441  0.00  0.00    +0.077 C 
ATOM      4  C   LIG A   1      -7.688  -2.966 124.035  0.00  0.00    +0.042 C 
ATOM      5  C   LIG A   1      -6.163  -2.805 123.880  0.00  0.00    +0.067 C 
ATOM      6  C   LIG A   1      -5.663  -1.785 124.917  0.00  0.00    +0.042 C 
ATOM      7  C   LIG A   1      -6.006  -2.178 126.346  0.00  0.00    +0.077 C 
ENDROOT
BRANCH   5   8
ATOM      8  O   LIG A   1      -5.910  -2.279 122.574  0.00  0.00    -0.389 OA
ATOM      9  H   LIG A   1      -6.229  -2.916 121.911  0.00  0.00    +0.210 HD
ENDBRANCH   5   8
BRANCH   5  10
ATOM     10  C   LIG A   1      -5.453  -4.176 123.960  0.00  0.00    +0.031 C 
ATOM     11  C   LIG A   1      -4.008  -4.170 123.471  0.00  0.00    +0.007 C 
ENDBRANCH   5  10
TORSDOF 2
ENDMDL
