MODEL 1
REMARK VINA RESULT:      -6.9      0.000      0.000
REMARK  Name = NuBBE_551
REMARK  5 active torsions:
REMARK  status: ('A' for Active; 'I' for Inactive)
REMARK    1  A    between atoms: C_1  and  C_2
REMARK    2  A    between atoms: C_5  and  C_7
REMARK    3  A    between atoms: C_7  and  C_8
REMARK    4  A    between atoms: C_13  and  C_14
REMARK    5  A    between atoms: C_13  and  O_15
REMARK                            x       y       z     vdW  Elec       q    Type
REMARK                         _______ _______ _______ _____ _____    ______ ____
ROOT
ATOM      1  C   LIG A   1     -11.648   5.178 129.949  0.00  0.00    +0.011 C 
ATOM      2  C   LIG A   1     -11.543   6.588 130.575  0.00  0.00    -0.027 C 
ATOM      3  C   LIG A   1     -10.506   7.530 129.888  0.00  0.00    +0.027 C 
ATOM      4  C   LIG A   1      -9.065   6.984 129.991  0.00  0.00    +0.014 C 
ATOM      5  C   LIG A   1      -8.649   6.759 131.461  0.00  0.00    +0.015 C 
ATOM      6  C   LIG A   1      -9.680   5.879 132.197  0.00  0.00    +0.008 C 
ATOM      7  C   LIG A   1     -11.107   6.420 132.057  0.00  0.00    +0.007 C 
ATOM      8  C   LIG A   1     -10.895   8.036 128.472  0.00  0.00    +0.067 C 
ATOM      9  C   LIG A   1     -10.714   7.027 127.336  0.00  0.00    +0.041 C 
ATOM     10  C   LIG A   1     -12.322   8.618 128.493  0.00  0.00    +0.035 C 
ATOM     11  C   LIG A   1     -13.355   7.695 129.129  0.00  0.00    +0.003 C 
ATOM     12  C   LIG A   1     -12.937   7.258 130.534  0.00  0.00    +0.007 C 
ENDROOT
BRANCH   5  13
ATOM     13  C   LIG A   1      -7.203   6.270 131.551  0.00  0.00    -0.077 C 
ATOM     14  C   LIG A   1      -7.021   4.907 132.172  0.00  0.00    +0.038 C 
ATOM     15  C   LIG A   1      -6.133   6.948 131.102  0.00  0.00    +0.007 C 
ENDBRANCH   5  13
BRANCH   8  16
ATOM     16  O   LIG A   1     -10.010   9.132 128.167  0.00  0.00    -0.389 OA
ATOM     17  H   LIG A   1      -9.447   9.290 128.943  0.00  0.00    +0.210 HD
ENDBRANCH   8  16
TORSDOF 2
ENDMDL
MODEL 2
REMARK VINA RESULT:      -6.8      9.635     10.910
REMARK  Name = NuBBE_551
REMARK  5 active torsions:
REMARK  status: ('A' for Active; 'I' for Inactive)
REMARK    1  A    between atoms: C_1  and  C_2
REMARK    2  A    between atoms: C_5  and  C_7
REMARK    3  A    between atoms: C_7  and  C_8
REMARK    4  A    between atoms: C_13  and  C_14
REMARK    5  A    between atoms: C_13  and  O_15
REMARK                            x       y       z     vdW  Elec       q    Type
REMARK                         _______ _______ _______ _____ _____    ______ ____
ROOT
ATOM      1  C   LIG A   1      -7.780  -4.383 124.761  0.00  0.00    +0.011 C 
ATOM      2  C   LIG A   1      -8.497  -3.034 125.001  0.00  0.00    -0.027 C 
ATOM      3  C   LIG A   1      -7.579  -1.894 125.540  0.00  0.00    +0.027 C 
ATOM      4  C   LIG A   1      -6.980  -2.233 126.922  0.00  0.00    +0.014 C 
ATOM      5  C   LIG A   1      -8.084  -2.526 127.961  0.00  0.00    +0.015 C 
ATOM      6  C   LIG A   1      -9.054  -3.609 127.443  0.00  0.00    +0.008 C 
ATOM      7  C   LIG A   1      -9.613  -3.270 126.057  0.00  0.00    +0.007 C 
ATOM      8  C   LIG A   1      -6.551  -1.324 124.524  0.00  0.00    +0.067 C 
ATOM      9  C   LIG A   1      -5.313  -2.191 124.278  0.00  0.00    +0.041 C 
ATOM     10  C   LIG A   1      -7.260  -0.959 123.205  0.00  0.00    +0.035 C 
ATOM     11  C   LIG A   1      -8.134  -2.075 122.645  0.00  0.00    +0.003 C 
ATOM     12  C   LIG A   1      -9.150  -2.572 123.676  0.00  0.00    +0.007 C 
ENDROOT
BRANCH   5  13
ATOM     13  C   LIG A   1      -7.480  -2.807 129.337  0.00  0.00    -0.077 C 
ATOM     14  C   LIG A   1      -7.814  -1.795 130.406  0.00  0.00    +0.038 C 
ATOM     15  C   LIG A   1      -6.722  -3.874 129.641  0.00  0.00    +0.007 C 
ENDBRANCH   5  13
BRANCH   8  16
ATOM     16  O   LIG A   1      -6.060  -0.089 125.081  0.00  0.00    -0.389 OA
ATOM     17  H   LIG A   1      -6.658   0.625 124.804  0.00  0.00    +0.210 HD
ENDBRANCH   8  16
TORSDOF 2
ENDMDL
MODEL 3
REMARK VINA RESULT:      -6.3      9.903     11.540
REMARK  Name = NuBBE_551
REMARK  5 active torsions:
REMARK  status: ('A' for Active; 'I' for Inactive)
REMARK    1  A    between atoms: C_1  and  C_2
REMARK    2  A    between atoms: C_5  and  C_7
REMARK    3  A    between atoms: C_7  and  C_8
REMARK    4  A    between atoms: C_13  and  C_14
REMARK    5  A    between atoms: C_13  and  O_15
REMARK                            x       y       z     vdW  Elec       q    Type
REMARK                         _______ _______ _______ _____ _____    ______ ____
ROOT
ATOM      1  C   LIG A   1      -8.556  -1.252 126.909  0.00  0.00    +0.011 C 
ATOM      2  C   LIG A   1      -8.003  -2.679 127.136  0.00  0.00    -0.027 C 
ATOM      3  C   LIG A   1      -6.448  -2.772 127.206  0.00  0.00    +0.027 C 
ATOM      4  C   LIG A   1      -5.778  -2.334 125.886  0.00  0.00    +0.014 C 
ATOM      5  C   LIG A   1      -6.282  -3.172 124.691  0.00  0.00    +0.015 C 
ATOM      6  C   LIG A   1      -7.823  -3.157 124.617  0.00  0.00    +0.008 C 
ATOM      7  C   LIG A   1      -8.469  -3.563 125.947  0.00  0.00    +0.007 C 
ATOM      8  C   LIG A   1      -5.797  -2.168 128.481  0.00  0.00    +0.067 C 
ATOM      9  C   LIG A   1      -5.696  -0.641 128.512  0.00  0.00    +0.041 C 
ATOM     10  C   LIG A   1      -6.495  -2.717 129.740  0.00  0.00    +0.035 C 
ATOM     11  C   LIG A   1      -8.014  -2.601 129.704  0.00  0.00    +0.003 C 
ATOM     12  C   LIG A   1      -8.603  -3.243 128.447  0.00  0.00    +0.007 C 
ENDROOT
BRANCH   5  13
ATOM     13  C   LIG A   1      -5.571  -2.766 123.400  0.00  0.00    -0.077 C 
ATOM     14  C   LIG A   1      -4.195  -3.355 123.208  0.00  0.00    +0.038 C 
ATOM     15  C   LIG A   1      -6.093  -1.967 122.453  0.00  0.00    +0.007 C 
ENDBRANCH   5  13
BRANCH   8  16
ATOM     16  O   LIG A   1      -4.440  -2.652 128.521  0.00  0.00    -0.389 OA
ATOM     17  H   LIG A   1      -4.232  -3.040 127.654  0.00  0.00    +0.210 HD
ENDBRANCH   8  16
TORSDOF 2
ENDMDL
MODEL 4
REMARK VINA RESULT:      -6.2      9.256     10.893
REMARK  Name = NuBBE_551
REMARK  5 active torsions:
REMARK  status: ('A' for Active; 'I' for Inactive)
REMARK    1  A    between atoms: C_1  and  C_2
REMARK    2  A    between atoms: C_5  and  C_7
REMARK    3  A    between atoms: C_7  and  C_8
REMARK    4  A    between atoms: C_13  and  C_14
REMARK    5  A    between atoms: C_13  and  O_15
REMARK                            x       y       z     vdW  Elec       q    Type
REMARK                         _______ _______ _______ _____ _____    ______ ____
ROOT
ATOM      1  C   LIG A   1      -9.206  -0.885 125.548  0.00  0.00    +0.011 C 
ATOM      2  C   LIG A   1      -8.701  -1.245 124.131  0.00  0.00    -0.027 C 
ATOM      3  C   LIG A   1      -7.152  -1.184 123.957  0.00  0.00    +0.027 C 
ATOM      4  C   LIG A   1      -6.595   0.238 124.185  0.00  0.00    +0.014 C 
ATOM      5  C   LIG A   1      -7.253   1.261 123.234  0.00  0.00    +0.015 C 
ATOM      6  C   LIG A   1      -8.791   1.195 123.330  0.00  0.00    +0.008 C 
ATOM      7  C   LIG A   1      -9.321  -0.229 123.133  0.00  0.00    +0.007 C 
ATOM      8  C   LIG A   1      -6.352  -2.304 124.677  0.00  0.00    +0.067 C 
ATOM      9  C   LIG A   1      -6.177  -2.125 126.188  0.00  0.00    +0.041 C 
ATOM     10  C   LIG A   1      -6.947  -3.683 124.333  0.00  0.00    +0.035 C 
ATOM     11  C   LIG A   1      -8.456  -3.771 124.533  0.00  0.00    +0.003 C 
ATOM     12  C   LIG A   1      -9.194  -2.668 123.773  0.00  0.00    +0.007 C 
ENDROOT
BRANCH   5  13
ATOM     13  C   LIG A   1      -6.654   2.655 123.432  0.00  0.00    -0.077 C 
ATOM     14  C   LIG A   1      -6.364   3.418 122.163  0.00  0.00    +0.038 C 
ATOM     15  C   LIG A   1      -6.407   3.223 124.625  0.00  0.00    +0.007 C 
ENDBRANCH   5  13
BRANCH   8  16
ATOM     16  O   LIG A   1      -5.021  -2.282 124.124  0.00  0.00    -0.389 OA
ATOM     17  H   LIG A   1      -4.394  -2.484 124.839  0.00  0.00    +0.210 HD
ENDBRANCH   8  16
TORSDOF 2
ENDMDL
MODEL 5
REMARK VINA RESULT:      -6.1      2.521      5.798
REMARK  Name = NuBBE_551
REMARK  5 active torsions:
REMARK  status: ('A' for Active; 'I' for Inactive)
REMARK    1  A    between atoms: C_1  and  C_2
REMARK    2  A    between atoms: C_5  and  C_7
REMARK    3  A    between atoms: C_7  and  C_8
REMARK    4  A    between atoms: C_13  and  C_14
REMARK    5  A    between atoms: C_13  and  O_15
REMARK                            x       y       z     vdW  Elec       q    Type
REMARK                         _______ _______ _______ _____ _____    ______ ____
ROOT
ATOM      1  C   LIG A   1      -7.523   4.441 130.402  0.00  0.00    +0.011 C 
ATOM      2  C   LIG A   1      -7.694   5.351 131.642  0.00  0.00    -0.027 C 
ATOM      3  C   LIG A   1      -9.000   5.103 132.457  0.00  0.00    +0.027 C 
ATOM      4  C   LIG A   1     -10.270   5.389 131.626  0.00  0.00    +0.014 C 
ATOM      5  C   LIG A   1     -10.277   6.835 131.084  0.00  0.00    +0.015 C 
ATOM      6  C   LIG A   1      -8.974   7.144 130.319  0.00  0.00    +0.008 C 
ATOM      7  C   LIG A   1      -7.726   6.824 131.149  0.00  0.00    +0.007 C 
ATOM      8  C   LIG A   1      -9.050   3.772 133.256  0.00  0.00    +0.067 C 
ATOM      9  C   LIG A   1      -9.339   2.515 132.431  0.00  0.00    +0.041 C 
ATOM     10  C   LIG A   1      -7.769   3.615 134.099  0.00  0.00    +0.035 C 
ATOM     11  C   LIG A   1      -6.481   3.818 133.310  0.00  0.00    +0.003 C 
ATOM     12  C   LIG A   1      -6.473   5.159 132.574  0.00  0.00    +0.007 C 
ENDROOT
BRANCH   5  13
ATOM     13  C   LIG A   1     -11.564   7.121 130.309  0.00  0.00    -0.077 C 
ATOM     14  C   LIG A   1     -12.792   7.342 131.157  0.00  0.00    +0.038 C 
ATOM     15  C   LIG A   1     -11.652   7.210 128.971  0.00  0.00    +0.007 C 
ENDBRANCH   5  13
BRANCH   8  16
ATOM     16  O   LIG A   1     -10.143   3.889 134.188  0.00  0.00    -0.389 OA
ATOM     17  H   LIG A   1      -9.888   4.530 134.873  0.00  0.00    +0.210 HD
ENDBRANCH   8  16
TORSDOF 2
ENDMDL
MODEL 6
REMARK VINA RESULT:      -6.1      9.270     10.702
REMARK  Name = NuBBE_551
REMARK  5 active torsions:
REMARK  status: ('A' for Active; 'I' for Inactive)
REMARK    1  A    between atoms: C_1  and  C_2
REMARK    2  A    between atoms: C_5  and  C_7
REMARK    3  A    between atoms: C_7  and  C_8
REMARK    4  A    between atoms: C_13  and  C_14
REMARK    5  A    between atoms: C_13  and  O_15
REMARK                            x       y       z     vdW  Elec       q    Type
REMARK                         _______ _______ _______ _____ _____    ______ ____
ROOT
ATOM      1  C   LIG A   1      -5.914  -0.299 125.359  0.00  0.00    +0.011 C 
ATOM      2  C   LIG A   1      -6.177  -1.823 125.330  0.00  0.00    -0.027 C 
ATOM      3  C   LIG A   1      -7.640  -2.240 125.673  0.00  0.00    +0.027 C 
ATOM      4  C   LIG A   1      -8.041  -1.834 127.108  0.00  0.00    +0.014 C 
ATOM      5  C   LIG A   1      -7.083  -2.442 128.155  0.00  0.00    +0.015 C 
ATOM      6  C   LIG A   1      -5.615  -2.105 127.823  0.00  0.00    +0.008 C 
ATOM      7  C   LIG A   1      -5.247  -2.486 126.384  0.00  0.00    +0.007 C 
ATOM      8  C   LIG A   1      -8.705  -1.896 124.594  0.00  0.00    +0.067 C 
ATOM      9  C   LIG A   1      -9.145  -0.431 124.542  0.00  0.00    +0.041 C 
ATOM     10  C   LIG A   1      -8.238  -2.399 123.214  0.00  0.00    +0.035 C 
ATOM     11  C   LIG A   1      -6.822  -1.971 122.848  0.00  0.00    +0.003 C 
ATOM     12  C   LIG A   1      -5.813  -2.366 123.927  0.00  0.00    +0.007 C 
ENDROOT
BRANCH   5  13
ATOM     13  C   LIG A   1      -7.522  -2.078 129.574  0.00  0.00    -0.077 C 
ATOM     14  C   LIG A   1      -7.506  -3.216 130.566  0.00  0.00    +0.038 C 
ATOM     15  C   LIG A   1      -7.882  -0.847 129.976  0.00  0.00    +0.007 C 
ENDBRANCH   5  13
BRANCH   8  16
ATOM     16  O   LIG A   1      -9.888  -2.649 124.927  0.00  0.00    -0.389 OA
ATOM     17  H   LIG A   1     -10.283  -2.971 124.099  0.00  0.00    +0.210 HD
ENDBRANCH   8  16
TORSDOF 2
ENDMDL
MODEL 7
REMARK VINA RESULT:      -6.1      9.299     10.556
REMARK  Name = NuBBE_551
REMARK  5 active torsions:
REMARK  status: ('A' for Active; 'I' for Inactive)
REMARK    1  A    between atoms: C_1  and  C_2
REMARK    2  A    between atoms: C_5  and  C_7
REMARK    3  A    between atoms: C_7  and  C_8
REMARK    4  A    between atoms: C_13  and  C_14
REMARK    5  A    between atoms: C_13  and  O_15
REMARK                            x       y       z     vdW  Elec       q    Type
REMARK                         _______ _______ _______ _____ _____    ______ ____
ROOT
ATOM      1  C   LIG A   1      -9.157  -0.113 125.379  0.00  0.00    +0.011 C 
ATOM      2  C   LIG A   1      -7.638  -0.350 125.549  0.00  0.00    -0.027 C 
ATOM      3  C   LIG A   1      -7.192  -1.839 125.422  0.00  0.00    +0.027 C 
ATOM      4  C   LIG A   1      -7.818  -2.730 126.518  0.00  0.00    +0.014 C 
ATOM      5  C   LIG A   1      -7.470  -2.215 127.932  0.00  0.00    +0.015 C 
ATOM      6  C   LIG A   1      -7.840  -0.725 128.083  0.00  0.00    +0.008 C 
ATOM      7  C   LIG A   1      -7.236   0.137 126.969  0.00  0.00    +0.007 C 
ATOM      8  C   LIG A   1      -7.267  -2.443 123.993  0.00  0.00    +0.067 C 
ATOM      9  C   LIG A   1      -8.667  -2.832 123.512  0.00  0.00    +0.041 C 
ATOM     10  C   LIG A   1      -6.560  -1.511 122.989  0.00  0.00    +0.035 C 
ATOM     11  C   LIG A   1      -7.010  -0.057 123.074  0.00  0.00    +0.003 C 
ATOM     12  C   LIG A   1      -6.881   0.494 124.495  0.00  0.00    +0.007 C 
ENDROOT
BRANCH   5  13
ATOM     13  C   LIG A   1      -8.050  -3.135 129.007  0.00  0.00    -0.077 C 
ATOM     14  C   LIG A   1      -9.122  -4.085 128.532  0.00  0.00    +0.038 C 
ATOM     15  C   LIG A   1      -7.655  -3.162 130.291  0.00  0.00    +0.007 C 
ENDBRANCH   5  13
BRANCH   8  16
ATOM     16  O   LIG A   1      -6.508  -3.668 124.021  0.00  0.00    -0.389 OA
ATOM     17  H   LIG A   1      -5.695  -3.530 123.505  0.00  0.00    +0.210 HD
ENDBRANCH   8  16
TORSDOF 2
ENDMDL
MODEL 8
REMARK VINA RESULT:      -6.1      8.618      9.911
REMARK  Name = NuBBE_551
REMARK  5 active torsions:
REMARK  status: ('A' for Active; 'I' for Inactive)
REMARK    1  A    between atoms: C_1  and  C_2
REMARK    2  A    between atoms: C_5  and  C_7
REMARK    3  A    between atoms: C_7  and  C_8
REMARK    4  A    between atoms: C_13  and  C_14
REMARK    5  A    between atoms: C_13  and  O_15
REMARK                            x       y       z     vdW  Elec       q    Type
REMARK                         _______ _______ _______ _____ _____    ______ ____
ROOT
ATOM      1  C   LIG A   1      -7.352  -1.648 123.475  0.00  0.00    +0.011 C 
ATOM      2  C   LIG A   1      -8.791  -1.584 124.039  0.00  0.00    -0.027 C 
ATOM      3  C   LIG A   1      -8.977  -0.609 125.242  0.00  0.00    +0.027 C 
ATOM      4  C   LIG A   1      -8.131  -1.024 126.465  0.00  0.00    +0.014 C 
ATOM      5  C   LIG A   1      -8.466  -2.461 126.921  0.00  0.00    +0.015 C 
ATOM      6  C   LIG A   1      -8.352  -3.454 125.746  0.00  0.00    +0.008 C 
ATOM      7  C   LIG A   1      -9.173  -3.007 124.531  0.00  0.00    +0.007 C 
ATOM      8  C   LIG A   1      -8.896   0.904 124.897  0.00  0.00    +0.067 C 
ATOM      9  C   LIG A   1      -7.486   1.459 124.680  0.00  0.00    +0.041 C 
ATOM     10  C   LIG A   1      -9.822   1.225 123.708  0.00  0.00    +0.035 C 
ATOM     11  C   LIG A   1      -9.628   0.304 122.509  0.00  0.00    +0.003 C 
ATOM     12  C   LIG A   1      -9.754  -1.170 122.900  0.00  0.00    +0.007 C 
ENDROOT
BRANCH   5  13
ATOM     13  C   LIG A   1      -7.662  -2.841 128.165  0.00  0.00    -0.077 C 
ATOM     14  C   LIG A   1      -6.195  -2.489 128.117  0.00  0.00    +0.038 C 
ATOM     15  C   LIG A   1      -8.173  -3.422 129.264  0.00  0.00    +0.007 C 
ENDBRANCH   5  13
BRANCH   8  16
ATOM     16  O   LIG A   1      -9.426   1.616 126.033  0.00  0.00    -0.389 OA
ATOM     17  H   LIG A   1      -9.212   2.558 125.925  0.00  0.00    +0.210 HD
ENDBRANCH   8  16
TORSDOF 2
ENDMDL
MODEL 9
REMARK VINA RESULT:      -6.1      9.113     10.487
REMARK  Name = NuBBE_551
REMARK  5 active torsions:
REMARK  status: ('A' for Active; 'I' for Inactive)
REMARK    1  A    between atoms: C_1  and  C_2
REMARK    2  A    between atoms: C_5  and  C_7
REMARK    3  A    between atoms: C_7  and  C_8
REMARK    4  A    between atoms: C_13  and  C_14
REMARK    5  A    between atoms: C_13  and  O_15
REMARK                            x       y       z     vdW  Elec       q    Type
REMARK                         _______ _______ _______ _____ _____    ______ ____
ROOT
ATOM      1  C   LIG A   1      -5.551  -2.012 124.522  0.00  0.00    +0.011 C 
ATOM      2  C   LIG A   1      -6.815  -1.532 125.273  0.00  0.00    -0.027 C 
ATOM      3  C   LIG A   1      -7.881  -0.833 124.375  0.00  0.00    +0.027 C 
ATOM      4  C   LIG A   1      -7.339   0.458 123.723  0.00  0.00    +0.014 C 
ATOM      5  C   LIG A   1      -6.838   1.459 124.786  0.00  0.00    +0.015 C 
ATOM      6  C   LIG A   1      -5.822   0.793 125.736  0.00  0.00    +0.008 C 
ATOM      7  C   LIG A   1      -6.367  -0.503 126.348  0.00  0.00    +0.007 C 
ATOM      8  C   LIG A   1      -8.648  -1.765 123.397  0.00  0.00    +0.067 C 
ATOM      9  C   LIG A   1      -7.879  -2.183 122.141  0.00  0.00    +0.041 C 
ATOM     10  C   LIG A   1      -9.201  -2.986 124.157  0.00  0.00    +0.035 C 
ATOM     11  C   LIG A   1      -8.164  -3.703 125.012  0.00  0.00    +0.003 C 
ATOM     12  C   LIG A   1      -7.466  -2.745 125.980  0.00  0.00    +0.007 C 
ENDROOT
BRANCH   5  13
ATOM     13  C   LIG A   1      -6.354   2.754 124.131  0.00  0.00    -0.077 C 
ATOM     14  C   LIG A   1      -5.470   3.622 124.994  0.00  0.00    +0.038 C 
ATOM     15  C   LIG A   1      -6.639   3.133 122.874  0.00  0.00    +0.007 C 
ENDBRANCH   5  13
BRANCH   8  16
ATOM     16  O   LIG A   1      -9.790  -1.022 122.927  0.00  0.00    -0.389 OA
ATOM     17  H   LIG A   1     -10.567  -1.309 123.437  0.00  0.00    +0.210 HD
ENDBRANCH   8  16
TORSDOF 2
ENDMDL
