MODEL 1
REMARK VINA RESULT:      -9.1      0.000      0.000
REMARK  Name = NuBBE_1462
REMARK  13 active torsions:
REMARK  status: ('A' for Active; 'I' for Inactive)
REMARK    1  A    between atoms: C_3  and  C_4
REMARK    2  A    between atoms: C_3  and  C_41
REMARK    3  A    between atoms: C_5  and  C_36
REMARK    4  A    between atoms: C_7  and  C_35
REMARK    5  A    between atoms: C_9  and  C_13
REMARK    6  A    between atoms: C_15  and  O_31
REMARK    7  A    between atoms: C_17  and  C_30
REMARK    8  A    between atoms: C_22  and  C_24
REMARK    9  A    between atoms: O_31  and  C_32
REMARK   10  A    between atoms: C_32  and  C_33
REMARK   11  A    between atoms: C_36  and  C_37
REMARK   12  A    between atoms: C_37  and  O_38
REMARK   13  A    between atoms: O_38  and  C_39
REMARK                            x       y       z     vdW  Elec       q    Type
REMARK                         _______ _______ _______ _____ _____    ______ ____
ROOT
ATOM      1  O   LIG A   1     -13.737   6.344 128.752  0.00  0.00    -0.292 OA
ATOM      2  C   LIG A   1     -12.735   6.385 129.465  0.00  0.00    +0.165 C 
ATOM      3  C   LIG A   1     -12.235   7.683 130.117  0.00  0.00    +0.032 C 
ATOM      4  C   LIG A   1     -12.941   7.746 131.490  0.00  0.00    +0.019 C 
ATOM      5  C   LIG A   1     -10.645   7.676 130.240  0.00  0.00    +0.030 C 
ATOM      6  C   LIG A   1     -10.076   6.329 130.859  0.00  0.00    +0.055 C 
ATOM      7  C   LIG A   1      -8.653   5.866 130.580  0.00  0.00    -0.010 C 
ATOM      8  C   LIG A   1      -8.689   4.396 130.198  0.00  0.00    +0.152 C 
ATOM      9  O   LIG A   1     -10.059   3.970 130.423  0.00  0.00    -0.480 OA
ATOM     10  C   LIG A   1     -10.836   5.125 130.377  0.00  0.00    +0.113 C 
ATOM     11  C   LIG A   1     -12.018   5.119 129.753  0.00  0.00    +0.088 C 
ATOM     12  C   LIG A   1      -8.384   4.111 128.721  0.00  0.00    +0.066 C 
ATOM     13  C   LIG A   1      -7.501   6.461 130.930  0.00  0.00    +0.022 C 
ATOM     14  C   LIG A   1      -6.176   5.722 130.964  0.00  0.00    +0.213 C 
ATOM     15  C   LIG A   1      -6.265   4.149 131.196  0.00  0.00    +0.075 C 
ATOM     16  C   LIG A   1      -7.725   3.638 131.116  0.00  0.00    -0.002 C 
ATOM     17  C   LIG A   1      -8.128   2.623 131.901  0.00  0.00    +0.096 C 
ATOM     18  C   LIG A   1      -7.225   1.900 132.805  0.00  0.00    +0.333 C 
ATOM     19  O   LIG A   1      -6.010   2.448 133.008  0.00  0.00    -0.452 OA
ATOM     20  C   LIG A   1      -5.763   3.831 132.658  0.00  0.00    +0.224 C 
ATOM     21  O   LIG A   1      -7.566   0.843 133.317  0.00  0.00    -0.246 OA
ATOM     22  C   LIG A   1      -5.414   3.340 130.180  0.00  0.00    +0.024 C 
ATOM     23  C   LIG A   1     -10.162   6.368 132.413  0.00  0.00    +0.024 C 
ATOM     24  C   LIG A   1     -12.781   8.894 129.323  0.00  0.00    +0.019 C 
ENDROOT
BRANCH  20  25
ATOM     25  C   LIG A   1      -4.292   4.117 132.898  0.00  0.00    +0.031 A 
ATOM     26  C   LIG A   1      -3.753   5.233 133.515  0.00  0.00    +0.202 A 
ATOM     27  O   LIG A   1      -2.400   5.165 133.562  0.00  0.00    -0.471 OA
ATOM     28  C   LIG A   1      -2.043   4.013 132.945  0.00  0.00    +0.195 A 
ATOM     29  C   LIG A   1      -3.158   3.341 132.504  0.00  0.00    +0.048 A 
ENDBRANCH  20  25
BRANCH  14  30
ATOM     30  O   LIG A   1      -5.457   6.039 129.759  0.00  0.00    -0.456 OA
BRANCH  30  31
ATOM     31  C   LIG A   1      -4.489   6.988 129.901  0.00  0.00    +0.304 C 
ATOM     32  C   LIG A   1      -3.140   6.364 130.071  0.00  0.00    +0.136 C 
ATOM     33  O   LIG A   1      -4.685   8.195 129.935  0.00  0.00    -0.251 OA
ENDBRANCH  30  31
ENDBRANCH  14  30
BRANCH   5  34
ATOM     34  C   LIG A   1      -9.918   8.160 128.955  0.00  0.00    +0.126 C 
BRANCH  34  35
ATOM     35  C   LIG A   1     -10.227   7.440 127.659  0.00  0.00    +0.307 C 
ATOM     36  O   LIG A   1      -9.798   6.367 127.318  0.00  0.00    -0.251 OA
BRANCH  35  37
ATOM     37  O   LIG A   1     -10.948   8.274 126.852  0.00  0.00    -0.468 OA
ATOM     38  C   LIG A   1     -11.835   7.539 126.014  0.00  0.00    +0.280 C 
ENDBRANCH  35  37
ENDBRANCH  34  35
ENDBRANCH   5  34
TORSDOF 6
ENDMDL
MODEL 2
REMARK VINA RESULT:      -8.9      5.051      7.617
REMARK  Name = NuBBE_1462
REMARK  13 active torsions:
REMARK  status: ('A' for Active; 'I' for Inactive)
REMARK    1  A    between atoms: C_3  and  C_4
REMARK    2  A    between atoms: C_3  and  C_41
REMARK    3  A    between atoms: C_5  and  C_36
REMARK    4  A    between atoms: C_7  and  C_35
REMARK    5  A    between atoms: C_9  and  C_13
REMARK    6  A    between atoms: C_15  and  O_31
REMARK    7  A    between atoms: C_17  and  C_30
REMARK    8  A    between atoms: C_22  and  C_24
REMARK    9  A    between atoms: O_31  and  C_32
REMARK   10  A    between atoms: C_32  and  C_33
REMARK   11  A    between atoms: C_36  and  C_37
REMARK   12  A    between atoms: C_37  and  O_38
REMARK   13  A    between atoms: O_38  and  C_39
REMARK                            x       y       z     vdW  Elec       q    Type
REMARK                         _______ _______ _______ _____ _____    ______ ____
ROOT
ATOM      1  O   LIG A   1      -5.926  -2.532 122.694  0.00  0.00    -0.292 OA
ATOM      2  C   LIG A   1      -6.457  -2.235 123.764  0.00  0.00    +0.165 C 
ATOM      3  C   LIG A   1      -7.978  -2.095 123.921  0.00  0.00    +0.032 C 
ATOM      4  C   LIG A   1      -8.477  -3.502 124.321  0.00  0.00    +0.019 C 
ATOM      5  C   LIG A   1      -8.333  -0.982 125.007  0.00  0.00    +0.030 C 
ATOM      6  C   LIG A   1      -7.511  -1.148 126.356  0.00  0.00    +0.055 C 
ATOM      7  C   LIG A   1      -7.259   0.034 127.283  0.00  0.00    -0.010 C 
ATOM      8  C   LIG A   1      -5.790   0.043 127.666  0.00  0.00    +0.152 C 
ATOM      9  O   LIG A   1      -5.241  -1.191 127.132  0.00  0.00    -0.480 OA
ATOM     10  C   LIG A   1      -6.094  -1.579 126.101  0.00  0.00    +0.113 C 
ATOM     11  C   LIG A   1      -5.596  -2.064 124.960  0.00  0.00    +0.088 C 
ATOM     12  C   LIG A   1      -4.973   1.184 127.044  0.00  0.00    +0.066 C 
ATOM     13  C   LIG A   1      -8.158   0.758 127.970  0.00  0.00    +0.022 C 
ATOM     14  C   LIG A   1      -7.775   1.624 129.156  0.00  0.00    +0.213 C 
ATOM     15  C   LIG A   1      -6.462   1.182 129.943  0.00  0.00    +0.075 C 
ATOM     16  C   LIG A   1      -5.692   0.066 129.195  0.00  0.00    -0.002 C 
ATOM     17  C   LIG A   1      -5.047  -0.889 129.888  0.00  0.00    +0.096 C 
ATOM     18  C   LIG A   1      -4.963  -0.899 131.354  0.00  0.00    +0.333 C 
ATOM     19  O   LIG A   1      -5.770  -0.039 132.009  0.00  0.00    -0.452 OA
ATOM     20  C   LIG A   1      -6.895   0.570 131.331  0.00  0.00    +0.224 C 
ATOM     21  O   LIG A   1      -4.177  -1.636 131.931  0.00  0.00    -0.246 OA
ATOM     22  C   LIG A   1      -5.482   2.360 130.191  0.00  0.00    +0.024 C 
ATOM     23  C   LIG A   1      -8.185  -2.209 127.274  0.00  0.00    +0.024 C 
ATOM     24  C   LIG A   1      -8.610  -1.818 122.535  0.00  0.00    +0.019 C 
ENDROOT
BRANCH  20  25
ATOM     25  C   LIG A   1      -7.534   1.559 132.288  0.00  0.00    +0.031 A 
ATOM     26  C   LIG A   1      -6.921   2.202 133.350  0.00  0.00    +0.202 A 
ATOM     27  O   LIG A   1      -7.786   3.019 133.997  0.00  0.00    -0.471 OA
ATOM     28  C   LIG A   1      -8.986   2.891 133.381  0.00  0.00    +0.195 A 
ATOM     29  C   LIG A   1      -8.894   1.998 132.340  0.00  0.00    +0.048 A 
ENDBRANCH  20  25
BRANCH  14  30
ATOM     30  O   LIG A   1      -7.686   2.986 128.703  0.00  0.00    -0.456 OA
BRANCH  30  31
ATOM     31  C   LIG A   1      -8.566   3.845 129.292  0.00  0.00    +0.304 C 
ATOM     32  C   LIG A   1      -7.855   4.991 129.938  0.00  0.00    +0.136 C 
ATOM     33  O   LIG A   1      -9.779   3.691 129.336  0.00  0.00    -0.251 OA
ENDBRANCH  30  31
ENDBRANCH  14  30
BRANCH   5  34
ATOM     34  C   LIG A   1      -8.360   0.462 124.434  0.00  0.00    +0.126 C 
BRANCH  34  35
ATOM     35  C   LIG A   1      -9.662   1.229 124.524  0.00  0.00    +0.307 C 
ATOM     36  O   LIG A   1     -10.712   0.917 124.019  0.00  0.00    -0.251 OA
BRANCH  35  37
ATOM     37  O   LIG A   1      -9.428   2.427 125.135  0.00  0.00    -0.468 OA
ATOM     38  C   LIG A   1      -8.127   2.919 124.824  0.00  0.00    +0.280 C 
ENDBRANCH  35  37
ENDBRANCH  34  35
ENDBRANCH   5  34
TORSDOF 6
ENDMDL
MODEL 3
REMARK VINA RESULT:      -8.5      4.967      7.808
REMARK  Name = NuBBE_1462
REMARK  13 active torsions:
REMARK  status: ('A' for Active; 'I' for Inactive)
REMARK    1  A    between atoms: C_3  and  C_4
REMARK    2  A    between atoms: C_3  and  C_41
REMARK    3  A    between atoms: C_5  and  C_36
REMARK    4  A    between atoms: C_7  and  C_35
REMARK    5  A    between atoms: C_9  and  C_13
REMARK    6  A    between atoms: C_15  and  O_31
REMARK    7  A    between atoms: C_17  and  C_30
REMARK    8  A    between atoms: C_22  and  C_24
REMARK    9  A    between atoms: O_31  and  C_32
REMARK   10  A    between atoms: C_32  and  C_33
REMARK   11  A    between atoms: C_36  and  C_37
REMARK   12  A    between atoms: C_37  and  O_38
REMARK   13  A    between atoms: O_38  and  C_39
REMARK                            x       y       z     vdW  Elec       q    Type
REMARK                         _______ _______ _______ _____ _____    ______ ____
ROOT
ATOM      1  O   LIG A   1      -4.939  -3.293 124.223  0.00  0.00    -0.292 OA
ATOM      2  C   LIG A   1      -5.794  -2.591 124.760  0.00  0.00    +0.165 C 
ATOM      3  C   LIG A   1      -6.942  -1.940 123.974  0.00  0.00    +0.032 C 
ATOM      4  C   LIG A   1      -8.092  -2.972 124.001  0.00  0.00    +0.019 C 
ATOM      5  C   LIG A   1      -7.350  -0.543 124.626  0.00  0.00    +0.030 C 
ATOM      6  C   LIG A   1      -7.552  -0.628 126.199  0.00  0.00    +0.055 C 
ATOM      7  C   LIG A   1      -7.399   0.601 127.086  0.00  0.00    -0.010 C 
ATOM      8  C   LIG A   1      -6.527   0.233 128.273  0.00  0.00    +0.152 C 
ATOM      9  O   LIG A   1      -6.327  -1.202 128.180  0.00  0.00    -0.480 OA
ATOM     10  C   LIG A   1      -6.544  -1.536 126.845  0.00  0.00    +0.113 C 
ATOM     11  C   LIG A   1      -5.749  -2.418 126.232  0.00  0.00    +0.088 C 
ATOM     12  C   LIG A   1      -5.128   0.866 128.260  0.00  0.00    +0.066 C 
ATOM     13  C   LIG A   1      -8.146   1.717 127.095  0.00  0.00    +0.022 C 
ATOM     14  C   LIG A   1      -8.165   2.678 128.270  0.00  0.00    +0.213 C 
ATOM     15  C   LIG A   1      -7.809   2.046 129.688  0.00  0.00    +0.075 C 
ATOM     16  C   LIG A   1      -7.283   0.596 129.555  0.00  0.00    -0.002 C 
ATOM     17  C   LIG A   1      -7.571  -0.316 130.502  0.00  0.00    +0.096 C 
ATOM     18  C   LIG A   1      -8.316   0.007 131.725  0.00  0.00    +0.333 C 
ATOM     19  O   LIG A   1      -8.922   1.210 131.762  0.00  0.00    -0.452 OA
ATOM     20  C   LIG A   1      -9.133   1.962 130.543  0.00  0.00    +0.224 C 
ATOM     21  O   LIG A   1      -8.351  -0.779 132.662  0.00  0.00    -0.246 OA
ATOM     22  C   LIG A   1      -6.753   2.874 130.469  0.00  0.00    +0.024 C 
ATOM     23  C   LIG A   1      -8.976  -1.161 126.535  0.00  0.00    +0.024 C 
ATOM     24  C   LIG A   1      -6.536  -1.822 122.484  0.00  0.00    +0.019 C 
ENDROOT
BRANCH  20  25
ATOM     25  C   LIG A   1      -9.729   3.305 130.921  0.00  0.00    +0.031 A 
ATOM     26  C   LIG A   1      -9.413   4.070 132.031  0.00  0.00    +0.202 A 
ATOM     27  O   LIG A   1     -10.137   5.216 132.062  0.00  0.00    -0.471 OA
ATOM     28  C   LIG A   1     -10.958   5.191 130.985  0.00  0.00    +0.195 A 
ATOM     29  C   LIG A   1     -10.764   4.039 130.262  0.00  0.00    +0.048 A 
ENDBRANCH  20  25
BRANCH  14  30
ATOM     30  O   LIG A   1      -7.305   3.787 127.954  0.00  0.00    -0.456 OA
BRANCH  30  31
ATOM     31  C   LIG A   1      -7.694   4.525 126.876  0.00  0.00    +0.304 C 
ATOM     32  C   LIG A   1      -6.656   4.498 125.799  0.00  0.00    +0.136 C 
ATOM     33  O   LIG A   1      -8.731   5.169 126.799  0.00  0.00    -0.251 OA
ENDBRANCH  30  31
ENDBRANCH  14  30
BRANCH   5  34
ATOM     34  C   LIG A   1      -6.477   0.649 124.144  0.00  0.00    +0.126 C 
BRANCH  34  35
ATOM     35  C   LIG A   1      -7.152   1.728 123.324  0.00  0.00    +0.307 C 
ATOM     36  O   LIG A   1      -6.628   2.427 122.493  0.00  0.00    -0.251 OA
BRANCH  35  37
ATOM     37  O   LIG A   1      -8.424   1.904 123.788  0.00  0.00    -0.468 OA
ATOM     38  C   LIG A   1      -9.357   1.985 122.715  0.00  0.00    +0.280 C 
ENDBRANCH  35  37
ENDBRANCH  34  35
ENDBRANCH   5  34
TORSDOF 6
ENDMDL
MODEL 4
REMARK VINA RESULT:      -8.2      4.626      7.874
REMARK  Name = NuBBE_1462
REMARK  13 active torsions:
REMARK  status: ('A' for Active; 'I' for Inactive)
REMARK    1  A    between atoms: C_3  and  C_4
REMARK    2  A    between atoms: C_3  and  C_41
REMARK    3  A    between atoms: C_5  and  C_36
REMARK    4  A    between atoms: C_7  and  C_35
REMARK    5  A    between atoms: C_9  and  C_13
REMARK    6  A    between atoms: C_15  and  O_31
REMARK    7  A    between atoms: C_17  and  C_30
REMARK    8  A    between atoms: C_22  and  C_24
REMARK    9  A    between atoms: O_31  and  C_32
REMARK   10  A    between atoms: C_32  and  C_33
REMARK   11  A    between atoms: C_36  and  C_37
REMARK   12  A    between atoms: C_37  and  O_38
REMARK   13  A    between atoms: O_38  and  C_39
REMARK                            x       y       z     vdW  Elec       q    Type
REMARK                         _______ _______ _______ _____ _____    ______ ____
ROOT
ATOM      1  O   LIG A   1      -5.673   4.639 133.412  0.00  0.00    -0.292 OA
ATOM      2  C   LIG A   1      -5.422   3.924 132.442  0.00  0.00    +0.165 C 
ATOM      3  C   LIG A   1      -4.165   4.112 131.579  0.00  0.00    +0.032 C 
ATOM      4  C   LIG A   1      -3.086   3.220 132.233  0.00  0.00    +0.019 C 
ATOM      5  C   LIG A   1      -4.458   3.716 130.062  0.00  0.00    +0.030 C 
ATOM      6  C   LIG A   1      -5.192   2.315 129.918  0.00  0.00    +0.055 C 
ATOM      7  C   LIG A   1      -6.038   1.985 128.696  0.00  0.00    -0.010 C 
ATOM      8  C   LIG A   1      -7.357   1.397 129.167  0.00  0.00    +0.152 C 
ATOM      9  O   LIG A   1      -7.214   1.221 130.601  0.00  0.00    -0.480 OA
ATOM     10  C   LIG A   1      -6.212   2.102 131.001  0.00  0.00    +0.113 C 
ATOM     11  C   LIG A   1      -6.339   2.801 132.132  0.00  0.00    +0.088 C 
ATOM     12  C   LIG A   1      -8.574   2.310 128.962  0.00  0.00    +0.066 C 
ATOM     13  C   LIG A   1      -5.641   1.860 127.419  0.00  0.00    +0.022 C 
ATOM     14  C   LIG A   1      -6.471   1.138 126.372  0.00  0.00    +0.213 C 
ATOM     15  C   LIG A   1      -7.466   0.023 126.923  0.00  0.00    +0.075 C 
ATOM     16  C   LIG A   1      -7.558   0.048 128.469  0.00  0.00    -0.002 C 
ATOM     17  C   LIG A   1      -7.718  -1.099 129.154  0.00  0.00    +0.096 C 
ATOM     18  C   LIG A   1      -7.886  -2.404 128.505  0.00  0.00    +0.333 C 
ATOM     19  O   LIG A   1      -7.633  -2.456 127.182  0.00  0.00    -0.452 OA
ATOM     20  C   LIG A   1      -6.890  -1.394 126.536  0.00  0.00    +0.224 C 
ATOM     21  O   LIG A   1      -8.264  -3.376 129.143  0.00  0.00    -0.246 OA
ATOM     22  C   LIG A   1      -8.902   0.160 126.352  0.00  0.00    +0.024 C 
ATOM     23  C   LIG A   1      -4.158   1.152 129.985  0.00  0.00    +0.024 C 
ATOM     24  C   LIG A   1      -3.648   5.562 131.742  0.00  0.00    +0.019 C 
ENDROOT
BRANCH  20  25
ATOM     25  C   LIG A   1      -6.865  -1.682 125.046  0.00  0.00    +0.031 A 
ATOM     26  C   LIG A   1      -7.952  -1.968 124.238  0.00  0.00    +0.202 A 
ATOM     27  O   LIG A   1      -7.571  -2.175 122.954  0.00  0.00    -0.471 OA
ATOM     28  C   LIG A   1      -6.222  -2.058 122.921  0.00  0.00    +0.195 A 
ATOM     29  C   LIG A   1      -5.736  -1.775 124.175  0.00  0.00    +0.048 A 
ENDBRANCH  20  25
BRANCH  14  30
ATOM     30  O   LIG A   1      -7.166   2.128 125.594  0.00  0.00    -0.456 OA
BRANCH  30  31
ATOM     31  C   LIG A   1      -6.563   2.459 124.417  0.00  0.00    +0.304 C 
ATOM     32  C   LIG A   1      -7.072   1.615 123.291  0.00  0.00    +0.136 C 
ATOM     33  O   LIG A   1      -5.685   3.301 124.286  0.00  0.00    -0.251 OA
ENDBRANCH  30  31
ENDBRANCH  14  30
BRANCH   5  34
ATOM     34  C   LIG A   1      -5.082   4.868 129.226  0.00  0.00    +0.126 C 
BRANCH  34  35
ATOM     35  C   LIG A   1      -4.305   5.366 128.027  0.00  0.00    +0.307 C 
ATOM     36  O   LIG A   1      -4.768   5.714 126.969  0.00  0.00    -0.251 OA
BRANCH  35  37
ATOM     37  O   LIG A   1      -2.970   5.205 128.267  0.00  0.00    -0.468 OA
ATOM     38  C   LIG A   1      -2.305   6.463 128.340  0.00  0.00    +0.280 C 
ENDBRANCH  35  37
ENDBRANCH  34  35
ENDBRANCH   5  34
TORSDOF 6
ENDMDL
MODEL 5
REMARK VINA RESULT:      -8.1      4.604      7.403
REMARK  Name = NuBBE_1462
REMARK  13 active torsions:
REMARK  status: ('A' for Active; 'I' for Inactive)
REMARK    1  A    between atoms: C_3  and  C_4
REMARK    2  A    between atoms: C_3  and  C_41
REMARK    3  A    between atoms: C_5  and  C_36
REMARK    4  A    between atoms: C_7  and  C_35
REMARK    5  A    between atoms: C_9  and  C_13
REMARK    6  A    between atoms: C_15  and  O_31
REMARK    7  A    between atoms: C_17  and  C_30
REMARK    8  A    between atoms: C_22  and  C_24
REMARK    9  A    between atoms: O_31  and  C_32
REMARK   10  A    between atoms: C_32  and  C_33
REMARK   11  A    between atoms: C_36  and  C_37
REMARK   12  A    between atoms: C_37  and  O_38
REMARK   13  A    between atoms: O_38  and  C_39
REMARK                            x       y       z     vdW  Elec       q    Type
REMARK                         _______ _______ _______ _____ _____    ______ ____
ROOT
ATOM      1  O   LIG A   1      -8.866   4.889 125.496  0.00  0.00    -0.292 OA
ATOM      2  C   LIG A   1      -8.113   4.002 125.896  0.00  0.00    +0.165 C 
ATOM      3  C   LIG A   1      -7.640   2.851 124.996  0.00  0.00    +0.032 C 
ATOM      4  C   LIG A   1      -6.334   3.356 124.342  0.00  0.00    +0.019 C 
ATOM      5  C   LIG A   1      -7.429   1.519 125.849  0.00  0.00    +0.030 C 
ATOM      6  C   LIG A   1      -6.581   1.756 127.170  0.00  0.00    +0.055 C 
ATOM      7  C   LIG A   1      -6.707   0.829 128.371  0.00  0.00    -0.010 C 
ATOM      8  C   LIG A   1      -6.861   1.676 129.622  0.00  0.00    +0.152 C 
ATOM      9  O   LIG A   1      -6.650   3.047 129.192  0.00  0.00    -0.480 OA
ATOM     10  C   LIG A   1      -6.916   3.068 127.824  0.00  0.00    +0.113 C 
ATOM     11  C   LIG A   1      -7.596   4.083 127.284  0.00  0.00    +0.088 C 
ATOM     12  C   LIG A   1      -8.258   1.632 130.257  0.00  0.00    +0.066 C 
ATOM     13  C   LIG A   1      -6.388  -0.474 128.453  0.00  0.00    +0.022 C 
ATOM     14  C   LIG A   1      -6.168  -1.179 129.778  0.00  0.00    +0.213 C 
ATOM     15  C   LIG A   1      -5.704  -0.254 130.989  0.00  0.00    +0.075 C 
ATOM     16  C   LIG A   1      -5.787   1.249 130.627  0.00  0.00    -0.002 C 
ATOM     17  C   LIG A   1      -4.879   2.112 131.119  0.00  0.00    +0.096 C 
ATOM     18  C   LIG A   1      -3.827   1.718 132.063  0.00  0.00    +0.333 C 
ATOM     19  O   LIG A   1      -3.643   0.394 132.242  0.00  0.00    -0.452 OA
ATOM     20  C   LIG A   1      -4.185  -0.555 131.293  0.00  0.00    +0.224 C 
ATOM     21  O   LIG A   1      -3.179   2.561 132.667  0.00  0.00    -0.246 OA
ATOM     22  C   LIG A   1      -6.535  -0.487 132.279  0.00  0.00    +0.024 C 
ATOM     23  C   LIG A   1      -5.058   1.748 126.846  0.00  0.00    +0.024 C 
ATOM     24  C   LIG A   1      -8.639   2.675 123.827  0.00  0.00    +0.019 C 
ENDROOT
BRANCH  20  25
ATOM     25  C   LIG A   1      -3.909  -1.951 131.821  0.00  0.00    +0.031 A 
ATOM     26  C   LIG A   1      -3.619  -3.079 131.073  0.00  0.00    +0.202 A 
ATOM     27  O   LIG A   1      -3.428  -4.161 131.867  0.00  0.00    -0.471 OA
ATOM     28  C   LIG A   1      -3.626  -3.752 133.143  0.00  0.00    +0.195 A 
ATOM     29  C   LIG A   1      -3.940  -2.414 133.173  0.00  0.00    +0.048 A 
ENDBRANCH  20  25
BRANCH  14  30
ATOM     30  O   LIG A   1      -7.365  -1.909 130.100  0.00  0.00    -0.456 OA
BRANCH  30  31
ATOM     31  C   LIG A   1      -7.393  -3.194 129.645  0.00  0.00    +0.304 C 
ATOM     32  C   LIG A   1      -8.534  -3.411 128.704  0.00  0.00    +0.136 C 
ATOM     33  O   LIG A   1      -6.621  -4.080 129.988  0.00  0.00    -0.251 OA
ENDBRANCH  30  31
ENDBRANCH  14  30
BRANCH   5  34
ATOM     34  C   LIG A   1      -8.731   0.694 126.049  0.00  0.00    +0.126 C 
BRANCH  34  35
ATOM     35  C   LIG A   1      -8.754  -0.722 125.515  0.00  0.00    +0.307 C 
ATOM     36  O   LIG A   1      -9.676  -1.496 125.582  0.00  0.00    -0.251 OA
BRANCH  35  37
ATOM     37  O   LIG A   1      -7.500  -1.052 125.085  0.00  0.00    -0.468 OA
ATOM     38  C   LIG A   1      -7.200  -2.415 125.370  0.00  0.00    +0.280 C 
ENDBRANCH  35  37
ENDBRANCH  34  35
ENDBRANCH   5  34
TORSDOF 6
ENDMDL
MODEL 6
REMARK VINA RESULT:      -8.1      3.887      8.456
REMARK  Name = NuBBE_1462
REMARK  13 active torsions:
REMARK  status: ('A' for Active; 'I' for Inactive)
REMARK    1  A    between atoms: C_3  and  C_4
REMARK    2  A    between atoms: C_3  and  C_41
REMARK    3  A    between atoms: C_5  and  C_36
REMARK    4  A    between atoms: C_7  and  C_35
REMARK    5  A    between atoms: C_9  and  C_13
REMARK    6  A    between atoms: C_15  and  O_31
REMARK    7  A    between atoms: C_17  and  C_30
REMARK    8  A    between atoms: C_22  and  C_24
REMARK    9  A    between atoms: O_31  and  C_32
REMARK   10  A    between atoms: C_32  and  C_33
REMARK   11  A    between atoms: C_36  and  C_37
REMARK   12  A    between atoms: C_37  and  O_38
REMARK   13  A    between atoms: O_38  and  C_39
REMARK                            x       y       z     vdW  Elec       q    Type
REMARK                         _______ _______ _______ _____ _____    ______ ____
ROOT
ATOM      1  O   LIG A   1      -3.279  -3.420 132.210  0.00  0.00    -0.292 OA
ATOM      2  C   LIG A   1      -4.322  -2.780 132.094  0.00  0.00    +0.165 C 
ATOM      3  C   LIG A   1      -5.581  -3.361 131.431  0.00  0.00    +0.032 C 
ATOM      4  C   LIG A   1      -6.376  -4.023 132.579  0.00  0.00    +0.019 C 
ATOM      5  C   LIG A   1      -6.406  -2.217 130.687  0.00  0.00    +0.030 C 
ATOM      6  C   LIG A   1      -6.632  -0.930 131.589  0.00  0.00    +0.055 C 
ATOM      7  C   LIG A   1      -6.881   0.439 130.969  0.00  0.00    -0.010 C 
ATOM      8  C   LIG A   1      -5.984   1.452 131.659  0.00  0.00    +0.152 C 
ATOM      9  O   LIG A   1      -5.368   0.737 132.763  0.00  0.00    -0.480 OA
ATOM     10  C   LIG A   1      -5.427  -0.614 132.429  0.00  0.00    +0.113 C 
ATOM     11  C   LIG A   1      -4.385  -1.415 132.671  0.00  0.00    +0.088 C 
ATOM     12  C   LIG A   1      -4.834   1.984 130.793  0.00  0.00    +0.066 C 
ATOM     13  C   LIG A   1      -7.923   0.835 130.219  0.00  0.00    +0.022 C 
ATOM     14  C   LIG A   1      -8.268   2.298 130.007  0.00  0.00    +0.213 C 
ATOM     15  C   LIG A   1      -7.795   3.295 131.155  0.00  0.00    +0.075 C 
ATOM     16  C   LIG A   1      -6.861   2.598 132.174  0.00  0.00    -0.002 C 
ATOM     17  C   LIG A   1      -6.904   2.942 133.474  0.00  0.00    +0.096 C 
ATOM     18  C   LIG A   1      -7.756   4.020 133.990  0.00  0.00    +0.333 C 
ATOM     19  O   LIG A   1      -8.690   4.506 133.149  0.00  0.00    -0.452 OA
ATOM     20  C   LIG A   1      -9.067   3.762 131.965  0.00  0.00    +0.224 C 
ATOM     21  O   LIG A   1      -7.594   4.459 135.120  0.00  0.00    -0.246 OA
ATOM     22  C   LIG A   1      -7.059   4.545 130.602  0.00  0.00    +0.024 C 
ATOM     23  C   LIG A   1      -7.848  -1.140 132.538  0.00  0.00    +0.024 C 
ATOM     24  C   LIG A   1      -5.172  -4.526 130.496  0.00  0.00    +0.019 C 
ENDROOT
BRANCH  20  25
ATOM     25  C   LIG A   1     -10.045   4.610 131.174  0.00  0.00    +0.031 A 
ATOM     26  C   LIG A   1     -11.013   4.158 130.293  0.00  0.00    +0.202 A 
ATOM     27  O   LIG A   1     -11.713   5.188 129.758  0.00  0.00    -0.471 OA
ATOM     28  C   LIG A   1     -11.183   6.328 130.263  0.00  0.00    +0.195 A 
ATOM     29  C   LIG A   1     -10.149   6.035 131.120  0.00  0.00    +0.048 A 
ENDBRANCH  20  25
BRANCH  14  30
ATOM     30  O   LIG A   1      -7.761   2.694 128.721  0.00  0.00    -0.456 OA
BRANCH  30  31
ATOM     31  C   LIG A   1      -8.092   1.862 127.692  0.00  0.00    +0.304 C 
ATOM     32  C   LIG A   1      -6.873   1.391 126.964  0.00  0.00    +0.136 C 
ATOM     33  O   LIG A   1      -9.232   1.565 127.365  0.00  0.00    -0.251 OA
ENDBRANCH  30  31
ENDBRANCH  14  30
BRANCH   5  34
ATOM     34  C   LIG A   1      -5.904  -1.924 129.246  0.00  0.00    +0.126 C 
BRANCH  34  35
ATOM     35  C   LIG A   1      -6.843  -2.231 128.099  0.00  0.00    +0.307 C 
ATOM     36  O   LIG A   1      -6.608  -2.090 126.925  0.00  0.00    -0.251 OA
BRANCH  35  37
ATOM     37  O   LIG A   1      -8.073  -2.542 128.606  0.00  0.00    -0.468 OA
ATOM     38  C   LIG A   1      -8.628  -3.679 127.951  0.00  0.00    +0.280 C 
ENDBRANCH  35  37
ENDBRANCH  34  35
ENDBRANCH   5  34
TORSDOF 6
ENDMDL
MODEL 7
REMARK VINA RESULT:      -8.0      4.768      8.141
REMARK  Name = NuBBE_1462
REMARK  13 active torsions:
REMARK  status: ('A' for Active; 'I' for Inactive)
REMARK    1  A    between atoms: C_3  and  C_4
REMARK    2  A    between atoms: C_3  and  C_41
REMARK    3  A    between atoms: C_5  and  C_36
REMARK    4  A    between atoms: C_7  and  C_35
REMARK    5  A    between atoms: C_9  and  C_13
REMARK    6  A    between atoms: C_15  and  O_31
REMARK    7  A    between atoms: C_17  and  C_30
REMARK    8  A    between atoms: C_22  and  C_24
REMARK    9  A    between atoms: O_31  and  C_32
REMARK   10  A    between atoms: C_32  and  C_33
REMARK   11  A    between atoms: C_36  and  C_37
REMARK   12  A    between atoms: C_37  and  O_38
REMARK   13  A    between atoms: O_38  and  C_39
REMARK                            x       y       z     vdW  Elec       q    Type
REMARK                         _______ _______ _______ _____ _____    ______ ____
ROOT
ATOM      1  O   LIG A   1      -9.392  -1.838 123.409  0.00  0.00    -0.292 OA
ATOM      2  C   LIG A   1      -8.526  -1.504 124.216  0.00  0.00    +0.165 C 
ATOM      3  C   LIG A   1      -7.596  -2.518 124.898  0.00  0.00    +0.032 C 
ATOM      4  C   LIG A   1      -6.368  -2.636 123.968  0.00  0.00    +0.019 C 
ATOM      5  C   LIG A   1      -7.213  -2.032 126.368  0.00  0.00    +0.030 C 
ATOM      6  C   LIG A   1      -6.737  -0.518 126.416  0.00  0.00    +0.055 C 
ATOM      7  C   LIG A   1      -6.848   0.309 127.690  0.00  0.00    -0.010 C 
ATOM      8  C   LIG A   1      -7.465   1.652 127.342  0.00  0.00    +0.152 C 
ATOM      9  O   LIG A   1      -7.544   1.680 125.892  0.00  0.00    -0.480 OA
ATOM     10  C   LIG A   1      -7.529   0.350 125.479  0.00  0.00    +0.113 C 
ATOM     11  C   LIG A   1      -8.333  -0.060 124.493  0.00  0.00    +0.088 C 
ATOM     12  C   LIG A   1      -8.898   1.851 127.857  0.00  0.00    +0.066 C 
ATOM     13  C   LIG A   1      -6.218   0.120 128.862  0.00  0.00    +0.022 C 
ATOM     14  C   LIG A   1      -6.086   1.214 129.904  0.00  0.00    +0.213 C 
ATOM     15  C   LIG A   1      -6.132   2.708 129.353  0.00  0.00    +0.075 C 
ATOM     16  C   LIG A   1      -6.537   2.756 127.859  0.00  0.00    -0.002 C 
ATOM     17  C   LIG A   1      -6.006   3.688 127.046  0.00  0.00    +0.096 C 
ATOM     18  C   LIG A   1      -5.096   4.738 127.517  0.00  0.00    +0.333 C 
ATOM     19  O   LIG A   1      -4.607   4.596 128.765  0.00  0.00    -0.452 OA
ATOM     20  C   LIG A   1      -4.680   3.317 129.439  0.00  0.00    +0.224 C 
ATOM     21  O   LIG A   1      -4.827   5.698 126.808  0.00  0.00    -0.246 OA
ATOM     22  C   LIG A   1      -7.111   3.614 130.147  0.00  0.00    +0.024 C 
ATOM     23  C   LIG A   1      -5.233  -0.410 126.027  0.00  0.00    +0.024 C 
ATOM     24  C   LIG A   1      -8.261  -3.917 124.872  0.00  0.00    +0.019 C 
ENDROOT
BRANCH  20  25
ATOM     25  C   LIG A   1      -4.154   3.504 130.851  0.00  0.00    +0.031 A 
ATOM     26  C   LIG A   1      -3.895   4.706 131.488  0.00  0.00    +0.202 A 
ATOM     27  O   LIG A   1      -3.433   4.507 132.746  0.00  0.00    -0.471 OA
ATOM     28  C   LIG A   1      -3.355   3.168 132.930  0.00  0.00    +0.195 A 
ATOM     29  C   LIG A   1      -3.767   2.506 131.798  0.00  0.00    +0.048 A 
ENDBRANCH  20  25
BRANCH  14  30
ATOM     30  O   LIG A   1      -7.086   0.992 130.914  0.00  0.00    -0.456 OA
BRANCH  30  31
ATOM     31  C   LIG A   1      -6.845  -0.066 131.738  0.00  0.00    +0.304 C 
ATOM     32  C   LIG A   1      -8.102  -0.819 132.036  0.00  0.00    +0.136 C 
ATOM     33  O   LIG A   1      -5.756  -0.352 132.218  0.00  0.00    -0.251 OA
ENDBRANCH  30  31
ENDBRANCH  14  30
BRANCH   5  34
ATOM     34  C   LIG A   1      -8.263  -2.420 127.447  0.00  0.00    +0.126 C 
BRANCH  34  35
ATOM     35  C   LIG A   1      -7.766  -3.134 128.685  0.00  0.00    +0.307 C 
ATOM     36  O   LIG A   1      -8.426  -3.440 129.647  0.00  0.00    -0.251 OA
BRANCH  35  37
ATOM     37  O   LIG A   1      -6.406  -3.238 128.620  0.00  0.00    -0.468 OA
ATOM     38  C   LIG A   1      -5.842  -3.440 129.913  0.00  0.00    +0.280 C 
ENDBRANCH  35  37
ENDBRANCH  34  35
ENDBRANCH   5  34
TORSDOF 6
ENDMDL
MODEL 8
REMARK VINA RESULT:      -8.0      4.556      7.266
REMARK  Name = NuBBE_1462
REMARK  13 active torsions:
REMARK  status: ('A' for Active; 'I' for Inactive)
REMARK    1  A    between atoms: C_3  and  C_4
REMARK    2  A    between atoms: C_3  and  C_41
REMARK    3  A    between atoms: C_5  and  C_36
REMARK    4  A    between atoms: C_7  and  C_35
REMARK    5  A    between atoms: C_9  and  C_13
REMARK    6  A    between atoms: C_15  and  O_31
REMARK    7  A    between atoms: C_17  and  C_30
REMARK    8  A    between atoms: C_22  and  C_24
REMARK    9  A    between atoms: O_31  and  C_32
REMARK   10  A    between atoms: C_32  and  C_33
REMARK   11  A    between atoms: C_36  and  C_37
REMARK   12  A    between atoms: C_37  and  O_38
REMARK   13  A    between atoms: O_38  and  C_39
REMARK                            x       y       z     vdW  Elec       q    Type
REMARK                         _______ _______ _______ _____ _____    ______ ____
ROOT
ATOM      1  O   LIG A   1      -7.365   3.938 134.479  0.00  0.00    -0.292 OA
ATOM      2  C   LIG A   1      -7.022   3.631 133.339  0.00  0.00    +0.165 C 
ATOM      3  C   LIG A   1      -6.869   4.664 132.213  0.00  0.00    +0.032 C 
ATOM      4  C   LIG A   1      -5.399   5.133 132.288  0.00  0.00    +0.019 C 
ATOM      5  C   LIG A   1      -7.242   4.021 130.802  0.00  0.00    +0.030 C 
ATOM      6  C   LIG A   1      -6.535   2.620 130.554  0.00  0.00    +0.055 C 
ATOM      7  C   LIG A   1      -7.124   1.594 129.595  0.00  0.00    -0.010 C 
ATOM      8  C   LIG A   1      -7.129   0.239 130.282  0.00  0.00    +0.152 C 
ATOM      9  O   LIG A   1      -6.404   0.430 131.525  0.00  0.00    -0.480 OA
ATOM     10  C   LIG A   1      -6.473   1.793 131.807  0.00  0.00    +0.113 C 
ATOM     11  C   LIG A   1      -6.686   2.214 133.057  0.00  0.00    +0.088 C 
ATOM     12  C   LIG A   1      -8.522  -0.277 130.668  0.00  0.00    +0.066 C 
ATOM     13  C   LIG A   1      -7.289   1.697 128.266  0.00  0.00    +0.022 C 
ATOM     14  C   LIG A   1      -7.494   0.487 127.372  0.00  0.00    +0.213 C 
ATOM     15  C   LIG A   1      -6.893  -0.885 127.912  0.00  0.00    +0.075 C 
ATOM     16  C   LIG A   1      -6.403  -0.761 129.376  0.00  0.00    -0.002 C 
ATOM     17  C   LIG A   1      -5.322  -1.449 129.786  0.00  0.00    +0.096 C 
ATOM     18  C   LIG A   1      -4.598  -2.392 128.926  0.00  0.00    +0.333 C 
ATOM     19  O   LIG A   1      -4.908  -2.372 127.614  0.00  0.00    -0.452 OA
ATOM     20  C   LIG A   1      -5.624  -1.247 127.048  0.00  0.00    +0.224 C 
ATOM     21  O   LIG A   1      -3.779  -3.168 129.398  0.00  0.00    -0.246 OA
ATOM     22  C   LIG A   1      -7.907  -2.058 127.841  0.00  0.00    +0.024 C 
ATOM     23  C   LIG A   1      -5.082   2.830 130.036  0.00  0.00    +0.024 C 
ATOM     24  C   LIG A   1      -7.714   5.917 132.554  0.00  0.00    +0.019 C 
ENDROOT
BRANCH  20  25
ATOM     25  C   LIG A   1      -5.917  -1.567 125.594  0.00  0.00    +0.031 A 
ATOM     26  C   LIG A   1      -5.979  -2.824 125.017  0.00  0.00    +0.202 A 
ATOM     27  O   LIG A   1      -6.263  -2.744 123.694  0.00  0.00    -0.471 OA
ATOM     28  C   LIG A   1      -6.356  -1.428 123.389  0.00  0.00    +0.195 A 
ATOM     29  C   LIG A   1      -6.136  -0.662 124.510  0.00  0.00    +0.048 A 
ENDBRANCH  20  25
BRANCH  14  30
ATOM     30  O   LIG A   1      -8.901   0.374 127.091  0.00  0.00    -0.456 OA
BRANCH  30  31
ATOM     31  C   LIG A   1      -9.223   0.380 125.767  0.00  0.00    +0.304 C 
ATOM     32  C   LIG A   1      -9.024   1.736 125.167  0.00  0.00    +0.136 C 
ATOM     33  O   LIG A   1      -9.663  -0.576 125.143  0.00  0.00    -0.251 OA
ENDBRANCH  30  31
ENDBRANCH  14  30
BRANCH   5  34
ATOM     34  C   LIG A   1      -8.763   4.049 130.485  0.00  0.00    +0.126 C 
BRANCH  34  35
ATOM     35  C   LIG A   1      -9.211   4.816 129.260  0.00  0.00    +0.307 C 
ATOM     36  O   LIG A   1      -8.550   5.043 128.277  0.00  0.00    -0.251 OA
BRANCH  35  37
ATOM     37  O   LIG A   1     -10.439   5.360 129.504  0.00  0.00    -0.468 OA
ATOM     38  C   LIG A   1     -10.921   4.988 130.792  0.00  0.00    +0.280 C 
ENDBRANCH  35  37
ENDBRANCH  34  35
ENDBRANCH   5  34
TORSDOF 6
ENDMDL
MODEL 9
REMARK VINA RESULT:      -7.9      3.851      7.285
REMARK  Name = NuBBE_1462
REMARK  13 active torsions:
REMARK  status: ('A' for Active; 'I' for Inactive)
REMARK    1  A    between atoms: C_3  and  C_4
REMARK    2  A    between atoms: C_3  and  C_41
REMARK    3  A    between atoms: C_5  and  C_36
REMARK    4  A    between atoms: C_7  and  C_35
REMARK    5  A    between atoms: C_9  and  C_13
REMARK    6  A    between atoms: C_15  and  O_31
REMARK    7  A    between atoms: C_17  and  C_30
REMARK    8  A    between atoms: C_22  and  C_24
REMARK    9  A    between atoms: O_31  and  C_32
REMARK   10  A    between atoms: C_32  and  C_33
REMARK   11  A    between atoms: C_36  and  C_37
REMARK   12  A    between atoms: C_37  and  O_38
REMARK   13  A    between atoms: O_38  and  C_39
REMARK                            x       y       z     vdW  Elec       q    Type
REMARK                         _______ _______ _______ _____ _____    ______ ____
ROOT
ATOM      1  O   LIG A   1      -8.095  -3.180 127.251  0.00  0.00    -0.292 OA
ATOM      2  C   LIG A   1      -7.373  -2.413 127.887  0.00  0.00    +0.165 C 
ATOM      3  C   LIG A   1      -7.179  -2.528 129.406  0.00  0.00    +0.032 C 
ATOM      4  C   LIG A   1      -5.966  -3.466 129.592  0.00  0.00    +0.019 C 
ATOM      5  C   LIG A   1      -6.953  -1.089 130.056  0.00  0.00    +0.030 C 
ATOM      6  C   LIG A   1      -5.867  -0.224 129.284  0.00  0.00    +0.055 C 
ATOM      7  C   LIG A   1      -5.870   1.297 129.352  0.00  0.00    -0.010 C 
ATOM      8  C   LIG A   1      -5.719   1.843 127.943  0.00  0.00    +0.152 C 
ATOM      9  O   LIG A   1      -5.454   0.688 127.104  0.00  0.00    -0.480 OA
ATOM     10  C   LIG A   1      -5.952  -0.414 127.796  0.00  0.00    +0.113 C 
ATOM     11  C   LIG A   1      -6.614  -1.376 127.146  0.00  0.00    +0.088 C 
ATOM     12  C   LIG A   1      -6.980   2.510 127.376  0.00  0.00    +0.066 C 
ATOM     13  C   LIG A   1      -5.670   2.082 130.423  0.00  0.00    +0.022 C 
ATOM     14  C   LIG A   1      -5.290   3.547 130.304  0.00  0.00    +0.213 C 
ATOM     15  C   LIG A   1      -4.533   3.960 128.965  0.00  0.00    +0.075 C 
ATOM     16  C   LIG A   1      -4.531   2.811 127.927  0.00  0.00    -0.002 C 
ATOM     17  C   LIG A   1      -3.472   2.636 127.117  0.00  0.00    +0.096 C 
ATOM     18  C   LIG A   1      -2.313   3.537 127.105  0.00  0.00    +0.333 C 
ATOM     19  O   LIG A   1      -2.230   4.426 128.116  0.00  0.00    -0.452 OA
ATOM     20  C   LIG A   1      -3.021   4.246 129.315  0.00  0.00    +0.224 C 
ATOM     21  O   LIG A   1      -1.491   3.488 126.201  0.00  0.00    -0.246 OA
ATOM     22  C   LIG A   1      -5.144   5.218 128.291  0.00  0.00    +0.024 C 
ATOM     23  C   LIG A   1      -4.433  -0.619 129.745  0.00  0.00    +0.024 C 
ATOM     24  C   LIG A   1      -8.381  -3.290 130.017  0.00  0.00    +0.019 C 
ENDROOT
BRANCH  20  25
ATOM     25  C   LIG A   1      -2.794   5.452 130.207  0.00  0.00    +0.031 A 
ATOM     26  C   LIG A   1      -2.794   6.782 129.822  0.00  0.00    +0.202 A 
ATOM     27  O   LIG A   1      -2.557   7.600 130.875  0.00  0.00    -0.471 OA
ATOM     28  C   LIG A   1      -2.367   6.806 131.956  0.00  0.00    +0.195 A 
ATOM     29  C   LIG A   1      -2.483   5.483 131.602  0.00  0.00    +0.048 A 
ENDBRANCH  20  25
BRANCH  14  30
ATOM     30  O   LIG A   1      -6.478   4.333 130.504  0.00  0.00    -0.456 OA
BRANCH  30  31
ATOM     31  C   LIG A   1      -6.464   5.119 131.618  0.00  0.00    +0.304 C 
ATOM     32  C   LIG A   1      -6.813   6.535 131.287  0.00  0.00    +0.136 C 
ATOM     33  O   LIG A   1      -6.164   4.742 132.743  0.00  0.00    -0.251 OA
ENDBRANCH  30  31
ENDBRANCH  14  30
BRANCH   5  34
ATOM     34  C   LIG A   1      -8.273  -0.337 130.382  0.00  0.00    +0.126 C 
BRANCH  34  35
ATOM     35  C   LIG A   1      -8.568  -0.033 131.835  0.00  0.00    +0.307 C 
ATOM     36  O   LIG A   1      -7.887  -0.339 132.782  0.00  0.00    -0.251 OA
BRANCH  35  37
ATOM     37  O   LIG A   1      -9.821   0.504 131.928  0.00  0.00    -0.468 OA
ATOM     38  C   LIG A   1      -9.762   1.906 132.176  0.00  0.00    +0.280 C 
ENDBRANCH  35  37
ENDBRANCH  34  35
ENDBRANCH   5  34
TORSDOF 6
ENDMDL
