MODEL 1
REMARK VINA RESULT:      -7.7      0.000      0.000
REMARK  Name = NuBBE_227
REMARK  20 active torsions:
REMARK  status: ('A' for Active; 'I' for Inactive)
REMARK    1  A    between atoms: C_1  and  C_2
REMARK    2  A    between atoms: C_4  and  O_6
REMARK    3  A    between atoms: O_6  and  C_7
REMARK    4  A    between atoms: C_7  and  C_8
REMARK    5  A    between atoms: C_8  and  C_9
REMARK    6  A    between atoms: C_9  and  C_10
REMARK    7  A    between atoms: C_15  and  O_17
REMARK    8  A    between atoms: O_17  and  C_18
REMARK    9  A    between atoms: C_18  and  C_19
REMARK   10  A    between atoms: C_22  and  O_24
REMARK   11  A    between atoms: O_24  and  C_25
REMARK   12  A    between atoms: C_25  and  C_26
REMARK   13  A    between atoms: C_26  and  C_27
REMARK   14  A    between atoms: C_27  and  C_28
REMARK   15  A    between atoms: C_31  and  O_33
REMARK   16  A    between atoms: C_37  and  C_38
REMARK   17  A    between atoms: C_37  and  C_39
REMARK   18  A    between atoms: C_39  and  C_40
REMARK   19  A    between atoms: C_41  and  C_42
REMARK   20  A    between atoms: C_41  and  C_44
REMARK                            x       y       z     vdW  Elec       q    Type
REMARK                         _______ _______ _______ _____ _____    ______ ____
ROOT
ATOM      1  C   LIG A   1      -7.419  -0.289 131.005  0.00  0.00    +0.012 C 
ATOM      2  C   LIG A   1      -6.994   0.671 129.889  0.00  0.00    +0.033 C 
ATOM      3  C   LIG A   1      -8.270   1.308 129.263  0.00  0.00    +0.181 C 
ATOM      4  C   LIG A   1      -8.463   1.091 127.761  0.00  0.00    +0.062 C 
ATOM      5  C   LIG A   1      -7.206   1.296 126.822  0.00  0.00    +0.067 C 
ATOM      6  C   LIG A   1      -7.274   2.653 126.077  0.00  0.00    +0.009 C 
ATOM      7  C   LIG A   1      -8.458   2.639 125.166  0.00  0.00    +0.343 C 
ATOM      8  O   LIG A   1      -8.447   1.280 124.690  0.00  0.00    -0.297 OA
ATOM      9  C   LIG A   1      -7.462   0.537 125.467  0.00  0.00    +0.325 C 
ATOM     10  C   LIG A   1      -6.287   3.567 126.042  0.00  0.00    +0.010 C 
ATOM     11  C   LIG A   1      -5.004   3.510 126.831  0.00  0.00    +0.138 C 
ATOM     12  C   LIG A   1      -4.792   2.199 127.738  0.00  0.00    +0.040 C 
ATOM     13  C   LIG A   1      -5.813   0.955 127.598  0.00  0.00    +0.015 C 
ATOM     14  C   LIG A   1      -5.905   0.082 128.922  0.00  0.00    -0.019 C 
ATOM     15  C   LIG A   1      -4.519   0.170 129.684  0.00  0.00    +0.012 C 
ENDROOT
BRANCH  11  16
ATOM     16  O   LIG A   1      -3.849   3.796 126.018  0.00  0.00    -0.388 OA
ATOM     17  H   LIG A   1      -4.140   3.664 125.100  0.00  0.00    +0.210 HD
ENDBRANCH  11  16
BRANCH   3  18
ATOM     18  O   LIG A   1      -8.432   2.687 129.729  0.00  0.00    -0.461 OA
BRANCH  18  19
ATOM     19  C   LIG A   1      -9.656   2.880 130.330  0.00  0.00    +0.307 C 
ATOM     20  O   LIG A   1     -10.437   3.612 129.939  0.00  0.00    -0.251 OA
BRANCH  19  21
ATOM     21  C   LIG A   1      -9.938   2.151 131.586  0.00  0.00    +0.120 C 
BRANCH  21  22
ATOM     22  C   LIG A   1      -9.362   2.913 132.811  0.00  0.00    +0.008 C 
ATOM     23  C   LIG A   1      -7.970   2.573 133.343  0.00  0.00    +0.004 C 
ENDBRANCH  21  22
ENDBRANCH  19  21
ENDBRANCH  18  19
ENDBRANCH   3  18
BRANCH   7  24
ATOM     24  O   LIG A   1      -8.277   3.589 124.113  0.00  0.00    -0.431 OA
BRANCH  24  25
ATOM     25  C   LIG A   1      -8.192   3.011 122.877  0.00  0.00    +0.306 C 
ATOM     26  C   LIG A   1      -6.762   3.001 122.387  0.00  0.00    +0.136 C 
ATOM     27  O   LIG A   1      -9.143   2.712 122.166  0.00  0.00    -0.251 OA
ENDBRANCH  24  25
ENDBRANCH   7  24
BRANCH   9  28
ATOM     28  O   LIG A   1      -6.316   0.098 124.695  0.00  0.00    -0.434 OA
BRANCH  28  29
ATOM     29  C   LIG A   1      -6.311  -1.111 124.137  0.00  0.00    +0.309 C 
ATOM     30  O   LIG A   1      -6.884  -1.436 123.126  0.00  0.00    -0.251 OA
BRANCH  29  31
ATOM     31  C   LIG A   1      -5.577  -2.219 124.662  0.00  0.00    +0.120 C 
BRANCH  31  32
ATOM     32  C   LIG A   1      -5.326  -2.941 123.394  0.00  0.00    +0.008 C 
ATOM     33  C   LIG A   1      -4.372  -4.047 123.648  0.00  0.00    +0.004 C 
ENDBRANCH  31  32
ENDBRANCH  29  31
ENDBRANCH  28  29
ENDBRANCH   9  28
BRANCH  14  34
ATOM     34  C   LIG A   1      -6.013  -1.477 128.535  0.00  0.00    +0.034 C 
BRANCH  34  35
ATOM     35  C   LIG A   1      -4.771  -2.309 128.561  0.00  0.00    -0.023 C 
ATOM     36  C   LIG A   1      -4.347  -3.381 129.240  0.00  0.00    -0.055 C 
ATOM     37  C   LIG A   1      -2.927  -3.901 129.071  0.00  0.00    +0.043 C 
BRANCH  36  38
ATOM     38  C   LIG A   1      -5.212  -4.068 130.150  0.00  0.00    -0.005 C 
ATOM     39  C   LIG A   1      -5.147  -3.868 131.469  0.00  0.00    +0.008 C 
ENDBRANCH  36  38
ENDBRANCH  34  35
ENDBRANCH  14  34
TORSDOF 14
ENDMDL
MODEL 2
REMARK VINA RESULT:      -7.6      2.574      5.199
REMARK  Name = NuBBE_227
REMARK  20 active torsions:
REMARK  status: ('A' for Active; 'I' for Inactive)
REMARK    1  A    between atoms: C_1  and  C_2
REMARK    2  A    between atoms: C_4  and  O_6
REMARK    3  A    between atoms: O_6  and  C_7
REMARK    4  A    between atoms: C_7  and  C_8
REMARK    5  A    between atoms: C_8  and  C_9
REMARK    6  A    between atoms: C_9  and  C_10
REMARK    7  A    between atoms: C_15  and  O_17
REMARK    8  A    between atoms: O_17  and  C_18
REMARK    9  A    between atoms: C_18  and  C_19
REMARK   10  A    between atoms: C_22  and  O_24
REMARK   11  A    between atoms: O_24  and  C_25
REMARK   12  A    between atoms: C_25  and  C_26
REMARK   13  A    between atoms: C_26  and  C_27
REMARK   14  A    between atoms: C_27  and  C_28
REMARK   15  A    between atoms: C_31  and  O_33
REMARK   16  A    between atoms: C_37  and  C_38
REMARK   17  A    between atoms: C_37  and  C_39
REMARK   18  A    between atoms: C_39  and  C_40
REMARK   19  A    between atoms: C_41  and  C_42
REMARK   20  A    between atoms: C_41  and  C_44
REMARK                            x       y       z     vdW  Elec       q    Type
REMARK                         _______ _______ _______ _____ _____    ______ ____
ROOT
ATOM      1  C   LIG A   1      -7.903  -1.521 127.815  0.00  0.00    +0.012 C 
ATOM      2  C   LIG A   1      -7.160  -0.239 128.207  0.00  0.00    +0.033 C 
ATOM      3  C   LIG A   1      -8.019   0.538 129.248  0.00  0.00    +0.181 C 
ATOM      4  C   LIG A   1      -8.414   1.965 128.864  0.00  0.00    +0.062 C 
ATOM      5  C   LIG A   1      -7.294   2.895 128.243  0.00  0.00    +0.067 C 
ATOM      6  C   LIG A   1      -6.761   3.910 129.285  0.00  0.00    +0.009 C 
ATOM      7  C   LIG A   1      -7.875   4.826 129.673  0.00  0.00    +0.343 C 
ATOM      8  O   LIG A   1      -8.559   5.006 128.419  0.00  0.00    -0.297 OA
ATOM      9  C   LIG A   1      -7.993   4.066 127.457  0.00  0.00    +0.325 C 
ATOM     10  C   LIG A   1      -5.462   4.111 129.575  0.00  0.00    +0.010 C 
ATOM     11  C   LIG A   1      -4.306   3.297 129.056  0.00  0.00    +0.138 C 
ATOM     12  C   LIG A   1      -4.678   2.130 128.013  0.00  0.00    +0.040 C 
ATOM     13  C   LIG A   1      -6.180   2.030 127.425  0.00  0.00    +0.015 C 
ATOM     14  C   LIG A   1      -6.572   0.555 126.985  0.00  0.00    -0.019 C 
ATOM     15  C   LIG A   1      -5.258  -0.205 126.534  0.00  0.00    +0.012 C 
ENDROOT
BRANCH  11  16
ATOM     16  O   LIG A   1      -3.226   4.123 128.577  0.00  0.00    -0.388 OA
ATOM     17  H   LIG A   1      -2.415   3.717 128.928  0.00  0.00    +0.210 HD
ENDBRANCH  11  16
BRANCH   3  18
ATOM     18  O   LIG A   1      -7.458   0.376 130.592  0.00  0.00    -0.461 OA
BRANCH  18  19
ATOM     19  C   LIG A   1      -8.390   0.650 131.568  0.00  0.00    +0.307 C 
ATOM     20  O   LIG A   1      -9.408   0.140 131.623  0.00  0.00    -0.251 OA
BRANCH  19  21
ATOM     21  C   LIG A   1      -8.077   1.709 132.553  0.00  0.00    +0.120 C 
BRANCH  21  22
ATOM     22  C   LIG A   1      -9.326   2.584 132.844  0.00  0.00    +0.008 C 
ATOM     23  C   LIG A   1      -9.241   3.737 133.842  0.00  0.00    +0.004 C 
ENDBRANCH  21  22
ENDBRANCH  19  21
ENDBRANCH  18  19
ENDBRANCH   3  18
BRANCH   7  24
ATOM     24  O   LIG A   1      -7.345   6.051 130.188  0.00  0.00    -0.431 OA
BRANCH  24  25
ATOM     25  C   LIG A   1      -7.829   6.366 131.427  0.00  0.00    +0.306 C 
ATOM     26  C   LIG A   1      -6.819   6.027 132.499  0.00  0.00    +0.136 C 
ATOM     27  O   LIG A   1      -8.982   6.696 131.677  0.00  0.00    -0.251 OA
ENDBRANCH  24  25
ENDBRANCH   7  24
BRANCH   9  28
ATOM     28  O   LIG A   1      -7.267   4.700 126.375  0.00  0.00    -0.434 OA
BRANCH  28  29
ATOM     29  C   LIG A   1      -7.363   4.221 125.136  0.00  0.00    +0.309 C 
ATOM     30  O   LIG A   1      -8.383   3.956 124.547  0.00  0.00    -0.251 OA
BRANCH  29  31
ATOM     31  C   LIG A   1      -6.234   3.974 124.295  0.00  0.00    +0.120 C 
BRANCH  31  32
ATOM     32  C   LIG A   1      -6.941   3.354 123.150  0.00  0.00    +0.008 C 
ATOM     33  C   LIG A   1      -6.124   3.531 121.926  0.00  0.00    +0.004 C 
ENDBRANCH  31  32
ENDBRANCH  29  31
ENDBRANCH  28  29
ENDBRANCH   9  28
BRANCH  14  34
ATOM     34  C   LIG A   1      -7.448   0.609 125.637  0.00  0.00    +0.034 C 
BRANCH  34  35
ATOM     35  C   LIG A   1      -6.964  -0.143 124.438  0.00  0.00    -0.023 C 
ATOM     36  C   LIG A   1      -7.345  -1.241 123.774  0.00  0.00    -0.055 C 
ATOM     37  C   LIG A   1      -6.512  -1.786 122.624  0.00  0.00    +0.043 C 
BRANCH  36  38
ATOM     38  C   LIG A   1      -8.544  -1.938 124.128  0.00  0.00    -0.005 C 
ATOM     39  C   LIG A   1      -8.597  -3.272 124.163  0.00  0.00    +0.008 C 
ENDBRANCH  36  38
ENDBRANCH  34  35
ENDBRANCH  14  34
TORSDOF 14
ENDMDL
MODEL 3
REMARK VINA RESULT:      -7.5      2.094      2.855
REMARK  Name = NuBBE_227
REMARK  20 active torsions:
REMARK  status: ('A' for Active; 'I' for Inactive)
REMARK    1  A    between atoms: C_1  and  C_2
REMARK    2  A    between atoms: C_4  and  O_6
REMARK    3  A    between atoms: O_6  and  C_7
REMARK    4  A    between atoms: C_7  and  C_8
REMARK    5  A    between atoms: C_8  and  C_9
REMARK    6  A    between atoms: C_9  and  C_10
REMARK    7  A    between atoms: C_15  and  O_17
REMARK    8  A    between atoms: O_17  and  C_18
REMARK    9  A    between atoms: C_18  and  C_19
REMARK   10  A    between atoms: C_22  and  O_24
REMARK   11  A    between atoms: O_24  and  C_25
REMARK   12  A    between atoms: C_25  and  C_26
REMARK   13  A    between atoms: C_26  and  C_27
REMARK   14  A    between atoms: C_27  and  C_28
REMARK   15  A    between atoms: C_31  and  O_33
REMARK   16  A    between atoms: C_37  and  C_38
REMARK   17  A    between atoms: C_37  and  C_39
REMARK   18  A    between atoms: C_39  and  C_40
REMARK   19  A    between atoms: C_41  and  C_42
REMARK   20  A    between atoms: C_41  and  C_44
REMARK                            x       y       z     vdW  Elec       q    Type
REMARK                         _______ _______ _______ _____ _____    ______ ____
ROOT
ATOM      1  C   LIG A   1      -9.530   1.970 131.999  0.00  0.00    +0.012 C 
ATOM      2  C   LIG A   1      -8.416   2.125 130.958  0.00  0.00    +0.033 C 
ATOM      3  C   LIG A   1      -9.015   2.787 129.681  0.00  0.00    +0.181 C 
ATOM      4  C   LIG A   1      -8.874   1.991 128.382  0.00  0.00    +0.062 C 
ATOM      5  C   LIG A   1      -7.469   1.330 128.074  0.00  0.00    +0.067 C 
ATOM      6  C   LIG A   1      -6.681   2.144 127.018  0.00  0.00    +0.009 C 
ATOM      7  C   LIG A   1      -7.433   2.106 125.728  0.00  0.00    +0.343 C 
ATOM      8  O   LIG A   1      -7.940   0.758 125.722  0.00  0.00    -0.297 OA
ATOM      9  C   LIG A   1      -7.677   0.171 127.031  0.00  0.00    +0.325 C 
ATOM     10  C   LIG A   1      -5.411   2.567 127.156  0.00  0.00    +0.010 C 
ATOM     11  C   LIG A   1      -4.576   2.460 128.406  0.00  0.00    +0.138 C 
ATOM     12  C   LIG A   1      -5.266   1.710 129.651  0.00  0.00    +0.040 C 
ATOM     13  C   LIG A   1      -6.674   0.944 129.445  0.00  0.00    +0.015 C 
ATOM     14  C   LIG A   1      -7.522   0.846 130.784  0.00  0.00    -0.019 C 
ATOM     15  C   LIG A   1      -6.525   0.812 132.014  0.00  0.00    +0.012 C 
ENDROOT
BRANCH  11  16
ATOM     16  O   LIG A   1      -3.253   1.955 128.138  0.00  0.00    -0.388 OA
ATOM     17  H   LIG A   1      -2.799   2.666 127.655  0.00  0.00    +0.210 HD
ENDBRANCH  11  16
BRANCH   3  18
ATOM     18  O   LIG A   1      -8.623   4.196 129.606  0.00  0.00    -0.461 OA
BRANCH  18  19
ATOM     19  C   LIG A   1      -9.687   5.034 129.854  0.00  0.00    +0.307 C 
ATOM     20  O   LIG A   1     -10.771   4.682 129.871  0.00  0.00    -0.251 OA
BRANCH  19  21
ATOM     21  C   LIG A   1      -9.410   6.476 130.038  0.00  0.00    +0.120 C 
BRANCH  21  22
ATOM     22  C   LIG A   1     -10.601   7.338 129.537  0.00  0.00    +0.008 C 
ATOM     23  C   LIG A   1     -10.409   8.311 128.374  0.00  0.00    +0.004 C 
ENDBRANCH  21  22
ENDBRANCH  19  21
ENDBRANCH  18  19
ENDBRANCH   3  18
BRANCH   7  24
ATOM     24  O   LIG A   1      -6.547   2.362 124.635  0.00  0.00    -0.431 OA
BRANCH  24  25
ATOM     25  C   LIG A   1      -7.068   3.226 123.712  0.00  0.00    +0.306 C 
ATOM     26  C   LIG A   1      -5.964   3.941 122.966  0.00  0.00    +0.136 C 
ATOM     27  O   LIG A   1      -8.248   3.536 123.616  0.00  0.00    -0.251 OA
ENDBRANCH  24  25
ENDBRANCH   7  24
BRANCH   9  28
ATOM     28  O   LIG A   1      -6.716  -0.914 127.004  0.00  0.00    -0.434 OA
BRANCH  28  29
ATOM     29  C   LIG A   1      -6.622  -1.695 125.930  0.00  0.00    +0.309 C 
ATOM     30  O   LIG A   1      -7.454  -2.476 125.535  0.00  0.00    -0.251 OA
BRANCH  29  31
ATOM     31  C   LIG A   1      -5.495  -1.696 125.050  0.00  0.00    +0.120 C 
BRANCH  31  32
ATOM     32  C   LIG A   1      -5.792  -2.943 124.309  0.00  0.00    +0.008 C 
ATOM     33  C   LIG A   1      -4.626  -3.291 123.463  0.00  0.00    +0.004 C 
ENDBRANCH  31  32
ENDBRANCH  29  31
ENDBRANCH  28  29
ENDBRANCH   9  28
BRANCH  14  34
ATOM     34  C   LIG A   1      -8.248  -0.589 130.859  0.00  0.00    +0.034 C 
BRANCH  34  35
ATOM     35  C   LIG A   1      -7.421  -1.821 130.662  0.00  0.00    -0.023 C 
ATOM     36  C   LIG A   1      -7.481  -2.902 129.877  0.00  0.00    -0.055 C 
ATOM     37  C   LIG A   1      -6.487  -4.042 130.042  0.00  0.00    +0.043 C 
BRANCH  36  38
ATOM     38  C   LIG A   1      -8.482  -3.023 128.863  0.00  0.00    -0.005 C 
ATOM     39  C   LIG A   1      -8.795  -4.202 128.319  0.00  0.00    +0.008 C 
ENDBRANCH  36  38
ENDBRANCH  34  35
ENDBRANCH  14  34
TORSDOF 14
ENDMDL
MODEL 4
REMARK VINA RESULT:      -7.5      2.579      6.710
REMARK  Name = NuBBE_227
REMARK  20 active torsions:
REMARK  status: ('A' for Active; 'I' for Inactive)
REMARK    1  A    between atoms: C_1  and  C_2
REMARK    2  A    between atoms: C_4  and  O_6
REMARK    3  A    between atoms: O_6  and  C_7
REMARK    4  A    between atoms: C_7  and  C_8
REMARK    5  A    between atoms: C_8  and  C_9
REMARK    6  A    between atoms: C_9  and  C_10
REMARK    7  A    between atoms: C_15  and  O_17
REMARK    8  A    between atoms: O_17  and  C_18
REMARK    9  A    between atoms: C_18  and  C_19
REMARK   10  A    between atoms: C_22  and  O_24
REMARK   11  A    between atoms: O_24  and  C_25
REMARK   12  A    between atoms: C_25  and  C_26
REMARK   13  A    between atoms: C_26  and  C_27
REMARK   14  A    between atoms: C_27  and  C_28
REMARK   15  A    between atoms: C_31  and  O_33
REMARK   16  A    between atoms: C_37  and  C_38
REMARK   17  A    between atoms: C_37  and  C_39
REMARK   18  A    between atoms: C_39  and  C_40
REMARK   19  A    between atoms: C_41  and  C_42
REMARK   20  A    between atoms: C_41  and  C_44
REMARK                            x       y       z     vdW  Elec       q    Type
REMARK                         _______ _______ _______ _____ _____    ______ ____
ROOT
ATOM      1  C   LIG A   1      -7.187   0.362 123.727  0.00  0.00    +0.012 C 
ATOM      2  C   LIG A   1      -7.254   1.299 124.937  0.00  0.00    +0.033 C 
ATOM      3  C   LIG A   1      -6.082   2.321 124.844  0.00  0.00    +0.181 C 
ATOM      4  C   LIG A   1      -5.111   2.342 126.026  0.00  0.00    +0.062 C 
ATOM      5  C   LIG A   1      -5.728   2.316 127.483  0.00  0.00    +0.067 C 
ATOM      6  C   LIG A   1      -5.692   3.720 128.137  0.00  0.00    +0.009 C 
ATOM      7  C   LIG A   1      -4.265   4.129 128.312  0.00  0.00    +0.343 C 
ATOM      8  O   LIG A   1      -3.645   2.882 128.676  0.00  0.00    -0.297 OA
ATOM      9  C   LIG A   1      -4.624   1.817 128.488  0.00  0.00    +0.325 C 
ATOM     10  C   LIG A   1      -6.744   4.337 128.705  0.00  0.00    +0.010 C 
ATOM     11  C   LIG A   1      -8.170   3.850 128.683  0.00  0.00    +0.138 C 
ATOM     12  C   LIG A   1      -8.419   2.431 127.966  0.00  0.00    +0.040 C 
ATOM     13  C   LIG A   1      -7.155   1.528 127.518  0.00  0.00    +0.015 C 
ATOM     14  C   LIG A   1      -7.491   0.561 126.303  0.00  0.00    -0.019 C 
ATOM     15  C   LIG A   1      -9.028   0.188 126.363  0.00  0.00    +0.012 C 
ENDROOT
BRANCH  11  16
ATOM     16  O   LIG A   1      -8.790   3.913 129.982  0.00  0.00    -0.388 OA
ATOM     17  H   LIG A   1      -8.056   3.962 130.617  0.00  0.00    +0.210 HD
ENDBRANCH  11  16
BRANCH   3  18
ATOM     18  O   LIG A   1      -6.580   3.629 124.411  0.00  0.00    -0.461 OA
BRANCH  18  19
ATOM     19  C   LIG A   1      -5.906   4.087 123.300  0.00  0.00    +0.307 C 
ATOM     20  O   LIG A   1      -5.159   4.948 123.332  0.00  0.00    -0.251 OA
BRANCH  19  21
ATOM     21  C   LIG A   1      -6.222   3.475 121.991  0.00  0.00    +0.120 C 
BRANCH  21  22
ATOM     22  C   LIG A   1      -5.172   3.879 120.922  0.00  0.00    +0.008 C 
ATOM     23  C   LIG A   1      -5.513   4.932 119.868  0.00  0.00    +0.004 C 
ENDBRANCH  21  22
ENDBRANCH  19  21
ENDBRANCH  18  19
ENDBRANCH   3  18
BRANCH   7  24
ATOM     24  O   LIG A   1      -4.161   5.115 129.342  0.00  0.00    -0.431 OA
BRANCH  24  25
ATOM     25  C   LIG A   1      -3.685   6.314 128.891  0.00  0.00    +0.306 C 
ATOM     26  C   LIG A   1      -2.192   6.246 128.660  0.00  0.00    +0.136 C 
ATOM     27  O   LIG A   1      -4.318   7.362 128.854  0.00  0.00    -0.251 OA
ENDBRANCH  24  25
ENDBRANCH   7  24
BRANCH   9  28
ATOM     28  O   LIG A   1      -5.048   1.185 129.721  0.00  0.00    -0.434 OA
BRANCH  28  29
ATOM     29  C   LIG A   1      -4.790  -0.104 129.933  0.00  0.00    +0.309 C 
ATOM     30  O   LIG A   1      -3.699  -0.606 130.052  0.00  0.00    -0.251 OA
BRANCH  29  31
ATOM     31  C   LIG A   1      -5.806  -1.098 130.081  0.00  0.00    +0.120 C 
BRANCH  31  32
ATOM     32  C   LIG A   1      -6.759  -0.322 130.906  0.00  0.00    +0.008 C 
ATOM     33  C   LIG A   1      -8.139  -0.606 130.445  0.00  0.00    +0.004 C 
ENDBRANCH  31  32
ENDBRANCH  29  31
ENDBRANCH  28  29
ENDBRANCH   9  28
BRANCH  14  34
ATOM     34  C   LIG A   1      -6.759  -0.856 126.524  0.00  0.00    +0.034 C 
BRANCH  34  35
ATOM     35  C   LIG A   1      -7.542  -1.980 127.124  0.00  0.00    -0.023 C 
ATOM     36  C   LIG A   1      -8.188  -3.057 126.660  0.00  0.00    -0.055 C 
ATOM     37  C   LIG A   1      -8.994  -3.946 127.595  0.00  0.00    +0.043 C 
BRANCH  36  38
ATOM     38  C   LIG A   1      -8.144  -3.401 125.272  0.00  0.00    -0.005 C 
ATOM     39  C   LIG A   1      -9.212  -3.273 124.481  0.00  0.00    +0.008 C 
ENDBRANCH  36  38
ENDBRANCH  34  35
ENDBRANCH  14  34
TORSDOF 14
ENDMDL
MODEL 5
REMARK VINA RESULT:      -7.5      3.099      7.075
REMARK  Name = NuBBE_227
REMARK  20 active torsions:
REMARK  status: ('A' for Active; 'I' for Inactive)
REMARK    1  A    between atoms: C_1  and  C_2
REMARK    2  A    between atoms: C_4  and  O_6
REMARK    3  A    between atoms: O_6  and  C_7
REMARK    4  A    between atoms: C_7  and  C_8
REMARK    5  A    between atoms: C_8  and  C_9
REMARK    6  A    between atoms: C_9  and  C_10
REMARK    7  A    between atoms: C_15  and  O_17
REMARK    8  A    between atoms: O_17  and  C_18
REMARK    9  A    between atoms: C_18  and  C_19
REMARK   10  A    between atoms: C_22  and  O_24
REMARK   11  A    between atoms: O_24  and  C_25
REMARK   12  A    between atoms: C_25  and  C_26
REMARK   13  A    between atoms: C_26  and  C_27
REMARK   14  A    between atoms: C_27  and  C_28
REMARK   15  A    between atoms: C_31  and  O_33
REMARK   16  A    between atoms: C_37  and  C_38
REMARK   17  A    between atoms: C_37  and  C_39
REMARK   18  A    between atoms: C_39  and  C_40
REMARK   19  A    between atoms: C_41  and  C_42
REMARK   20  A    between atoms: C_41  and  C_44
REMARK                            x       y       z     vdW  Elec       q    Type
REMARK                         _______ _______ _______ _____ _____    ______ ____
ROOT
ATOM      1  C   LIG A   1      -5.227   1.708 125.994  0.00  0.00    +0.012 C 
ATOM      2  C   LIG A   1      -5.829   1.533 127.393  0.00  0.00    +0.033 C 
ATOM      3  C   LIG A   1      -4.823   2.090 128.444  0.00  0.00    +0.181 C 
ATOM      4  C   LIG A   1      -4.352   1.104 129.514  0.00  0.00    +0.062 C 
ATOM      5  C   LIG A   1      -5.446   0.190 130.203  0.00  0.00    +0.067 C 
ATOM      6  C   LIG A   1      -5.804   0.707 131.618  0.00  0.00    +0.009 C 
ATOM      7  C   LIG A   1      -4.591   0.604 132.485  0.00  0.00    +0.343 C 
ATOM      8  O   LIG A   1      -4.009  -0.632 132.031  0.00  0.00    -0.297 OA
ATOM      9  C   LIG A   1      -4.730  -1.060 130.837  0.00  0.00    +0.325 C 
ATOM     10  C   LIG A   1      -7.052   0.938 132.065  0.00  0.00    +0.010 C 
ATOM     11  C   LIG A   1      -8.310   0.880 131.238  0.00  0.00    +0.138 C 
ATOM     12  C   LIG A   1      -8.125   0.437 129.703  0.00  0.00    +0.040 C 
ATOM     13  C   LIG A   1      -6.693  -0.117 129.197  0.00  0.00    +0.015 C 
ATOM     14  C   LIG A   1      -6.458   0.116 127.643  0.00  0.00    -0.019 C 
ATOM     15  C   LIG A   1      -7.862   0.101 126.911  0.00  0.00    +0.012 C 
ENDROOT
BRANCH  11  16
ATOM     16  O   LIG A   1      -9.360   0.138 131.890  0.00  0.00    -0.388 OA
ATOM     17  H   LIG A   1      -9.301  -0.763 131.531  0.00  0.00    +0.210 HD
ENDBRANCH  11  16
BRANCH   3  18
ATOM     18  O   LIG A   1      -5.274   3.393 128.938  0.00  0.00    -0.461 OA
BRANCH  18  19
ATOM     19  C   LIG A   1      -4.531   4.424 128.406  0.00  0.00    +0.307 C 
ATOM     20  O   LIG A   1      -4.994   5.320 127.874  0.00  0.00    -0.251 OA
BRANCH  19  21
ATOM     21  C   LIG A   1      -3.056   4.325 128.469  0.00  0.00    +0.120 C 
BRANCH  21  22
ATOM     22  C   LIG A   1      -2.449   4.175 127.048  0.00  0.00    +0.008 C 
ATOM     23  C   LIG A   1      -1.615   2.944 126.695  0.00  0.00    +0.004 C 
ENDBRANCH  21  22
ENDBRANCH  19  21
ENDBRANCH  18  19
ENDBRANCH   3  18
BRANCH   7  24
ATOM     24  O   LIG A   1      -4.975   0.556 133.861  0.00  0.00    -0.431 OA
BRANCH  24  25
ATOM     25  C   LIG A   1      -4.188   1.332 134.666  0.00  0.00    +0.306 C 
ATOM     26  C   LIG A   1      -3.384   2.313 133.843  0.00  0.00    +0.136 C 
ATOM     27  O   LIG A   1      -3.999   1.153 135.862  0.00  0.00    -0.251 OA
ENDBRANCH  24  25
ENDBRANCH   7  24
BRANCH   9  28
ATOM     28  O   LIG A   1      -5.497  -2.276 131.019  0.00  0.00    -0.434 OA
BRANCH  28  29
ATOM     29  C   LIG A   1      -5.402  -3.263 130.130  0.00  0.00    +0.309 C 
ATOM     30  O   LIG A   1      -4.436  -3.534 129.459  0.00  0.00    -0.251 OA
BRANCH  29  31
ATOM     31  C   LIG A   1      -6.460  -4.186 129.859  0.00  0.00    +0.120 C 
BRANCH  31  32
ATOM     32  C   LIG A   1      -7.608  -3.268 130.040  0.00  0.00    +0.008 C 
ATOM     33  C   LIG A   1      -8.534  -3.422 128.893  0.00  0.00    +0.004 C 
ENDBRANCH  31  32
ENDBRANCH  29  31
ENDBRANCH  28  29
ENDBRANCH   9  28
BRANCH  14  34
ATOM     34  C   LIG A   1      -5.703  -1.160 127.015  0.00  0.00    +0.034 C 
BRANCH  34  35
ATOM     35  C   LIG A   1      -6.501  -2.147 126.225  0.00  0.00    -0.023 C 
ATOM     36  C   LIG A   1      -6.403  -2.715 125.017  0.00  0.00    -0.055 C 
ATOM     37  C   LIG A   1      -7.505  -3.622 124.489  0.00  0.00    +0.043 C 
BRANCH  36  38
ATOM     38  C   LIG A   1      -5.264  -2.482 124.183  0.00  0.00    -0.005 C 
ATOM     39  C   LIG A   1      -4.638  -3.480 123.554  0.00  0.00    +0.008 C 
ENDBRANCH  36  38
ENDBRANCH  34  35
ENDBRANCH  14  34
TORSDOF 14
ENDMDL
MODEL 6
REMARK VINA RESULT:      -7.3      3.116      7.596
REMARK  Name = NuBBE_227
REMARK  20 active torsions:
REMARK  status: ('A' for Active; 'I' for Inactive)
REMARK    1  A    between atoms: C_1  and  C_2
REMARK    2  A    between atoms: C_4  and  O_6
REMARK    3  A    between atoms: O_6  and  C_7
REMARK    4  A    between atoms: C_7  and  C_8
REMARK    5  A    between atoms: C_8  and  C_9
REMARK    6  A    between atoms: C_9  and  C_10
REMARK    7  A    between atoms: C_15  and  O_17
REMARK    8  A    between atoms: O_17  and  C_18
REMARK    9  A    between atoms: C_18  and  C_19
REMARK   10  A    between atoms: C_22  and  O_24
REMARK   11  A    between atoms: O_24  and  C_25
REMARK   12  A    between atoms: C_25  and  C_26
REMARK   13  A    between atoms: C_26  and  C_27
REMARK   14  A    between atoms: C_27  and  C_28
REMARK   15  A    between atoms: C_31  and  O_33
REMARK   16  A    between atoms: C_37  and  C_38
REMARK   17  A    between atoms: C_37  and  C_39
REMARK   18  A    between atoms: C_39  and  C_40
REMARK   19  A    between atoms: C_41  and  C_42
REMARK   20  A    between atoms: C_41  and  C_44
REMARK                            x       y       z     vdW  Elec       q    Type
REMARK                         _______ _______ _______ _____ _____    ______ ____
ROOT
ATOM      1  C   LIG A   1      -5.350   1.485 127.004  0.00  0.00    +0.012 C 
ATOM      2  C   LIG A   1      -6.497   1.839 127.955  0.00  0.00    +0.033 C 
ATOM      3  C   LIG A   1      -7.376   2.940 127.290  0.00  0.00    +0.181 C 
ATOM      4  C   LIG A   1      -7.530   4.244 128.074  0.00  0.00    +0.062 C 
ATOM      5  C   LIG A   1      -7.829   4.138 129.625  0.00  0.00    +0.067 C 
ATOM      6  C   LIG A   1      -9.321   4.419 129.932  0.00  0.00    +0.009 C 
ATOM      7  C   LIG A   1      -9.627   5.833 129.560  0.00  0.00    +0.343 C 
ATOM      8  O   LIG A   1      -8.420   6.510 129.957  0.00  0.00    -0.297 OA
ATOM      9  C   LIG A   1      -7.430   5.498 130.308  0.00  0.00    +0.325 C 
ATOM     10  C   LIG A   1     -10.124   3.625 130.665  0.00  0.00    +0.010 C 
ATOM     11  C   LIG A   1      -9.769   2.260 131.195  0.00  0.00    +0.138 C 
ATOM     12  C   LIG A   1      -8.269   1.757 130.899  0.00  0.00    +0.040 C 
ATOM     13  C   LIG A   1      -7.191   2.783 130.269  0.00  0.00    +0.015 C 
ATOM     14  C   LIG A   1      -6.049   2.046 129.447  0.00  0.00    -0.019 C 
ATOM     15  C   LIG A   1      -5.830   0.604 130.064  0.00  0.00    +0.012 C 
ENDROOT
BRANCH  11  16
ATOM     16  O   LIG A   1     -10.126   2.101 132.582  0.00  0.00    -0.388 OA
ATOM     17  H   LIG A   1      -9.808   2.905 133.025  0.00  0.00    +0.210 HD
ENDBRANCH  11  16
BRANCH   3  18
ATOM     18  O   LIG A   1      -8.620   2.358 126.779  0.00  0.00    -0.461 OA
BRANCH  18  19
ATOM     19  C   LIG A   1      -8.632   2.312 125.403  0.00  0.00    +0.307 C 
ATOM     20  O   LIG A   1      -8.430   3.220 124.743  0.00  0.00    -0.251 OA
BRANCH  19  21
ATOM     21  C   LIG A   1      -8.992   1.033 124.752  0.00  0.00    +0.120 C 
BRANCH  21  22
ATOM     22  C   LIG A   1      -9.227  -0.080 125.809  0.00  0.00    +0.008 C 
ATOM     23  C   LIG A   1      -8.096  -1.040 126.179  0.00  0.00    +0.004 C 
ENDBRANCH  21  22
ENDBRANCH  19  21
ENDBRANCH  18  19
ENDBRANCH   3  18
BRANCH   7  24
ATOM     24  O   LIG A   1     -10.774   6.292 130.281  0.00  0.00    -0.431 OA
BRANCH  24  25
ATOM     25  C   LIG A   1     -11.809   6.658 129.466  0.00  0.00    +0.306 C 
ATOM     26  C   LIG A   1     -12.933   7.271 130.270  0.00  0.00    +0.136 C 
ATOM     27  O   LIG A   1     -11.918   6.368 128.282  0.00  0.00    -0.251 OA
ENDBRANCH  24  25
ENDBRANCH   7  24
BRANCH   9  28
ATOM     28  O   LIG A   1      -7.077   5.486 131.714  0.00  0.00    -0.434 OA
BRANCH  28  29
ATOM     29  C   LIG A   1      -5.976   6.108 132.131  0.00  0.00    +0.309 C 
ATOM     30  O   LIG A   1      -5.525   6.096 133.251  0.00  0.00    -0.251 OA
BRANCH  29  31
ATOM     31  C   LIG A   1      -5.132   6.879 131.273  0.00  0.00    +0.120 C 
BRANCH  31  32
ATOM     32  C   LIG A   1      -3.900   6.859 132.095  0.00  0.00    +0.008 C 
ATOM     33  C   LIG A   1      -2.733   7.134 131.223  0.00  0.00    +0.004 C 
ENDBRANCH  31  32
ENDBRANCH  29  31
ENDBRANCH  28  29
ENDBRANCH   9  28
BRANCH  14  34
ATOM     34  C   LIG A   1      -4.638   2.776 129.709  0.00  0.00    +0.034 C 
BRANCH  34  35
ATOM     35  C   LIG A   1      -4.370   4.080 129.028  0.00  0.00    -0.023 C 
ATOM     36  C   LIG A   1      -3.424   4.561 128.212  0.00  0.00    -0.055 C 
ATOM     37  C   LIG A   1      -3.423   6.024 127.796  0.00  0.00    +0.043 C 
BRANCH  36  38
ATOM     38  C   LIG A   1      -2.384   3.716 127.709  0.00  0.00    -0.005 C 
ATOM     39  C   LIG A   1      -2.243   3.475 126.403  0.00  0.00    +0.008 C 
ENDBRANCH  36  38
ENDBRANCH  34  35
ENDBRANCH  14  34
TORSDOF 14
ENDMDL
MODEL 7
REMARK VINA RESULT:      -7.3      2.309      3.179
REMARK  Name = NuBBE_227
REMARK  20 active torsions:
REMARK  status: ('A' for Active; 'I' for Inactive)
REMARK    1  A    between atoms: C_1  and  C_2
REMARK    2  A    between atoms: C_4  and  O_6
REMARK    3  A    between atoms: O_6  and  C_7
REMARK    4  A    between atoms: C_7  and  C_8
REMARK    5  A    between atoms: C_8  and  C_9
REMARK    6  A    between atoms: C_9  and  C_10
REMARK    7  A    between atoms: C_15  and  O_17
REMARK    8  A    between atoms: O_17  and  C_18
REMARK    9  A    between atoms: C_18  and  C_19
REMARK   10  A    between atoms: C_22  and  O_24
REMARK   11  A    between atoms: O_24  and  C_25
REMARK   12  A    between atoms: C_25  and  C_26
REMARK   13  A    between atoms: C_26  and  C_27
REMARK   14  A    between atoms: C_27  and  C_28
REMARK   15  A    between atoms: C_31  and  O_33
REMARK   16  A    between atoms: C_37  and  C_38
REMARK   17  A    between atoms: C_37  and  C_39
REMARK   18  A    between atoms: C_39  and  C_40
REMARK   19  A    between atoms: C_41  and  C_42
REMARK   20  A    between atoms: C_41  and  C_44
REMARK                            x       y       z     vdW  Elec       q    Type
REMARK                         _______ _______ _______ _____ _____    ______ ____
ROOT
ATOM      1  C   LIG A   1      -9.552   2.196 132.394  0.00  0.00    +0.012 C 
ATOM      2  C   LIG A   1      -8.455   2.297 131.328  0.00  0.00    +0.033 C 
ATOM      3  C   LIG A   1      -9.040   3.016 130.076  0.00  0.00    +0.181 C 
ATOM      4  C   LIG A   1      -8.981   2.235 128.762  0.00  0.00    +0.062 C 
ATOM      5  C   LIG A   1      -7.629   1.491 128.411  0.00  0.00    +0.067 C 
ATOM      6  C   LIG A   1      -6.816   2.270 127.347  0.00  0.00    +0.009 C 
ATOM      7  C   LIG A   1      -7.599   2.301 126.076  0.00  0.00    +0.343 C 
ATOM      8  O   LIG A   1      -8.191   0.989 126.062  0.00  0.00    -0.297 OA
ATOM      9  C   LIG A   1      -7.935   0.364 127.355  0.00  0.00    +0.325 C 
ATOM     10  C   LIG A   1      -5.518   2.610 127.460  0.00  0.00    +0.010 C 
ATOM     11  C   LIG A   1      -4.663   2.429 128.688  0.00  0.00    +0.138 C 
ATOM     12  C   LIG A   1      -5.369   1.704 129.938  0.00  0.00    +0.040 C 
ATOM     13  C   LIG A   1      -6.828   1.032 129.755  0.00  0.00    +0.015 C 
ATOM     14  C   LIG A   1      -7.649   0.966 131.114  0.00  0.00    -0.019 C 
ATOM     15  C   LIG A   1      -6.628   0.849 132.318  0.00  0.00    +0.012 C 
ENDROOT
BRANCH  11  16
ATOM     16  O   LIG A   1      -3.381   1.846 128.380  0.00  0.00    -0.388 OA
ATOM     17  H   LIG A   1      -3.164   1.282 129.142  0.00  0.00    +0.210 HD
ENDBRANCH  11  16
BRANCH   3  18
ATOM     18  O   LIG A   1      -8.560   4.399 130.013  0.00  0.00    -0.461 OA
BRANCH  18  19
ATOM     19  C   LIG A   1      -9.550   5.262 129.596  0.00  0.00    +0.307 C 
ATOM     20  O   LIG A   1      -9.470   5.897 128.653  0.00  0.00    -0.251 OA
BRANCH  19  21
ATOM     21  C   LIG A   1     -10.743   5.420 130.456  0.00  0.00    +0.120 C 
BRANCH  21  22
ATOM     22  C   LIG A   1     -11.179   6.909 130.532  0.00  0.00    +0.008 C 
ATOM     23  C   LIG A   1     -12.584   7.275 131.008  0.00  0.00    +0.004 C 
ENDBRANCH  21  22
ENDBRANCH  19  21
ENDBRANCH  18  19
ENDBRANCH   3  18
BRANCH   7  24
ATOM     24  O   LIG A   1      -6.724   2.518 124.966  0.00  0.00    -0.431 OA
BRANCH  24  25
ATOM     25  C   LIG A   1      -7.321   3.188 123.934  0.00  0.00    +0.306 C 
ATOM     26  C   LIG A   1      -6.286   3.701 122.959  0.00  0.00    +0.136 C 
ATOM     27  O   LIG A   1      -8.502   3.507 123.883  0.00  0.00    -0.251 OA
ENDBRANCH  24  25
ENDBRANCH   7  24
BRANCH   9  28
ATOM     28  O   LIG A   1      -7.046  -0.779 127.289  0.00  0.00    -0.434 OA
BRANCH  28  29
ATOM     29  C   LIG A   1      -7.402  -1.861 126.598  0.00  0.00    +0.309 C 
ATOM     30  O   LIG A   1      -6.665  -2.595 125.987  0.00  0.00    -0.251 OA
BRANCH  29  31
ATOM     31  C   LIG A   1      -8.748  -2.332 126.508  0.00  0.00    +0.120 C 
BRANCH  31  32
ATOM     32  C   LIG A   1      -8.519  -3.738 126.912  0.00  0.00    +0.008 C 
ATOM     33  C   LIG A   1      -9.362  -4.043 128.093  0.00  0.00    +0.004 C 
ENDBRANCH  31  32
ENDBRANCH  29  31
ENDBRANCH  28  29
ENDBRANCH   9  28
BRANCH  14  34
ATOM     34  C   LIG A   1      -8.463  -0.421 131.185  0.00  0.00    +0.034 C 
BRANCH  34  35
ATOM     35  C   LIG A   1      -7.825  -1.654 130.629  0.00  0.00    -0.023 C 
ATOM     36  C   LIG A   1      -7.106  -2.670 131.122  0.00  0.00    -0.055 C 
ATOM     37  C   LIG A   1      -6.512  -3.725 130.200  0.00  0.00    +0.043 C 
BRANCH  36  38
ATOM     38  C   LIG A   1      -6.871  -2.793 132.527  0.00  0.00    -0.005 C 
ATOM     39  C   LIG A   1      -7.820  -3.219 133.365  0.00  0.00    +0.008 C 
ENDBRANCH  36  38
ENDBRANCH  34  35
ENDBRANCH  14  34
TORSDOF 14
ENDMDL
MODEL 8
REMARK VINA RESULT:      -7.2      2.578      5.072
REMARK  Name = NuBBE_227
REMARK  20 active torsions:
REMARK  status: ('A' for Active; 'I' for Inactive)
REMARK    1  A    between atoms: C_1  and  C_2
REMARK    2  A    between atoms: C_4  and  O_6
REMARK    3  A    between atoms: O_6  and  C_7
REMARK    4  A    between atoms: C_7  and  C_8
REMARK    5  A    between atoms: C_8  and  C_9
REMARK    6  A    between atoms: C_9  and  C_10
REMARK    7  A    between atoms: C_15  and  O_17
REMARK    8  A    between atoms: O_17  and  C_18
REMARK    9  A    between atoms: C_18  and  C_19
REMARK   10  A    between atoms: C_22  and  O_24
REMARK   11  A    between atoms: O_24  and  C_25
REMARK   12  A    between atoms: C_25  and  C_26
REMARK   13  A    between atoms: C_26  and  C_27
REMARK   14  A    between atoms: C_27  and  C_28
REMARK   15  A    between atoms: C_31  and  O_33
REMARK   16  A    between atoms: C_37  and  C_38
REMARK   17  A    between atoms: C_37  and  C_39
REMARK   18  A    between atoms: C_39  and  C_40
REMARK   19  A    between atoms: C_41  and  C_42
REMARK   20  A    between atoms: C_41  and  C_44
REMARK                            x       y       z     vdW  Elec       q    Type
REMARK                         _______ _______ _______ _____ _____    ______ ____
ROOT
ATOM      1  C   LIG A   1      -7.449  -1.407 129.723  0.00  0.00    +0.012 C 
ATOM      2  C   LIG A   1      -7.032   0.035 130.035  0.00  0.00    +0.033 C 
ATOM      3  C   LIG A   1      -8.306   0.859 130.386  0.00  0.00    +0.181 C 
ATOM      4  C   LIG A   1      -8.575   2.087 129.515  0.00  0.00    +0.062 C 
ATOM      5  C   LIG A   1      -7.353   3.039 129.190  0.00  0.00    +0.067 C 
ATOM      6  C   LIG A   1      -7.394   4.324 130.053  0.00  0.00    +0.009 C 
ATOM      7  C   LIG A   1      -8.617   5.103 129.693  0.00  0.00    +0.343 C 
ATOM      8  O   LIG A   1      -8.688   4.898 128.269  0.00  0.00    -0.297 OA
ATOM      9  C   LIG A   1      -7.702   3.885 127.909  0.00  0.00    +0.325 C 
ATOM     10  C   LIG A   1      -6.371   4.797 130.789  0.00  0.00    +0.010 C 
ATOM     11  C   LIG A   1      -5.058   4.096 131.026  0.00  0.00    +0.138 C 
ATOM     12  C   LIG A   1      -4.863   2.690 130.268  0.00  0.00    +0.040 C 
ATOM     13  C   LIG A   1      -5.943   2.220 129.162  0.00  0.00    +0.015 C 
ATOM     14  C   LIG A   1      -6.014   0.641 129.003  0.00  0.00    -0.019 C 
ATOM     15  C   LIG A   1      -4.593   0.033 129.349  0.00  0.00    +0.012 C 
ENDROOT
BRANCH  11  16
ATOM     16  O   LIG A   1      -3.929   4.971 130.837  0.00  0.00    -0.388 OA
ATOM     17  H   LIG A   1      -4.063   5.381 129.966  0.00  0.00    +0.210 HD
ENDBRANCH  11  16
BRANCH   3  18
ATOM     18  O   LIG A   1      -8.386   1.079 131.832  0.00  0.00    -0.461 OA
BRANCH  18  19
ATOM     19  C   LIG A   1      -9.574   1.677 132.191  0.00  0.00    +0.307 C 
ATOM     20  O   LIG A   1     -10.596   1.269 131.892  0.00  0.00    -0.251 OA
BRANCH  19  21
ATOM     21  C   LIG A   1      -9.515   2.950 132.943  0.00  0.00    +0.120 C 
BRANCH  21  22
ATOM     22  C   LIG A   1      -8.132   3.125 133.627  0.00  0.00    +0.008 C 
ATOM     23  C   LIG A   1      -7.871   4.326 134.535  0.00  0.00    +0.004 C 
ENDBRANCH  21  22
ENDBRANCH  19  21
ENDBRANCH  18  19
ENDBRANCH   3  18
BRANCH   7  24
ATOM     24  O   LIG A   1      -8.442   6.480 130.040  0.00  0.00    -0.431 OA
BRANCH  24  25
ATOM     25  C   LIG A   1      -9.624   7.134 130.252  0.00  0.00    +0.306 C 
ATOM     26  C   LIG A   1     -10.366   6.533 131.424  0.00  0.00    +0.136 C 
ATOM     27  O   LIG A   1     -10.122   7.962 129.500  0.00  0.00    -0.251 OA
ENDBRANCH  24  25
ENDBRANCH   7  24
BRANCH   9  28
ATOM     28  O   LIG A   1      -6.612   4.389 127.098  0.00  0.00    -0.434 OA
BRANCH  28  29
ATOM     29  C   LIG A   1      -6.493   4.007 125.828  0.00  0.00    +0.309 C 
ATOM     30  O   LIG A   1      -7.391   3.873 125.033  0.00  0.00    -0.251 OA
BRANCH  29  31
ATOM     31  C   LIG A   1      -5.239   3.718 125.205  0.00  0.00    +0.120 C 
BRANCH  31  32
ATOM     32  C   LIG A   1      -4.346   4.042 126.340  0.00  0.00    +0.008 C 
ATOM     33  C   LIG A   1      -3.418   2.907 126.563  0.00  0.00    +0.004 C 
ENDBRANCH  31  32
ENDBRANCH  29  31
ENDBRANCH  28  29
ENDBRANCH   9  28
BRANCH  14  34
ATOM     34  C   LIG A   1      -6.208   0.263 127.451  0.00  0.00    +0.034 C 
BRANCH  34  35
ATOM     35  C   LIG A   1      -7.507   0.597 126.789  0.00  0.00    -0.023 C 
ATOM     36  C   LIG A   1      -8.522  -0.095 126.260  0.00  0.00    -0.055 C 
ATOM     37  C   LIG A   1      -9.666   0.614 125.551  0.00  0.00    +0.043 C 
BRANCH  36  38
ATOM     38  C   LIG A   1      -8.561  -1.523 126.339  0.00  0.00    -0.005 C 
ATOM     39  C   LIG A   1      -8.103  -2.296 125.351  0.00  0.00    +0.008 C 
ENDBRANCH  36  38
ENDBRANCH  34  35
ENDBRANCH  14  34
TORSDOF 14
ENDMDL
MODEL 9
REMARK VINA RESULT:      -7.2      2.822      7.638
REMARK  Name = NuBBE_227
REMARK  20 active torsions:
REMARK  status: ('A' for Active; 'I' for Inactive)
REMARK    1  A    between atoms: C_1  and  C_2
REMARK    2  A    between atoms: C_4  and  O_6
REMARK    3  A    between atoms: O_6  and  C_7
REMARK    4  A    between atoms: C_7  and  C_8
REMARK    5  A    between atoms: C_8  and  C_9
REMARK    6  A    between atoms: C_9  and  C_10
REMARK    7  A    between atoms: C_15  and  O_17
REMARK    8  A    between atoms: O_17  and  C_18
REMARK    9  A    between atoms: C_18  and  C_19
REMARK   10  A    between atoms: C_22  and  O_24
REMARK   11  A    between atoms: O_24  and  C_25
REMARK   12  A    between atoms: C_25  and  C_26
REMARK   13  A    between atoms: C_26  and  C_27
REMARK   14  A    between atoms: C_27  and  C_28
REMARK   15  A    between atoms: C_31  and  O_33
REMARK   16  A    between atoms: C_37  and  C_38
REMARK   17  A    between atoms: C_37  and  C_39
REMARK   18  A    between atoms: C_39  and  C_40
REMARK   19  A    between atoms: C_41  and  C_42
REMARK   20  A    between atoms: C_41  and  C_44
REMARK                            x       y       z     vdW  Elec       q    Type
REMARK                         _______ _______ _______ _____ _____    ______ ____
ROOT
ATOM      1  C   LIG A   1      -5.213   0.964 126.521  0.00  0.00    +0.012 C 
ATOM      2  C   LIG A   1      -6.263   1.408 127.545  0.00  0.00    +0.033 C 
ATOM      3  C   LIG A   1      -6.861   2.772 127.087  0.00  0.00    +0.181 C 
ATOM      4  C   LIG A   1      -6.726   3.932 128.076  0.00  0.00    +0.062 C 
ATOM      5  C   LIG A   1      -7.061   3.645 129.596  0.00  0.00    +0.067 C 
ATOM      6  C   LIG A   1      -8.455   4.201 129.981  0.00  0.00    +0.009 C 
ATOM      7  C   LIG A   1      -8.428   5.689 129.850  0.00  0.00    +0.343 C 
ATOM      8  O   LIG A   1      -7.104   6.002 130.320  0.00  0.00    -0.297 OA
ATOM      9  C   LIG A   1      -6.373   4.750 130.480  0.00  0.00    +0.325 C 
ATOM     10  C   LIG A   1      -9.425   3.500 130.595  0.00  0.00    +0.010 C 
ATOM     11  C   LIG A   1      -9.396   2.023 130.889  0.00  0.00    +0.138 C 
ATOM     12  C   LIG A   1      -8.046   1.250 130.479  0.00  0.00    +0.040 C 
ATOM     13  C   LIG A   1      -6.755   2.094 129.997  0.00  0.00    +0.015 C 
ATOM     14  C   LIG A   1      -5.799   1.263 129.038  0.00  0.00    -0.019 C 
ATOM     15  C   LIG A   1      -5.920  -0.272 129.409  0.00  0.00    +0.012 C 
ENDROOT
BRANCH  11  16
ATOM     16  O   LIG A   1      -9.798   1.725 132.240  0.00  0.00    -0.388 OA
ATOM     17  H   LIG A   1      -9.680   0.765 132.339  0.00  0.00    +0.210 HD
ENDBRANCH  11  16
BRANCH   3  18
ATOM     18  O   LIG A   1      -8.197   2.577 126.520  0.00  0.00    -0.461 OA
BRANCH  18  19
ATOM     19  C   LIG A   1      -8.309   3.149 125.272  0.00  0.00    +0.307 C 
ATOM     20  O   LIG A   1      -8.924   4.086 125.066  0.00  0.00    -0.251 OA
BRANCH  19  21
ATOM     21  C   LIG A   1      -7.651   2.471 124.134  0.00  0.00    +0.120 C 
BRANCH  21  22
ATOM     22  C   LIG A   1      -6.767   3.464 123.332  0.00  0.00    +0.008 C 
ATOM     23  C   LIG A   1      -5.537   4.096 123.983  0.00  0.00    +0.004 C 
ENDBRANCH  21  22
ENDBRANCH  19  21
ENDBRANCH  18  19
ENDBRANCH   3  18
BRANCH   7  24
ATOM     24  O   LIG A   1      -9.450   6.272 130.663  0.00  0.00    -0.431 OA
BRANCH  24  25
ATOM     25  C   LIG A   1     -10.137   7.269 130.029  0.00  0.00    +0.306 C 
ATOM     26  C   LIG A   1     -11.609   7.202 130.364  0.00  0.00    +0.136 C 
ATOM     27  O   LIG A   1      -9.683   8.005 129.162  0.00  0.00    -0.251 OA
ENDBRANCH  24  25
ENDBRANCH   7  24
BRANCH   9  28
ATOM     28  O   LIG A   1      -6.050   4.430 131.856  0.00  0.00    -0.434 OA
BRANCH  28  29
ATOM     29  C   LIG A   1      -5.832   5.407 132.734  0.00  0.00    +0.309 C 
ATOM     30  O   LIG A   1      -5.199   6.417 132.541  0.00  0.00    -0.251 OA
BRANCH  29  31
ATOM     31  C   LIG A   1      -6.358   5.407 134.063  0.00  0.00    +0.120 C 
BRANCH  31  32
ATOM     32  C   LIG A   1      -7.801   5.438 133.730  0.00  0.00    +0.008 C 
ATOM     33  C   LIG A   1      -8.461   4.257 134.337  0.00  0.00    +0.004 C 
ENDBRANCH  31  32
ENDBRANCH  29  31
ENDBRANCH  28  29
ENDBRANCH   9  28
BRANCH  14  34
ATOM     34  C   LIG A   1      -4.263   1.603 129.381  0.00  0.00    +0.034 C 
BRANCH  34  35
ATOM     35  C   LIG A   1      -3.787   3.011 129.211  0.00  0.00    -0.023 C 
ATOM     36  C   LIG A   1      -3.123   3.693 128.271  0.00  0.00    -0.055 C 
ATOM     37  C   LIG A   1      -2.704   5.138 128.504  0.00  0.00    +0.043 C 
BRANCH  36  38
ATOM     38  C   LIG A   1      -2.781   3.086 127.021  0.00  0.00    -0.005 C 
ATOM     39  C   LIG A   1      -1.516   3.011 126.598  0.00  0.00    +0.008 C 
ENDBRANCH  36  38
ENDBRANCH  34  35
ENDBRANCH  14  34
TORSDOF 14
ENDMDL
