MODEL 1
REMARK VINA RESULT:      -8.3      0.000      0.000
REMARK  Name = NuBBE_1460
REMARK  7 active torsions:
REMARK  status: ('A' for Active; 'I' for Inactive)
REMARK    1  A    between atoms: C_4  and  O_5
REMARK    2  A    between atoms: C_9  and  C_10
REMARK    3  A    between atoms: C_9  and  C_11
REMARK    4  A    between atoms: C_21  and  O_22
REMARK    5  A    between atoms: O_22  and  C_23
REMARK    6  A    between atoms: C_24  and  O_25
REMARK    7  A    between atoms: O_25  and  C_26
REMARK                            x       y       z     vdW  Elec       q    Type
REMARK                         _______ _______ _______ _____ _____    ______ ____
ROOT
ATOM      1  O   LIG A   1      -4.644   1.621 125.949  0.00  0.00    -0.286 OA
ATOM      2  C   LIG A   1      -4.844   1.442 127.149  0.00  0.00    +0.204 A 
ATOM      3  C   LIG A   1      -4.321   2.425 128.112  0.00  0.00    +0.107 A 
ATOM      4  C   LIG A   1      -3.597   3.555 127.699  0.00  0.00    +0.142 A 
ATOM      5  C   LIG A   1      -3.127   4.480 128.648  0.00  0.00    +0.059 A 
ATOM      6  C   LIG A   1      -3.392   4.256 130.004  0.00  0.00    +0.136 A 
ATOM      7  O   LIG A   1      -2.976   5.080 131.010  0.00  0.00    -0.481 OA
ATOM      8  C   LIG A   1      -2.426   6.370 130.667  0.00  0.00    +0.123 C 
ATOM      9  C   LIG A   1      -3.475   7.421 131.053  0.00  0.00    +0.060 C 
ATOM     10  C   LIG A   1      -1.178   6.541 131.543  0.00  0.00    +0.060 C 
ATOM     11  C   LIG A   1      -2.044   6.544 129.217  0.00  0.00    +0.020 C 
ATOM     12  C   LIG A   1      -2.365   5.663 128.267  0.00  0.00    +0.015 C 
ATOM     13  C   LIG A   1      -4.100   3.124 130.411  0.00  0.00    +0.093 A 
ATOM     14  C   LIG A   1      -4.568   2.216 129.464  0.00  0.00    +0.146 A 
ATOM     15  O   LIG A   1      -5.268   1.139 129.937  0.00  0.00    -0.455 OA
ATOM     16  C   LIG A   1      -5.772   0.228 129.028  0.00  0.00    +0.154 A 
ATOM     17  C   LIG A   1      -5.607   0.290 127.695  0.00  0.00    +0.075 A 
ATOM     18  C   LIG A   1      -6.217  -0.790 126.898  0.00  0.00    +0.035 A 
ATOM     19  C   LIG A   1      -5.888  -1.050 125.561  0.00  0.00    +0.061 A 
ATOM     20  C   LIG A   1      -6.544  -2.055 124.835  0.00  0.00    +0.162 A 
ATOM     21  C   LIG A   1      -7.540  -2.830 125.452  0.00  0.00    +0.165 A 
ATOM     22  C   LIG A   1      -7.856  -2.598 126.791  0.00  0.00    +0.095 A 
ATOM     23  C   LIG A   1      -7.189  -1.600 127.503  0.00  0.00    +0.133 A 
ATOM     24  O   LIG A   1      -7.572  -1.442 128.811  0.00  0.00    -0.484 OA
ATOM     25  C   LIG A   1      -6.563  -0.882 129.659  0.00  0.00    +0.303 C 
ENDROOT
BRANCH   4  26
ATOM     26  O   LIG A   1      -3.330   3.795 126.372  0.00  0.00    -0.505 OA
ATOM     27  H   LIG A   1      -3.814   3.130 125.832  0.00  0.00    +0.292 HD
ENDBRANCH   4  26
BRANCH  20  28
ATOM     28  O   LIG A   1      -6.249  -2.360 123.529  0.00  0.00    -0.491 OA
ATOM     29  C   LIG A   1      -5.002  -3.008 123.305  0.00  0.00    +0.277 C 
ENDBRANCH  20  28
BRANCH  21  30
ATOM     30  O   LIG A   1      -8.124  -3.808 124.688  0.00  0.00    -0.491 OA
ATOM     31  C   LIG A   1      -9.357  -3.465 124.066  0.00  0.00    +0.277 C 
ENDBRANCH  21  30
TORSDOF 3
ENDMDL
MODEL 2
REMARK VINA RESULT:      -8.1      4.206      9.058
REMARK  Name = NuBBE_1460
REMARK  7 active torsions:
REMARK  status: ('A' for Active; 'I' for Inactive)
REMARK    1  A    between atoms: C_4  and  O_5
REMARK    2  A    between atoms: C_9  and  C_10
REMARK    3  A    between atoms: C_9  and  C_11
REMARK    4  A    between atoms: C_21  and  O_22
REMARK    5  A    between atoms: O_22  and  C_23
REMARK    6  A    between atoms: C_24  and  O_25
REMARK    7  A    between atoms: O_25  and  C_26
REMARK                            x       y       z     vdW  Elec       q    Type
REMARK                         _______ _______ _______ _____ _____    ______ ____
ROOT
ATOM      1  O   LIG A   1      -8.746   3.344 128.664  0.00  0.00    -0.286 OA
ATOM      2  C   LIG A   1      -8.427   2.244 129.109  0.00  0.00    +0.204 A 
ATOM      3  C   LIG A   1      -8.282   1.113 128.177  0.00  0.00    +0.107 A 
ATOM      4  C   LIG A   1      -8.505   1.257 126.797  0.00  0.00    +0.142 A 
ATOM      5  C   LIG A   1      -8.341   0.157 125.936  0.00  0.00    +0.059 A 
ATOM      6  C   LIG A   1      -7.956  -1.075 126.475  0.00  0.00    +0.136 A 
ATOM      7  O   LIG A   1      -7.778  -2.210 125.735  0.00  0.00    -0.481 OA
ATOM      8  C   LIG A   1      -7.765  -2.104 124.295  0.00  0.00    +0.123 C 
ATOM      9  C   LIG A   1      -6.312  -2.304 123.845  0.00  0.00    +0.060 C 
ATOM     10  C   LIG A   1      -8.629  -3.263 123.781  0.00  0.00    +0.060 C 
ATOM     11  C   LIG A   1      -8.293  -0.804 123.738  0.00  0.00    +0.020 C 
ATOM     12  C   LIG A   1      -8.570   0.257 124.500  0.00  0.00    +0.015 C 
ATOM     13  C   LIG A   1      -7.748  -1.217 127.848  0.00  0.00    +0.093 A 
ATOM     14  C   LIG A   1      -7.906  -0.121 128.693  0.00  0.00    +0.146 A 
ATOM     15  O   LIG A   1      -7.670  -0.332 130.025  0.00  0.00    -0.455 OA
ATOM     16  C   LIG A   1      -7.789   0.736 130.894  0.00  0.00    +0.154 A 
ATOM     17  C   LIG A   1      -8.154   1.983 130.546  0.00  0.00    +0.075 A 
ATOM     18  C   LIG A   1      -8.233   2.979 131.629  0.00  0.00    +0.035 A 
ATOM     19  C   LIG A   1      -8.883   4.215 131.502  0.00  0.00    +0.061 A 
ATOM     20  C   LIG A   1      -8.876   5.149 132.549  0.00  0.00    +0.162 A 
ATOM     21  C   LIG A   1      -8.221   4.846 133.754  0.00  0.00    +0.165 A 
ATOM     22  C   LIG A   1      -7.594   3.609 133.902  0.00  0.00    +0.095 A 
ATOM     23  C   LIG A   1      -7.616   2.686 132.854  0.00  0.00    +0.133 A 
ATOM     24  O   LIG A   1      -6.969   1.500 133.090  0.00  0.00    -0.484 OA
ATOM     25  C   LIG A   1      -7.458   0.396 132.319  0.00  0.00    +0.303 C 
ENDROOT
BRANCH   4  26
ATOM     26  O   LIG A   1      -8.881   2.460 126.249  0.00  0.00    -0.505 OA
ATOM     27  H   LIG A   1      -8.504   3.184 126.799  0.00  0.00    +0.292 HD
ENDBRANCH   4  26
BRANCH  20  28
ATOM     28  O   LIG A   1      -9.509   6.365 132.481  0.00  0.00    -0.491 OA
ATOM     29  C   LIG A   1     -10.890   6.332 132.136  0.00  0.00    +0.277 C 
ENDBRANCH  20  28
BRANCH  21  30
ATOM     30  O   LIG A   1      -8.272   5.798 134.741  0.00  0.00    -0.491 OA
ATOM     31  C   LIG A   1      -7.293   5.690 135.768  0.00  0.00    +0.277 C 
ENDBRANCH  21  30
TORSDOF 3
ENDMDL
MODEL 3
REMARK VINA RESULT:      -8.1      4.434      7.007
REMARK  Name = NuBBE_1460
REMARK  7 active torsions:
REMARK  status: ('A' for Active; 'I' for Inactive)
REMARK    1  A    between atoms: C_4  and  O_5
REMARK    2  A    between atoms: C_9  and  C_10
REMARK    3  A    between atoms: C_9  and  C_11
REMARK    4  A    between atoms: C_21  and  O_22
REMARK    5  A    between atoms: O_22  and  C_23
REMARK    6  A    between atoms: C_24  and  O_25
REMARK    7  A    between atoms: O_25  and  C_26
REMARK                            x       y       z     vdW  Elec       q    Type
REMARK                         _______ _______ _______ _____ _____    ______ ____
ROOT
ATOM      1  O   LIG A   1      -5.619   1.368 126.059  0.00  0.00    -0.286 OA
ATOM      2  C   LIG A   1      -6.468   0.482 125.988  0.00  0.00    +0.204 A 
ATOM      3  C   LIG A   1      -6.480  -0.575 127.014  0.00  0.00    +0.107 A 
ATOM      4  C   LIG A   1      -5.548  -0.600 128.064  0.00  0.00    +0.142 A 
ATOM      5  C   LIG A   1      -5.602  -1.617 129.034  0.00  0.00    +0.059 A 
ATOM      6  C   LIG A   1      -6.595  -2.597 128.935  0.00  0.00    +0.136 A 
ATOM      7  O   LIG A   1      -6.734  -3.635 129.812  0.00  0.00    -0.481 OA
ATOM      8  C   LIG A   1      -5.969  -3.615 131.036  0.00  0.00    +0.123 C 
ATOM      9  C   LIG A   1      -6.952  -3.310 132.174  0.00  0.00    +0.060 C 
ATOM     10  C   LIG A   1      -5.410  -5.033 131.205  0.00  0.00    +0.060 C 
ATOM     11  C   LIG A   1      -4.831  -2.623 131.071  0.00  0.00    +0.020 C 
ATOM     12  C   LIG A   1      -4.650  -1.688 130.136  0.00  0.00    +0.015 C 
ATOM     13  C   LIG A   1      -7.511  -2.576 127.882  0.00  0.00    +0.093 A 
ATOM     14  C   LIG A   1      -7.455  -1.561 126.929  0.00  0.00    +0.146 A 
ATOM     15  O   LIG A   1      -8.397  -1.597 125.936  0.00  0.00    -0.455 OA
ATOM     16  C   LIG A   1      -8.392  -0.593 124.986  0.00  0.00    +0.154 A 
ATOM     17  C   LIG A   1      -7.509   0.419 124.930  0.00  0.00    +0.075 A 
ATOM     18  C   LIG A   1      -7.670   1.383 123.827  0.00  0.00    +0.035 A 
ATOM     19  C   LIG A   1      -6.679   2.296 123.441  0.00  0.00    +0.061 A 
ATOM     20  C   LIG A   1      -6.910   3.230 122.421  0.00  0.00    +0.162 A 
ATOM     21  C   LIG A   1      -8.148   3.251 121.757  0.00  0.00    +0.165 A 
ATOM     22  C   LIG A   1      -9.132   2.329 122.113  0.00  0.00    +0.095 A 
ATOM     23  C   LIG A   1      -8.885   1.400 123.126  0.00  0.00    +0.133 A 
ATOM     24  O   LIG A   1      -9.913   0.538 123.410  0.00  0.00    -0.484 OA
ATOM     25  C   LIG A   1      -9.500  -0.710 123.978  0.00  0.00    +0.303 C 
ENDROOT
BRANCH   4  26
ATOM     26  O   LIG A   1      -4.567   0.357 128.180  0.00  0.00    -0.505 OA
ATOM     27  H   LIG A   1      -4.718   1.043 127.491  0.00  0.00    +0.292 HD
ENDBRANCH   4  26
BRANCH  20  28
ATOM     28  O   LIG A   1      -5.969   4.134 121.996  0.00  0.00    -0.491 OA
ATOM     29  C   LIG A   1      -5.063   3.671 121.000  0.00  0.00    +0.277 C 
ENDBRANCH  20  28
BRANCH  21  30
ATOM     30  O   LIG A   1      -8.297   4.177 120.756  0.00  0.00    -0.491 OA
ATOM     31  C   LIG A   1      -9.319   3.911 119.803  0.00  0.00    +0.277 C 
ENDBRANCH  21  30
TORSDOF 3
ENDMDL
MODEL 4
REMARK VINA RESULT:      -8.0      5.408      8.821
REMARK  Name = NuBBE_1460
REMARK  7 active torsions:
REMARK  status: ('A' for Active; 'I' for Inactive)
REMARK    1  A    between atoms: C_4  and  O_5
REMARK    2  A    between atoms: C_9  and  C_10
REMARK    3  A    between atoms: C_9  and  C_11
REMARK    4  A    between atoms: C_21  and  O_22
REMARK    5  A    between atoms: O_22  and  C_23
REMARK    6  A    between atoms: C_24  and  O_25
REMARK    7  A    between atoms: O_25  and  C_26
REMARK                            x       y       z     vdW  Elec       q    Type
REMARK                         _______ _______ _______ _____ _____    ______ ____
ROOT
ATOM      1  O   LIG A   1      -9.059   2.215 128.965  0.00  0.00    -0.286 OA
ATOM      2  C   LIG A   1      -8.806   1.974 130.144  0.00  0.00    +0.204 A 
ATOM      3  C   LIG A   1      -8.054   0.752 130.475  0.00  0.00    +0.107 A 
ATOM      4  C   LIG A   1      -7.626  -0.146 129.484  0.00  0.00    +0.142 A 
ATOM      5  C   LIG A   1      -6.896  -1.295 129.838  0.00  0.00    +0.059 A 
ATOM      6  C   LIG A   1      -6.607  -1.526 131.187  0.00  0.00    +0.136 A 
ATOM      7  O   LIG A   1      -5.916  -2.612 131.645  0.00  0.00    -0.481 OA
ATOM      8  C   LIG A   1      -5.248  -3.463 130.689  0.00  0.00    +0.123 C 
ATOM      9  C   LIG A   1      -3.744  -3.199 130.829  0.00  0.00    +0.060 C 
ATOM     10  C   LIG A   1      -5.562  -4.902 131.116  0.00  0.00    +0.060 C 
ATOM     11  C   LIG A   1      -5.664  -3.268 129.250  0.00  0.00    +0.020 C 
ATOM     12  C   LIG A   1      -6.438  -2.259 128.844  0.00  0.00    +0.015 C 
ATOM     13  C   LIG A   1      -7.046  -0.638 132.170  0.00  0.00    +0.093 A 
ATOM     14  C   LIG A   1      -7.763   0.502 131.810  0.00  0.00    +0.146 A 
ATOM     15  O   LIG A   1      -8.146   1.334 132.827  0.00  0.00    -0.455 OA
ATOM     16  C   LIG A   1      -8.836   2.489 132.510  0.00  0.00    +0.154 A 
ATOM     17  C   LIG A   1      -9.199   2.861 131.270  0.00  0.00    +0.075 A 
ATOM     18  C   LIG A   1      -9.941   4.128 131.146  0.00  0.00    +0.035 A 
ATOM     19  C   LIG A   1     -10.653   4.502 129.997  0.00  0.00    +0.061 A 
ATOM     20  C   LIG A   1     -11.294   5.747 129.915  0.00  0.00    +0.162 A 
ATOM     21  C   LIG A   1     -11.239   6.637 131.000  0.00  0.00    +0.165 A 
ATOM     22  C   LIG A   1     -10.557   6.264 132.158  0.00  0.00    +0.095 A 
ATOM     23  C   LIG A   1      -9.931   5.018 132.229  0.00  0.00    +0.133 A 
ATOM     24  O   LIG A   1      -9.281   4.742 133.405  0.00  0.00    -0.484 OA
ATOM     25  C   LIG A   1      -9.158   3.347 133.700  0.00  0.00    +0.303 C 
ENDROOT
BRANCH   4  26
ATOM     26  O   LIG A   1      -7.897   0.066 128.152  0.00  0.00    -0.505 OA
ATOM     27  H   LIG A   1      -7.146   0.564 127.757  0.00  0.00    +0.292 HD
ENDBRANCH   4  26
BRANCH  20  28
ATOM     28  O   LIG A   1     -12.016   6.155 128.820  0.00  0.00    -0.491 OA
ATOM     29  C   LIG A   1     -11.326   6.981 127.889  0.00  0.00    +0.277 C 
ENDBRANCH  20  28
BRANCH  21  30
ATOM     30  O   LIG A   1     -11.906   7.828 130.857  0.00  0.00    -0.491 OA
ATOM     31  C   LIG A   1     -13.130   7.951 131.571  0.00  0.00    +0.277 C 
ENDBRANCH  21  30
TORSDOF 3
ENDMDL
MODEL 5
REMARK VINA RESULT:      -7.8      2.424      8.865
REMARK  Name = NuBBE_1460
REMARK  7 active torsions:
REMARK  status: ('A' for Active; 'I' for Inactive)
REMARK    1  A    between atoms: C_4  and  O_5
REMARK    2  A    between atoms: C_9  and  C_10
REMARK    3  A    between atoms: C_9  and  C_11
REMARK    4  A    between atoms: C_21  and  O_22
REMARK    5  A    between atoms: O_22  and  C_23
REMARK    6  A    between atoms: C_24  and  O_25
REMARK    7  A    between atoms: O_25  and  C_26
REMARK                            x       y       z     vdW  Elec       q    Type
REMARK                         _______ _______ _______ _____ _____    ______ ____
ROOT
ATOM      1  O   LIG A   1      -4.521   2.434 127.542  0.00  0.00    -0.286 OA
ATOM      2  C   LIG A   1      -5.743   2.509 127.647  0.00  0.00    +0.204 A 
ATOM      3  C   LIG A   1      -6.581   1.523 126.944  0.00  0.00    +0.107 A 
ATOM      4  C   LIG A   1      -6.022   0.506 126.152  0.00  0.00    +0.142 A 
ATOM      5  C   LIG A   1      -6.853  -0.427 125.508  0.00  0.00    +0.059 A 
ATOM      6  C   LIG A   1      -8.240  -0.325 125.668  0.00  0.00    +0.136 A 
ATOM      7  O   LIG A   1      -9.141  -1.168 125.082  0.00  0.00    -0.481 OA
ATOM      8  C   LIG A   1      -8.653  -2.366 124.441  0.00  0.00    +0.123 C 
ATOM      9  C   LIG A   1      -9.043  -3.545 125.340  0.00  0.00    +0.060 C 
ATOM     10  C   LIG A   1      -9.405  -2.464 123.107  0.00  0.00    +0.060 C 
ATOM     11  C   LIG A   1      -7.167  -2.399 124.178  0.00  0.00    +0.020 C 
ATOM     12  C   LIG A   1      -6.318  -1.493 124.670  0.00  0.00    +0.015 C 
ATOM     13  C   LIG A   1      -8.791   0.695 126.445  0.00  0.00    +0.093 A 
ATOM     14  C   LIG A   1      -7.960   1.612 127.085  0.00  0.00    +0.146 A 
ATOM     15  O   LIG A   1      -8.573   2.574 127.842  0.00  0.00    -0.455 OA
ATOM     16  C   LIG A   1      -7.782   3.486 128.515  0.00  0.00    +0.154 A 
ATOM     17  C   LIG A   1      -6.439   3.534 128.468  0.00  0.00    +0.075 A 
ATOM     18  C   LIG A   1      -5.783   4.595 129.253  0.00  0.00    +0.035 A 
ATOM     19  C   LIG A   1      -4.447   4.979 129.075  0.00  0.00    +0.061 A 
ATOM     20  C   LIG A   1      -3.859   5.957 129.891  0.00  0.00    +0.162 A 
ATOM     21  C   LIG A   1      -4.616   6.578 130.898  0.00  0.00    +0.165 A 
ATOM     22  C   LIG A   1      -5.954   6.223 131.066  0.00  0.00    +0.095 A 
ATOM     23  C   LIG A   1      -6.529   5.254 130.241  0.00  0.00    +0.133 A 
ATOM     24  O   LIG A   1      -7.848   4.968 130.484  0.00  0.00    -0.484 OA
ATOM     25  C   LIG A   1      -8.562   4.460 129.352  0.00  0.00    +0.303 C 
ENDROOT
BRANCH   4  26
ATOM     26  O   LIG A   1      -4.662   0.387 125.985  0.00  0.00    -0.505 OA
ATOM     27  H   LIG A   1      -4.246   1.254 126.196  0.00  0.00    +0.292 HD
ENDBRANCH   4  26
BRANCH  20  28
ATOM     28  O   LIG A   1      -2.560   6.380 129.748  0.00  0.00    -0.491 OA
ATOM     29  C   LIG A   1      -2.137   6.659 128.419  0.00  0.00    +0.277 C 
ENDBRANCH  20  28
BRANCH  21  30
ATOM     30  O   LIG A   1      -3.982   7.539 131.644  0.00  0.00    -0.491 OA
ATOM     31  C   LIG A   1      -3.525   7.135 132.930  0.00  0.00    +0.277 C 
ENDBRANCH  21  30
TORSDOF 3
ENDMDL
MODEL 6
REMARK VINA RESULT:      -7.6      1.320      9.095
REMARK  Name = NuBBE_1460
REMARK  7 active torsions:
REMARK  status: ('A' for Active; 'I' for Inactive)
REMARK    1  A    between atoms: C_4  and  O_5
REMARK    2  A    between atoms: C_9  and  C_10
REMARK    3  A    between atoms: C_9  and  C_11
REMARK    4  A    between atoms: C_21  and  O_22
REMARK    5  A    between atoms: O_22  and  C_23
REMARK    6  A    between atoms: C_24  and  O_25
REMARK    7  A    between atoms: O_25  and  C_26
REMARK                            x       y       z     vdW  Elec       q    Type
REMARK                         _______ _______ _______ _____ _____    ______ ____
ROOT
ATOM      1  O   LIG A   1      -5.801   1.859 130.020  0.00  0.00    -0.286 OA
ATOM      2  C   LIG A   1      -5.254   1.873 128.920  0.00  0.00    +0.204 A 
ATOM      3  C   LIG A   1      -5.690   0.910 127.895  0.00  0.00    +0.107 A 
ATOM      4  C   LIG A   1      -6.708  -0.026 128.143  0.00  0.00    +0.142 A 
ATOM      5  C   LIG A   1      -7.109  -0.919 127.134  0.00  0.00    +0.059 A 
ATOM      6  C   LIG A   1      -6.479  -0.860 125.886  0.00  0.00    +0.136 A 
ATOM      7  O   LIG A   1      -6.779  -1.685 124.839  0.00  0.00    -0.481 OA
ATOM      8  C   LIG A   1      -7.955  -2.518 124.927  0.00  0.00    +0.123 C 
ATOM      9  C   LIG A   1      -9.000  -1.921 123.976  0.00  0.00    +0.060 C 
ATOM     10  C   LIG A   1      -7.528  -3.902 124.422  0.00  0.00    +0.060 C 
ATOM     11  C   LIG A   1      -8.547  -2.654 126.310  0.00  0.00    +0.020 C 
ATOM     12  C   LIG A   1      -8.154  -1.912 127.348  0.00  0.00    +0.015 C 
ATOM     13  C   LIG A   1      -5.459   0.062 125.648  0.00  0.00    +0.093 A 
ATOM     14  C   LIG A   1      -5.072   0.949 126.651  0.00  0.00    +0.146 A 
ATOM     15  O   LIG A   1      -4.077   1.835 126.339  0.00  0.00    -0.455 OA
ATOM     16  C   LIG A   1      -3.683   2.749 127.298  0.00  0.00    +0.154 A 
ATOM     17  C   LIG A   1      -4.178   2.827 128.546  0.00  0.00    +0.075 A 
ATOM     18  C   LIG A   1      -3.612   3.870 129.421  0.00  0.00    +0.035 A 
ATOM     19  C   LIG A   1      -3.782   3.891 130.813  0.00  0.00    +0.061 A 
ATOM     20  C   LIG A   1      -3.269   4.941 131.590  0.00  0.00    +0.162 A 
ATOM     21  C   LIG A   1      -2.561   5.986 130.975  0.00  0.00    +0.165 A 
ATOM     22  C   LIG A   1      -2.363   5.962 129.595  0.00  0.00    +0.095 A 
ATOM     23  C   LIG A   1      -2.872   4.906 128.835  0.00  0.00    +0.133 A 
ATOM     24  O   LIG A   1      -2.632   4.971 127.486  0.00  0.00    -0.484 OA
ATOM     25  C   LIG A   1      -2.621   3.700 126.826  0.00  0.00    +0.303 C 
ENDROOT
BRANCH   4  26
ATOM     26  O   LIG A   1      -7.341  -0.097 129.362  0.00  0.00    -0.505 OA
ATOM     27  H   LIG A   1      -7.457  -1.045 129.598  0.00  0.00    +0.292 HD
ENDBRANCH   4  26
BRANCH  20  28
ATOM     28  O   LIG A   1      -3.394   5.001 132.956  0.00  0.00    -0.491 OA
ATOM     29  C   LIG A   1      -2.985   3.841 133.672  0.00  0.00    +0.277 C 
ENDBRANCH  20  28
BRANCH  21  30
ATOM     30  O   LIG A   1      -2.071   6.968 131.799  0.00  0.00    -0.491 OA
ATOM     31  C   LIG A   1      -0.688   6.883 132.122  0.00  0.00    +0.277 C 
ENDBRANCH  21  30
TORSDOF 3
ENDMDL
MODEL 7
REMARK VINA RESULT:      -7.5      4.471      7.117
REMARK  Name = NuBBE_1460
REMARK  7 active torsions:
REMARK  status: ('A' for Active; 'I' for Inactive)
REMARK    1  A    between atoms: C_4  and  O_5
REMARK    2  A    between atoms: C_9  and  C_10
REMARK    3  A    between atoms: C_9  and  C_11
REMARK    4  A    between atoms: C_21  and  O_22
REMARK    5  A    between atoms: O_22  and  C_23
REMARK    6  A    between atoms: C_24  and  O_25
REMARK    7  A    between atoms: O_25  and  C_26
REMARK                            x       y       z     vdW  Elec       q    Type
REMARK                         _______ _______ _______ _____ _____    ______ ____
ROOT
ATOM      1  O   LIG A   1      -7.555   1.499 128.916  0.00  0.00    -0.286 OA
ATOM      2  C   LIG A   1      -7.700   0.315 128.618  0.00  0.00    +0.204 A 
ATOM      3  C   LIG A   1      -7.527  -0.708 129.662  0.00  0.00    +0.107 A 
ATOM      4  C   LIG A   1      -7.195  -0.370 130.984  0.00  0.00    +0.142 A 
ATOM      5  C   LIG A   1      -7.053  -1.375 131.957  0.00  0.00    +0.059 A 
ATOM      6  C   LIG A   1      -7.248  -2.710 131.588  0.00  0.00    +0.136 A 
ATOM      7  O   LIG A   1      -7.126  -3.766 132.446  0.00  0.00    -0.481 OA
ATOM      8  C   LIG A   1      -7.010  -3.500 133.860  0.00  0.00    +0.123 C 
ATOM      9  C   LIG A   1      -8.343  -3.907 134.502  0.00  0.00    +0.060 C 
ATOM     10  C   LIG A   1      -5.891  -4.417 134.370  0.00  0.00    +0.060 C 
ATOM     11  C   LIG A   1      -6.688  -2.071 134.224  0.00  0.00    +0.020 C 
ATOM     12  C   LIG A   1      -6.702  -1.071 133.339  0.00  0.00    +0.015 C 
ATOM     13  C   LIG A   1      -7.565  -3.043 130.270  0.00  0.00    +0.093 A 
ATOM     14  C   LIG A   1      -7.709  -2.041 129.313  0.00  0.00    +0.146 A 
ATOM     15  O   LIG A   1      -8.037  -2.443 128.046  0.00  0.00    -0.455 OA
ATOM     16  C   LIG A   1      -8.216  -1.477 127.073  0.00  0.00    +0.154 A 
ATOM     17  C   LIG A   1      -8.064  -0.154 127.256  0.00  0.00    +0.075 A 
ATOM     18  C   LIG A   1      -8.291   0.710 126.083  0.00  0.00    +0.035 A 
ATOM     19  C   LIG A   1      -7.882   2.049 126.013  0.00  0.00    +0.061 A 
ATOM     20  C   LIG A   1      -8.177   2.840 124.893  0.00  0.00    +0.162 A 
ATOM     21  C   LIG A   1      -8.882   2.288 123.811  0.00  0.00    +0.165 A 
ATOM     22  C   LIG A   1      -9.271   0.949 123.858  0.00  0.00    +0.095 A 
ATOM     23  C   LIG A   1      -8.963   0.171 124.976  0.00  0.00    +0.133 A 
ATOM     24  O   LIG A   1      -9.390  -1.132 124.933  0.00  0.00    -0.484 OA
ATOM     25  C   LIG A   1      -8.621  -2.033 125.738  0.00  0.00    +0.303 C 
ENDROOT
BRANCH   4  26
ATOM     26  O   LIG A   1      -7.003   0.937 131.368  0.00  0.00    -0.505 OA
ATOM     27  H   LIG A   1      -6.317   0.957 132.073  0.00  0.00    +0.292 HD
ENDBRANCH   4  26
BRANCH  20  28
ATOM     28  O   LIG A   1      -7.787   4.150 124.769  0.00  0.00    -0.491 OA
ATOM     29  C   LIG A   1      -8.120   5.007 125.855  0.00  0.00    +0.277 C 
ENDBRANCH  20  28
BRANCH  21  30
ATOM     30  O   LIG A   1      -9.118   3.114 122.741  0.00  0.00    -0.491 OA
ATOM     31  C   LIG A   1      -8.111   3.140 121.736  0.00  0.00    +0.277 C 
ENDBRANCH  21  30
TORSDOF 3
ENDMDL
MODEL 8
REMARK VINA RESULT:      -7.4      2.571      3.997
REMARK  Name = NuBBE_1460
REMARK  7 active torsions:
REMARK  status: ('A' for Active; 'I' for Inactive)
REMARK    1  A    between atoms: C_4  and  O_5
REMARK    2  A    between atoms: C_9  and  C_10
REMARK    3  A    between atoms: C_9  and  C_11
REMARK    4  A    between atoms: C_21  and  O_22
REMARK    5  A    between atoms: O_22  and  C_23
REMARK    6  A    between atoms: C_24  and  O_25
REMARK    7  A    between atoms: O_25  and  C_26
REMARK                            x       y       z     vdW  Elec       q    Type
REMARK                         _______ _______ _______ _____ _____    ______ ____
ROOT
ATOM      1  O   LIG A   1      -6.312   1.869 128.573  0.00  0.00    -0.286 OA
ATOM      2  C   LIG A   1      -5.954   2.891 127.991  0.00  0.00    +0.204 A 
ATOM      3  C   LIG A   1      -5.156   3.887 128.725  0.00  0.00    +0.107 A 
ATOM      4  C   LIG A   1      -4.798   3.704 130.071  0.00  0.00    +0.142 A 
ATOM      5  C   LIG A   1      -4.021   4.670 130.734  0.00  0.00    +0.059 A 
ATOM      6  C   LIG A   1      -3.612   5.810 130.033  0.00  0.00    +0.136 A 
ATOM      7  O   LIG A   1      -2.866   6.816 130.579  0.00  0.00    -0.481 OA
ATOM      8  C   LIG A   1      -2.268   6.610 131.876  0.00  0.00    +0.123 C 
ATOM      9  C   LIG A   1      -0.762   6.427 131.651  0.00  0.00    +0.060 C 
ATOM     10  C   LIG A   1      -2.519   7.902 132.664  0.00  0.00    +0.060 C 
ATOM     11  C   LIG A   1      -2.809   5.437 132.658  0.00  0.00    +0.020 C 
ATOM     12  C   LIG A   1      -3.633   4.527 132.131  0.00  0.00    +0.015 C 
ATOM     13  C   LIG A   1      -3.981   5.994 128.699  0.00  0.00    +0.093 A 
ATOM     14  C   LIG A   1      -4.746   5.029 128.048  0.00  0.00    +0.146 A 
ATOM     15  O   LIG A   1      -5.055   5.271 126.736  0.00  0.00    -0.455 OA
ATOM     16  C   LIG A   1      -5.790   4.325 126.047  0.00  0.00    +0.154 A 
ATOM     17  C   LIG A   1      -6.264   3.180 126.567  0.00  0.00    +0.075 A 
ATOM     18  C   LIG A   1      -7.037   2.309 125.663  0.00  0.00    +0.035 A 
ATOM     19  C   LIG A   1      -7.851   1.257 126.106  0.00  0.00    +0.061 A 
ATOM     20  C   LIG A   1      -8.518   0.423 125.195  0.00  0.00    +0.162 A 
ATOM     21  C   LIG A   1      -8.386   0.646 123.815  0.00  0.00    +0.165 A 
ATOM     22  C   LIG A   1      -7.601   1.706 123.363  0.00  0.00    +0.095 A 
ATOM     23  C   LIG A   1      -6.949   2.532 124.281  0.00  0.00    +0.133 A 
ATOM     24  O   LIG A   1      -6.196   3.545 123.743  0.00  0.00    -0.484 OA
ATOM     25  C   LIG A   1      -6.024   4.676 124.605  0.00  0.00    +0.303 C 
ENDROOT
BRANCH   4  26
ATOM     26  O   LIG A   1      -5.186   2.588 130.775  0.00  0.00    -0.505 OA
ATOM     27  H   LIG A   1      -6.044   2.782 131.216  0.00  0.00    +0.292 HD
ENDBRANCH   4  26
BRANCH  20  28
ATOM     28  O   LIG A   1      -9.338  -0.609 125.577  0.00  0.00    -0.491 OA
ATOM     29  C   LIG A   1      -8.693  -1.739 126.154  0.00  0.00    +0.277 C 
ENDBRANCH  20  28
BRANCH  21  30
ATOM     30  O   LIG A   1      -9.083  -0.196 122.985  0.00  0.00    -0.491 OA
ATOM     31  C   LIG A   1     -10.244   0.351 122.369  0.00  0.00    +0.277 C 
ENDBRANCH  21  30
TORSDOF 3
ENDMDL
MODEL 9
REMARK VINA RESULT:      -7.4      3.339      6.948
REMARK  Name = NuBBE_1460
REMARK  7 active torsions:
REMARK  status: ('A' for Active; 'I' for Inactive)
REMARK    1  A    between atoms: C_4  and  O_5
REMARK    2  A    between atoms: C_9  and  C_10
REMARK    3  A    between atoms: C_9  and  C_11
REMARK    4  A    between atoms: C_21  and  O_22
REMARK    5  A    between atoms: O_22  and  C_23
REMARK    6  A    between atoms: C_24  and  O_25
REMARK    7  A    between atoms: O_25  and  C_26
REMARK                            x       y       z     vdW  Elec       q    Type
REMARK                         _______ _______ _______ _____ _____    ______ ____
ROOT
ATOM      1  O   LIG A   1      -6.625  -0.676 126.224  0.00  0.00    -0.286 OA
ATOM      2  C   LIG A   1      -6.048  -0.043 127.106  0.00  0.00    +0.204 A 
ATOM      3  C   LIG A   1      -5.783  -0.702 128.396  0.00  0.00    +0.107 A 
ATOM      4  C   LIG A   1      -6.176  -2.027 128.647  0.00  0.00    +0.142 A 
ATOM      5  C   LIG A   1      -5.891  -2.626 129.886  0.00  0.00    +0.059 A 
ATOM      6  C   LIG A   1      -5.213  -1.884 130.860  0.00  0.00    +0.136 A 
ATOM      7  O   LIG A   1      -4.894  -2.361 132.100  0.00  0.00    -0.481 OA
ATOM      8  C   LIG A   1      -5.057  -3.771 132.363  0.00  0.00    +0.123 C 
ATOM      9  C   LIG A   1      -3.650  -4.380 132.427  0.00  0.00    +0.060 C 
ATOM     10  C   LIG A   1      -5.723  -3.867 133.741  0.00  0.00    +0.060 C 
ATOM     11  C   LIG A   1      -5.889  -4.525 131.354  0.00  0.00    +0.020 C 
ATOM     12  C   LIG A   1      -6.287  -3.995 130.194  0.00  0.00    +0.015 C 
ATOM     13  C   LIG A   1      -4.836  -0.564 130.611  0.00  0.00    +0.093 A 
ATOM     14  C   LIG A   1      -5.116   0.021 129.378  0.00  0.00    +0.146 A 
ATOM     15  O   LIG A   1      -4.701   1.314 129.201  0.00  0.00    -0.455 OA
ATOM     16  C   LIG A   1      -4.937   1.921 127.982  0.00  0.00    +0.154 A 
ATOM     17  C   LIG A   1      -5.577   1.356 126.944  0.00  0.00    +0.075 A 
ATOM     18  C   LIG A   1      -5.734   2.180 125.732  0.00  0.00    +0.035 A 
ATOM     19  C   LIG A   1      -6.627   1.873 124.695  0.00  0.00    +0.061 A 
ATOM     20  C   LIG A   1      -6.693   2.663 123.537  0.00  0.00    +0.162 A 
ATOM     21  C   LIG A   1      -5.866   3.791 123.411  0.00  0.00    +0.165 A 
ATOM     22  C   LIG A   1      -4.994   4.122 124.448  0.00  0.00    +0.095 A 
ATOM     23  C   LIG A   1      -4.945   3.331 125.597  0.00  0.00    +0.133 A 
ATOM     24  O   LIG A   1      -4.054   3.731 126.561  0.00  0.00    -0.484 OA
ATOM     25  C   LIG A   1      -4.394   3.319 127.889  0.00  0.00    +0.303 C 
ENDROOT
BRANCH   4  26
ATOM     26  O   LIG A   1      -6.840  -2.773 127.702  0.00  0.00    -0.505 OA
ATOM     27  H   LIG A   1      -7.146  -2.170 126.987  0.00  0.00    +0.292 HD
ENDBRANCH   4  26
BRANCH  20  28
ATOM     28  O   LIG A   1      -7.558   2.415 122.501  0.00  0.00    -0.491 OA
ATOM     29  C   LIG A   1      -8.941   2.380 122.837  0.00  0.00    +0.277 C 
ENDBRANCH  20  28
BRANCH  21  30
ATOM     30  O   LIG A   1      -5.999   4.529 122.261  0.00  0.00    -0.491 OA
ATOM     31  C   LIG A   1      -4.892   4.501 121.367  0.00  0.00    +0.277 C 
ENDBRANCH  21  30
TORSDOF 3
ENDMDL
