MODEL 1
REMARK VINA RESULT:      -7.9      0.000      0.000
REMARK  Name = NuBBE_419
REMARK  16 active torsions:
REMARK  status: ('A' for Active; 'I' for Inactive)
REMARK    1  A    between atoms: C_4  and  O_12
REMARK    2  A    between atoms: C_8  and  C_9
REMARK    3  A    between atoms: C_9  and  O_10
REMARK    4  A    between atoms: O_12  and  C_13
REMARK    5  A    between atoms: C_16  and  C_24
REMARK    6  A    between atoms: C_18  and  O_23
REMARK    7  A    between atoms: C_20  and  O_22
REMARK    8  A    between atoms: C_24  and  O_25
REMARK    9  A    between atoms: C_26  and  O_28
REMARK   10  A    between atoms: O_28  and  C_29
REMARK   11  A    between atoms: C_29  and  C_30
REMARK   12  A    between atoms: C_31  and  C_32
REMARK   13  A    between atoms: C_35  and  O_38
REMARK   14  A    between atoms: O_38  and  C_39
REMARK   15  A    between atoms: C_43  and  O_48
REMARK   16  A    between atoms: C_45  and  C_47
REMARK                            x       y       z     vdW  Elec       q    Type
REMARK                         _______ _______ _______ _____ _____    ______ ____
ROOT
ATOM      1  C   LIG A   1      -8.081   4.670 128.880  0.00  0.00    +0.298 C 
ATOM      2  O   LIG A   1      -9.290   5.438 128.808  0.00  0.00    -0.339 OA
ATOM      3  C   LIG A   1      -9.985   5.672 130.043  0.00  0.00    +0.178 C 
ATOM      4  C   LIG A   1     -10.313   4.346 130.745  0.00  0.00    +0.178 C 
ATOM      5  C   LIG A   1      -9.048   3.499 130.946  0.00  0.00    +0.191 C 
ATOM      6  C   LIG A   1      -8.273   3.327 129.630  0.00  0.00    +0.263 C 
ENDROOT
BRANCH   5   7
ATOM      7  O   LIG A   1      -8.244   4.082 131.975  0.00  0.00    -0.385 OA
ATOM      8  H   LIG A   1      -7.986   3.371 132.589  0.00  0.00    +0.210 HD
ENDBRANCH   5   7
BRANCH   4   9
ATOM      9  O   LIG A   1     -11.275   3.620 129.961  0.00  0.00    -0.386 OA
ATOM     10  H   LIG A   1     -10.842   3.377 129.121  0.00  0.00    +0.210 HD
ENDBRANCH   4   9
BRANCH   1  11
ATOM     11  O   LIG A   1      -6.976   5.423 129.385  0.00  0.00    -0.308 OA
BRANCH  11  14
ATOM     12  C   LIG A   1      -4.115   6.255 128.941  0.00  0.00    +0.041 C 
ATOM     13  C   LIG A   1      -4.711   4.853 128.700  0.00  0.00    +0.071 C 
ATOM     14  C   LIG A   1      -5.857   4.561 129.673  0.00  0.00    +0.313 C 
ATOM     15  O   LIG A   1      -5.416   4.670 131.041  0.00  0.00    -0.470 OA
ATOM     16  C   LIG A   1      -4.660   5.778 131.326  0.00  0.00    +0.201 C 
ATOM     17  C   LIG A   1      -4.065   6.567 130.418  0.00  0.00    +0.074 C 
ATOM     18  C   LIG A   1      -2.736   6.165 128.254  0.00  0.00    +0.040 C 
ATOM     19  C   LIG A   1      -2.369   4.677 128.165  0.00  0.00    +0.118 C 
ATOM     20  C   LIG A   1      -3.489   3.928 128.890  0.00  0.00    +0.024 C 
ATOM     21  C   LIG A   1      -3.716   2.496 128.426  0.00  0.00    +0.010 C 
BRANCH  17  22
ATOM     22  C   LIG A   1      -3.373   7.768 130.937  0.00  0.00    +0.336 C 
ATOM     23  O   LIG A   1      -2.595   7.812 131.871  0.00  0.00    -0.245 OA
BRANCH  22  24
ATOM     24  O   LIG A   1      -3.751   8.870 130.277  0.00  0.00    -0.477 OA
ATOM     25  H   LIG A   1      -4.137   9.431 130.981  0.00  0.00    +0.295 HD
ENDBRANCH  22  24
ENDBRANCH  17  22
BRANCH  19  26
ATOM     26  O   LIG A   1      -2.301   4.288 126.799  0.00  0.00    -0.392 OA
ATOM     27  H   LIG A   1      -1.366   4.324 126.533  0.00  0.00    +0.210 HD
ENDBRANCH  19  26
ENDBRANCH  11  14
ENDBRANCH   1  11
BRANCH   3  28
ATOM     28  C   LIG A   1      -9.306   6.724 130.938  0.00  0.00    +0.190 C 
BRANCH  28  29
ATOM     29  O   LIG A   1      -9.690   6.587 132.302  0.00  0.00    -0.392 OA
ATOM     30  H   LIG A   1      -8.893   6.314 132.794  0.00  0.00    +0.209 HD
ENDBRANCH  28  29
ENDBRANCH   3  28
BRANCH   6  31
ATOM     31  O   LIG A   1      -9.063   2.444 128.790  0.00  0.00    -0.450 OA
BRANCH  31  32
ATOM     32  C   LIG A   1      -8.413   1.434 128.184  0.00  0.00    +0.332 C 
ATOM     33  O   LIG A   1      -8.060   0.377 128.685  0.00  0.00    -0.246 OA
BRANCH  32  34
ATOM     34  C   LIG A   1      -8.146   1.843 126.795  0.00  0.00    +0.092 C 
ATOM     35  C   LIG A   1      -6.869   2.037 126.418  0.00  0.00    +0.015 C 
BRANCH  35  36
ATOM     36  C   LIG A   1      -6.434   2.602 125.137  0.00  0.00    -0.025 A 
ATOM     37  C   LIG A   1      -5.613   3.736 125.146  0.00  0.00    +0.011 A 
ATOM     38  C   LIG A   1      -5.296   4.392 123.953  0.00  0.00    +0.046 A 
ATOM     39  C   LIG A   1      -5.813   3.942 122.739  0.00  0.00    +0.120 A 
ATOM     40  C   LIG A   1      -6.614   2.801 122.719  0.00  0.00    +0.046 A 
ATOM     41  C   LIG A   1      -6.926   2.139 123.911  0.00  0.00    +0.011 A 
BRANCH  39  42
ATOM     42  O   LIG A   1      -5.454   4.674 121.642  0.00  0.00    -0.495 OA
ATOM     43  C   LIG A   1      -5.988   4.223 120.402  0.00  0.00    +0.277 C 
ENDBRANCH  39  42
ENDBRANCH  35  36
ENDBRANCH  32  34
ENDBRANCH  31  32
ENDBRANCH   6  31
TORSDOF 14
ENDMDL
MODEL 2
REMARK VINA RESULT:      -7.6      3.197      7.604
REMARK  Name = NuBBE_419
REMARK  16 active torsions:
REMARK  status: ('A' for Active; 'I' for Inactive)
REMARK    1  A    between atoms: C_4  and  O_12
REMARK    2  A    between atoms: C_8  and  C_9
REMARK    3  A    between atoms: C_9  and  O_10
REMARK    4  A    between atoms: O_12  and  C_13
REMARK    5  A    between atoms: C_16  and  C_24
REMARK    6  A    between atoms: C_18  and  O_23
REMARK    7  A    between atoms: C_20  and  O_22
REMARK    8  A    between atoms: C_24  and  O_25
REMARK    9  A    between atoms: C_26  and  O_28
REMARK   10  A    between atoms: O_28  and  C_29
REMARK   11  A    between atoms: C_29  and  C_30
REMARK   12  A    between atoms: C_31  and  C_32
REMARK   13  A    between atoms: C_35  and  O_38
REMARK   14  A    between atoms: O_38  and  C_39
REMARK   15  A    between atoms: C_43  and  O_48
REMARK   16  A    between atoms: C_45  and  C_47
REMARK                            x       y       z     vdW  Elec       q    Type
REMARK                         _______ _______ _______ _____ _____    ______ ____
ROOT
ATOM      1  C   LIG A   1      -5.927   4.383 129.026  0.00  0.00    +0.298 C 
ATOM      2  O   LIG A   1      -5.645   4.948 127.738  0.00  0.00    -0.339 OA
ATOM      3  C   LIG A   1      -4.265   5.197 127.427  0.00  0.00    +0.178 C 
ATOM      4  C   LIG A   1      -3.621   6.104 128.487  0.00  0.00    +0.178 C 
ATOM      5  C   LIG A   1      -3.799   5.520 129.896  0.00  0.00    +0.191 C 
ATOM      6  C   LIG A   1      -5.272   5.183 130.181  0.00  0.00    +0.263 C 
ENDROOT
BRANCH   5   7
ATOM      7  O   LIG A   1      -2.945   4.384 130.051  0.00  0.00    -0.385 OA
ATOM      8  H   LIG A   1      -3.052   3.821 129.263  0.00  0.00    +0.210 HD
ENDBRANCH   5   7
BRANCH   4   9
ATOM      9  O   LIG A   1      -4.215   7.411 128.415  0.00  0.00    -0.386 OA
ATOM     10  H   LIG A   1      -4.600   7.508 127.523  0.00  0.00    +0.210 HD
ENDBRANCH   4   9
BRANCH   1  11
ATOM     11  O   LIG A   1      -5.636   2.986 129.094  0.00  0.00    -0.308 OA
BRANCH  11  14
ATOM     12  C   LIG A   1      -6.687   0.243 129.758  0.00  0.00    +0.041 C 
ATOM     13  C   LIG A   1      -6.950   1.541 130.547  0.00  0.00    +0.071 C 
ATOM     14  C   LIG A   1      -5.762   2.502 130.446  0.00  0.00    +0.313 C 
ATOM     15  O   LIG A   1      -4.551   1.883 130.923  0.00  0.00    -0.470 OA
ATOM     16  C   LIG A   1      -4.327   0.609 130.469  0.00  0.00    +0.201 C 
ATOM     17  C   LIG A   1      -5.246  -0.185 129.896  0.00  0.00    +0.074 C 
ATOM     18  C   LIG A   1      -7.712  -0.741 130.364  0.00  0.00    +0.040 C 
ATOM     19  C   LIG A   1      -8.087  -0.206 131.753  0.00  0.00    +0.118 C 
ATOM     20  C   LIG A   1      -7.204   1.022 131.980  0.00  0.00    +0.024 C 
ATOM     21  C   LIG A   1      -7.777   2.066 132.927  0.00  0.00    +0.010 C 
BRANCH  17  22
ATOM     22  C   LIG A   1      -4.769  -1.492 129.390  0.00  0.00    +0.336 C 
ATOM     23  O   LIG A   1      -4.316  -2.407 130.052  0.00  0.00    -0.245 OA
BRANCH  22  24
ATOM     24  O   LIG A   1      -4.836  -1.549 128.054  0.00  0.00    -0.477 OA
ATOM     25  H   LIG A   1      -5.205  -2.441 127.887  0.00  0.00    +0.295 HD
ENDBRANCH  22  24
ENDBRANCH  17  22
BRANCH  19  26
ATOM     26  O   LIG A   1      -9.463   0.150 131.766  0.00  0.00    -0.392 OA
ATOM     27  H   LIG A   1      -9.741   0.270 130.841  0.00  0.00    +0.210 HD
ENDBRANCH  19  26
ENDBRANCH  11  14
ENDBRANCH   1  11
BRANCH   3  28
ATOM     28  C   LIG A   1      -3.470   3.920 127.103  0.00  0.00    +0.190 C 
BRANCH  28  29
ATOM     29  O   LIG A   1      -2.064   4.144 127.154  0.00  0.00    -0.392 OA
ATOM     30  H   LIG A   1      -1.641   3.268 127.232  0.00  0.00    +0.209 HD
ENDBRANCH  28  29
ENDBRANCH   3  28
BRANCH   6  31
ATOM     31  O   LIG A   1      -5.973   6.447 130.319  0.00  0.00    -0.450 OA
BRANCH  31  32
ATOM     32  C   LIG A   1      -6.852   6.550 131.331  0.00  0.00    +0.332 C 
ATOM     33  O   LIG A   1      -6.742   6.084 132.455  0.00  0.00    -0.246 OA
BRANCH  32  34
ATOM     34  C   LIG A   1      -8.022   7.295 130.835  0.00  0.00    +0.092 C 
ATOM     35  C   LIG A   1      -9.185   6.636 130.684  0.00  0.00    +0.015 C 
BRANCH  35  36
ATOM     36  C   LIG A   1     -10.393   7.172 130.050  0.00  0.00    -0.025 A 
ATOM     37  C   LIG A   1     -10.258   7.943 128.889  0.00  0.00    +0.011 A 
ATOM     38  C   LIG A   1     -11.365   8.593 128.336  0.00  0.00    +0.046 A 
ATOM     39  C   LIG A   1     -12.615   8.505 128.948  0.00  0.00    +0.120 A 
ATOM     40  C   LIG A   1     -12.762   7.723 130.092  0.00  0.00    +0.046 A 
ATOM     41  C   LIG A   1     -11.657   7.064 130.641  0.00  0.00    +0.011 A 
BRANCH  39  42
ATOM     42  O   LIG A   1     -13.619   9.200 128.332  0.00  0.00    -0.495 OA
ATOM     43  C   LIG A   1     -13.846  10.515 128.826  0.00  0.00    +0.277 C 
ENDBRANCH  39  42
ENDBRANCH  35  36
ENDBRANCH  32  34
ENDBRANCH  31  32
ENDBRANCH   6  31
TORSDOF 14
ENDMDL
MODEL 3
REMARK VINA RESULT:      -7.5      3.679      8.620
REMARK  Name = NuBBE_419
REMARK  16 active torsions:
REMARK  status: ('A' for Active; 'I' for Inactive)
REMARK    1  A    between atoms: C_4  and  O_12
REMARK    2  A    between atoms: C_8  and  C_9
REMARK    3  A    between atoms: C_9  and  O_10
REMARK    4  A    between atoms: O_12  and  C_13
REMARK    5  A    between atoms: C_16  and  C_24
REMARK    6  A    between atoms: C_18  and  O_23
REMARK    7  A    between atoms: C_20  and  O_22
REMARK    8  A    between atoms: C_24  and  O_25
REMARK    9  A    between atoms: C_26  and  O_28
REMARK   10  A    between atoms: O_28  and  C_29
REMARK   11  A    between atoms: C_29  and  C_30
REMARK   12  A    between atoms: C_31  and  C_32
REMARK   13  A    between atoms: C_35  and  O_38
REMARK   14  A    between atoms: O_38  and  C_39
REMARK   15  A    between atoms: C_43  and  O_48
REMARK   16  A    between atoms: C_45  and  C_47
REMARK                            x       y       z     vdW  Elec       q    Type
REMARK                         _______ _______ _______ _____ _____    ______ ____
ROOT
ATOM      1  C   LIG A   1      -8.137   1.797 126.314  0.00  0.00    +0.298 C 
ATOM      2  O   LIG A   1      -8.967   2.381 125.300  0.00  0.00    -0.339 OA
ATOM      3  C   LIG A   1      -8.403   3.466 124.546  0.00  0.00    +0.178 C 
ATOM      4  C   LIG A   1      -7.937   4.595 125.477  0.00  0.00    +0.178 C 
ATOM      5  C   LIG A   1      -6.965   4.066 126.543  0.00  0.00    +0.191 C 
ATOM      6  C   LIG A   1      -7.552   2.855 127.285  0.00  0.00    +0.263 C 
ENDROOT
BRANCH   5   7
ATOM      7  O   LIG A   1      -5.706   3.770 125.934  0.00  0.00    -0.385 OA
ATOM      8  H   LIG A   1      -5.303   4.614 125.659  0.00  0.00    +0.210 HD
ENDBRANCH   5   7
BRANCH   4   9
ATOM      9  O   LIG A   1      -9.083   5.194 126.106  0.00  0.00    -0.386 OA
ATOM     10  H   LIG A   1      -8.788   6.032 126.510  0.00  0.00    +0.210 HD
ENDBRANCH   4   9
BRANCH   1  11
ATOM     11  O   LIG A   1      -7.134   0.933 125.778  0.00  0.00    -0.308 OA
BRANCH  11  14
ATOM     12  C   LIG A   1      -7.577  -1.966 125.090  0.00  0.00    +0.041 C 
ATOM     13  C   LIG A   1      -7.815  -1.302 126.461  0.00  0.00    +0.071 C 
ATOM     14  C   LIG A   1      -6.842  -0.143 126.693  0.00  0.00    +0.313 C 
ATOM     15  O   LIG A   1      -5.474  -0.586 126.602  0.00  0.00    -0.470 OA
ATOM     16  C   LIG A   1      -5.191  -1.396 125.532  0.00  0.00    +0.201 C 
ATOM     17  C   LIG A   1      -6.101  -2.030 124.775  0.00  0.00    +0.074 C 
ATOM     18  C   LIG A   1      -8.262  -3.340 125.250  0.00  0.00    +0.040 C 
ATOM     19  C   LIG A   1      -8.347  -3.634 126.754  0.00  0.00    +0.118 C 
ATOM     20  C   LIG A   1      -7.621  -2.477 127.445  0.00  0.00    +0.024 C 
ATOM     21  C   LIG A   1      -8.080  -2.181 128.865  0.00  0.00    +0.010 C 
BRANCH  17  22
ATOM     22  C   LIG A   1      -5.585  -2.780 123.608  0.00  0.00    +0.336 C 
ATOM     23  O   LIG A   1      -5.638  -2.439 122.442  0.00  0.00    -0.245 OA
BRANCH  22  24
ATOM     24  O   LIG A   1      -5.075  -3.963 123.978  0.00  0.00    -0.477 OA
ATOM     25  H   LIG A   1      -5.765  -4.600 123.700  0.00  0.00    +0.295 HD
ENDBRANCH  22  24
ENDBRANCH  17  22
BRANCH  19  26
ATOM     26  O   LIG A   1      -9.711  -3.683 127.150  0.00  0.00    -0.392 OA
ATOM     27  H   LIG A   1     -10.074  -2.785 127.057  0.00  0.00    +0.210 HD
ENDBRANCH  19  26
ENDBRANCH  11  14
ENDBRANCH   1  11
BRANCH   3  28
ATOM     28  C   LIG A   1      -7.359   3.014 123.509  0.00  0.00    +0.190 C 
BRANCH  28  29
ATOM     29  O   LIG A   1      -6.572   4.104 123.039  0.00  0.00    -0.392 OA
ATOM     30  H   LIG A   1      -7.115   4.908 123.142  0.00  0.00    +0.209 HD
ENDBRANCH  28  29
ENDBRANCH   3  28
BRANCH   6  31
ATOM     31  O   LIG A   1      -8.629   3.355 128.121  0.00  0.00    -0.450 OA
BRANCH  31  32
ATOM     32  C   LIG A   1      -8.279   4.043 129.221  0.00  0.00    +0.332 C 
ATOM     33  O   LIG A   1      -7.555   3.665 130.131  0.00  0.00    -0.246 OA
BRANCH  32  34
ATOM     34  C   LIG A   1      -8.965   5.345 129.173  0.00  0.00    +0.092 C 
ATOM     35  C   LIG A   1     -10.192   5.443 129.717  0.00  0.00    +0.015 C 
BRANCH  35  36
ATOM     36  C   LIG A   1     -11.082   6.604 129.612  0.00  0.00    -0.025 A 
ATOM     37  C   LIG A   1     -10.907   7.490 128.542  0.00  0.00    +0.011 A 
ATOM     38  C   LIG A   1     -11.633   8.683 128.484  0.00  0.00    +0.046 A 
ATOM     39  C   LIG A   1     -12.522   9.021 129.503  0.00  0.00    +0.120 A 
ATOM     40  C   LIG A   1     -12.717   8.134 130.561  0.00  0.00    +0.046 A 
ATOM     41  C   LIG A   1     -11.998   6.936 130.617  0.00  0.00    +0.011 A 
BRANCH  39  42
ATOM     42  O   LIG A   1     -13.159  10.221 129.352  0.00  0.00    -0.495 OA
ATOM     43  C   LIG A   1     -13.450  10.917 130.559  0.00  0.00    +0.277 C 
ENDBRANCH  39  42
ENDBRANCH  35  36
ENDBRANCH  32  34
ENDBRANCH  31  32
ENDBRANCH   6  31
TORSDOF 14
ENDMDL
MODEL 4
REMARK VINA RESULT:      -7.5      2.641      4.669
REMARK  Name = NuBBE_419
REMARK  16 active torsions:
REMARK  status: ('A' for Active; 'I' for Inactive)
REMARK    1  A    between atoms: C_4  and  O_12
REMARK    2  A    between atoms: C_8  and  C_9
REMARK    3  A    between atoms: C_9  and  O_10
REMARK    4  A    between atoms: O_12  and  C_13
REMARK    5  A    between atoms: C_16  and  C_24
REMARK    6  A    between atoms: C_18  and  O_23
REMARK    7  A    between atoms: C_20  and  O_22
REMARK    8  A    between atoms: C_24  and  O_25
REMARK    9  A    between atoms: C_26  and  O_28
REMARK   10  A    between atoms: O_28  and  C_29
REMARK   11  A    between atoms: C_29  and  C_30
REMARK   12  A    between atoms: C_31  and  C_32
REMARK   13  A    between atoms: C_35  and  O_38
REMARK   14  A    between atoms: O_38  and  C_39
REMARK   15  A    between atoms: C_43  and  O_48
REMARK   16  A    between atoms: C_45  and  C_47
REMARK                            x       y       z     vdW  Elec       q    Type
REMARK                         _______ _______ _______ _____ _____    ______ ____
ROOT
ATOM      1  C   LIG A   1      -8.111   4.588 128.854  0.00  0.00    +0.298 C 
ATOM      2  O   LIG A   1      -9.255   5.448 128.769  0.00  0.00    -0.339 OA
ATOM      3  C   LIG A   1      -9.920   5.766 130.002  0.00  0.00    +0.178 C 
ATOM      4  C   LIG A   1     -10.349   4.488 130.737  0.00  0.00    +0.178 C 
ATOM      5  C   LIG A   1      -9.154   3.547 130.952  0.00  0.00    +0.191 C 
ATOM      6  C   LIG A   1      -8.405   3.282 129.636  0.00  0.00    +0.263 C 
ENDROOT
BRANCH   5   7
ATOM      7  O   LIG A   1      -8.299   4.087 131.962  0.00  0.00    -0.385 OA
ATOM      8  H   LIG A   1      -8.344   5.059 131.901  0.00  0.00    +0.210 HD
ENDBRANCH   5   7
BRANCH   4   9
ATOM      9  O   LIG A   1     -11.371   3.823 129.975  0.00  0.00    -0.386 OA
ATOM     10  H   LIG A   1     -11.621   4.416 129.241  0.00  0.00    +0.210 HD
ENDBRANCH   4   9
BRANCH   1  11
ATOM     11  O   LIG A   1      -6.946   5.262 129.335  0.00  0.00    -0.308 OA
BRANCH  11  14
ATOM     12  C   LIG A   1      -4.050   5.907 128.818  0.00  0.00    +0.041 C 
ATOM     13  C   LIG A   1      -4.743   4.550 128.582  0.00  0.00    +0.071 C 
ATOM     14  C   LIG A   1      -5.879   4.325 129.585  0.00  0.00    +0.313 C 
ATOM     15  O   LIG A   1      -5.395   4.392 130.941  0.00  0.00    -0.470 OA
ATOM     16  C   LIG A   1      -4.560   5.444 131.213  0.00  0.00    +0.201 C 
ATOM     17  C   LIG A   1      -3.938   6.202 130.295  0.00  0.00    +0.074 C 
ATOM     18  C   LIG A   1      -2.698   5.732 128.092  0.00  0.00    +0.040 C 
ATOM     19  C   LIG A   1      -2.433   4.224 127.981  0.00  0.00    +0.118 C 
ATOM     20  C   LIG A   1      -3.580   3.544 128.731  0.00  0.00    +0.024 C 
ATOM     21  C   LIG A   1      -3.914   2.135 128.264  0.00  0.00    +0.010 C 
BRANCH  17  22
ATOM     22  C   LIG A   1      -3.154   7.349 130.804  0.00  0.00    +0.336 C 
ATOM     23  O   LIG A   1      -2.169   7.299 131.515  0.00  0.00    -0.245 OA
BRANCH  22  24
ATOM     24  O   LIG A   1      -3.699   8.514 130.429  0.00  0.00    -0.477 OA
ATOM     25  H   LIG A   1      -3.377   9.140 131.109  0.00  0.00    +0.295 HD
ENDBRANCH  22  24
ENDBRANCH  17  22
BRANCH  19  26
ATOM     26  O   LIG A   1      -2.428   3.845 126.611  0.00  0.00    -0.392 OA
ATOM     27  H   LIG A   1      -3.268   3.386 126.434  0.00  0.00    +0.210 HD
ENDBRANCH  19  26
ENDBRANCH  11  14
ENDBRANCH   1  11
BRANCH   3  28
ATOM     28  C   LIG A   1      -9.153   6.781 130.868  0.00  0.00    +0.190 C 
BRANCH  28  29
ATOM     29  O   LIG A   1      -8.431   7.716 130.072  0.00  0.00    -0.392 OA
ATOM     30  H   LIG A   1      -8.335   8.527 130.607  0.00  0.00    +0.209 HD
ENDBRANCH  28  29
ENDBRANCH   3  28
BRANCH   6  31
ATOM     31  O   LIG A   1      -9.269   2.446 128.821  0.00  0.00    -0.450 OA
BRANCH  31  32
ATOM     32  C   LIG A   1      -8.682   1.730 127.846  0.00  0.00    +0.332 C 
ATOM     33  O   LIG A   1      -8.841   1.853 126.640  0.00  0.00    -0.246 OA
BRANCH  32  34
ATOM     34  C   LIG A   1      -7.829   0.715 128.486  0.00  0.00    +0.092 C 
ATOM     35  C   LIG A   1      -7.685  -0.477 127.880  0.00  0.00    +0.015 C 
BRANCH  35  36
ATOM     36  C   LIG A   1      -7.018  -1.651 128.452  0.00  0.00    -0.025 A 
ATOM     37  C   LIG A   1      -7.783  -2.574 129.175  0.00  0.00    +0.011 A 
ATOM     38  C   LIG A   1      -7.167  -3.626 129.859  0.00  0.00    +0.046 A 
ATOM     39  C   LIG A   1      -5.779  -3.756 129.852  0.00  0.00    +0.120 A 
ATOM     40  C   LIG A   1      -5.011  -2.854 129.118  0.00  0.00    +0.046 A 
ATOM     41  C   LIG A   1      -5.627  -1.805 128.426  0.00  0.00    +0.011 A 
BRANCH  39  42
ATOM     42  O   LIG A   1      -5.287  -4.808 130.574  0.00  0.00    -0.495 OA
ATOM     43  C   LIG A   1      -5.069  -4.554 131.957  0.00  0.00    +0.277 C 
ENDBRANCH  39  42
ENDBRANCH  35  36
ENDBRANCH  32  34
ENDBRANCH  31  32
ENDBRANCH   6  31
TORSDOF 14
ENDMDL
MODEL 5
REMARK VINA RESULT:      -7.5      2.800      7.507
REMARK  Name = NuBBE_419
REMARK  16 active torsions:
REMARK  status: ('A' for Active; 'I' for Inactive)
REMARK    1  A    between atoms: C_4  and  O_12
REMARK    2  A    between atoms: C_8  and  C_9
REMARK    3  A    between atoms: C_9  and  O_10
REMARK    4  A    between atoms: O_12  and  C_13
REMARK    5  A    between atoms: C_16  and  C_24
REMARK    6  A    between atoms: C_18  and  O_23
REMARK    7  A    between atoms: C_20  and  O_22
REMARK    8  A    between atoms: C_24  and  O_25
REMARK    9  A    between atoms: C_26  and  O_28
REMARK   10  A    between atoms: O_28  and  C_29
REMARK   11  A    between atoms: C_29  and  C_30
REMARK   12  A    between atoms: C_31  and  C_32
REMARK   13  A    between atoms: C_35  and  O_38
REMARK   14  A    between atoms: O_38  and  C_39
REMARK   15  A    between atoms: C_43  and  O_48
REMARK   16  A    between atoms: C_45  and  C_47
REMARK                            x       y       z     vdW  Elec       q    Type
REMARK                         _______ _______ _______ _____ _____    ______ ____
ROOT
ATOM      1  C   LIG A   1      -6.039   4.235 128.736  0.00  0.00    +0.298 C 
ATOM      2  O   LIG A   1      -5.614   4.858 127.516  0.00  0.00    -0.339 OA
ATOM      3  C   LIG A   1      -4.203   5.068 127.352  0.00  0.00    +0.178 C 
ATOM      4  C   LIG A   1      -3.633   5.887 128.519  0.00  0.00    +0.178 C 
ATOM      5  C   LIG A   1      -3.967   5.233 129.868  0.00  0.00    +0.191 C 
ATOM      6  C   LIG A   1      -5.471   4.941 129.993  0.00  0.00    +0.263 C 
ENDROOT
BRANCH   5   7
ATOM      7  O   LIG A   1      -3.172   4.057 130.036  0.00  0.00    -0.385 OA
ATOM      8  H   LIG A   1      -2.732   3.872 129.186  0.00  0.00    +0.210 HD
ENDBRANCH   5   7
BRANCH   4   9
ATOM      9  O   LIG A   1      -4.171   7.220 128.469  0.00  0.00    -0.386 OA
ATOM     10  H   LIG A   1      -3.440   7.820 128.229  0.00  0.00    +0.210 HD
ENDBRANCH   4   9
BRANCH   1  11
ATOM     11  O   LIG A   1      -5.805   2.825 128.748  0.00  0.00    -0.308 OA
BRANCH  11  14
ATOM     12  C   LIG A   1      -6.915   0.250 129.847  0.00  0.00    +0.041 C 
ATOM     13  C   LIG A   1      -6.741   0.612 128.358  0.00  0.00    +0.071 C 
ATOM     14  C   LIG A   1      -6.900   2.118 128.131  0.00  0.00    +0.313 C 
ATOM     15  O   LIG A   1      -8.184   2.581 128.595  0.00  0.00    -0.470 OA
ATOM     16  C   LIG A   1      -8.560   2.122 129.831  0.00  0.00    +0.201 C 
ATOM     17  C   LIG A   1      -8.003   1.085 130.478  0.00  0.00    +0.074 C 
ATOM     18  C   LIG A   1      -7.211  -1.265 129.799  0.00  0.00    +0.040 C 
ATOM     19  C   LIG A   1      -7.738  -1.581 128.392  0.00  0.00    +0.118 C 
ATOM     20  C   LIG A   1      -7.837  -0.234 127.673  0.00  0.00    +0.024 C 
ATOM     21  C   LIG A   1      -7.715  -0.299 126.157  0.00  0.00    +0.010 C 
BRANCH  17  22
ATOM     22  C   LIG A   1      -8.499   0.815 131.846  0.00  0.00    +0.336 C 
ATOM     23  O   LIG A   1      -7.875   0.938 132.883  0.00  0.00    -0.245 OA
BRANCH  22  24
ATOM     24  O   LIG A   1      -9.752   0.342 131.824  0.00  0.00    -0.477 OA
ATOM     25  H   LIG A   1      -9.966   0.234 132.773  0.00  0.00    +0.295 HD
ENDBRANCH  22  24
ENDBRANCH  17  22
BRANCH  19  26
ATOM     26  O   LIG A   1      -6.823  -2.443 127.728  0.00  0.00    -0.392 OA
ATOM     27  H   LIG A   1      -6.756  -2.140 126.805  0.00  0.00    +0.210 HD
ENDBRANCH  19  26
ENDBRANCH  11  14
ENDBRANCH   1  11
BRANCH   3  28
ATOM     28  C   LIG A   1      -3.426   3.779 127.029  0.00  0.00    +0.190 C 
BRANCH  28  29
ATOM     29  O   LIG A   1      -2.019   3.960 127.169  0.00  0.00    -0.392 OA
ATOM     30  H   LIG A   1      -1.591   3.272 126.626  0.00  0.00    +0.209 HD
ENDBRANCH  28  29
ENDBRANCH   3  28
BRANCH   6  31
ATOM     31  O   LIG A   1      -6.138   6.223 130.138  0.00  0.00    -0.450 OA
BRANCH  31  32
ATOM     32  C   LIG A   1      -6.873   6.406 131.249  0.00  0.00    +0.332 C 
ATOM     33  O   LIG A   1      -6.648   5.963 132.366  0.00  0.00    -0.246 OA
BRANCH  32  34
ATOM     34  C   LIG A   1      -8.050   7.209 130.880  0.00  0.00    +0.092 C 
ATOM     35  C   LIG A   1      -9.188   6.568 130.558  0.00  0.00    +0.015 C 
BRANCH  35  36
ATOM     36  C   LIG A   1     -10.396   7.194 130.010  0.00  0.00    -0.025 A 
ATOM     37  C   LIG A   1     -10.294   7.916 128.814  0.00  0.00    +0.011 A 
ATOM     38  C   LIG A   1     -11.383   8.650 128.334  0.00  0.00    +0.046 A 
ATOM     39  C   LIG A   1     -12.577   8.694 129.052  0.00  0.00    +0.120 A 
ATOM     40  C   LIG A   1     -12.693   7.962 130.232  0.00  0.00    +0.046 A 
ATOM     41  C   LIG A   1     -11.607   7.221 130.710  0.00  0.00    +0.011 A 
BRANCH  39  42
ATOM     42  O   LIG A   1     -13.565   9.461 128.498  0.00  0.00    -0.495 OA
ATOM     43  C   LIG A   1     -13.781  10.724 129.118  0.00  0.00    +0.277 C 
ENDBRANCH  39  42
ENDBRANCH  35  36
ENDBRANCH  32  34
ENDBRANCH  31  32
ENDBRANCH   6  31
TORSDOF 14
ENDMDL
MODEL 6
REMARK VINA RESULT:      -7.4      5.249      7.619
REMARK  Name = NuBBE_419
REMARK  16 active torsions:
REMARK  status: ('A' for Active; 'I' for Inactive)
REMARK    1  A    between atoms: C_4  and  O_12
REMARK    2  A    between atoms: C_8  and  C_9
REMARK    3  A    between atoms: C_9  and  O_10
REMARK    4  A    between atoms: O_12  and  C_13
REMARK    5  A    between atoms: C_16  and  C_24
REMARK    6  A    between atoms: C_18  and  O_23
REMARK    7  A    between atoms: C_20  and  O_22
REMARK    8  A    between atoms: C_24  and  O_25
REMARK    9  A    between atoms: C_26  and  O_28
REMARK   10  A    between atoms: O_28  and  C_29
REMARK   11  A    between atoms: C_29  and  C_30
REMARK   12  A    between atoms: C_31  and  C_32
REMARK   13  A    between atoms: C_35  and  O_38
REMARK   14  A    between atoms: O_38  and  C_39
REMARK   15  A    between atoms: C_43  and  O_48
REMARK   16  A    between atoms: C_45  and  C_47
REMARK                            x       y       z     vdW  Elec       q    Type
REMARK                         _______ _______ _______ _____ _____    ______ ____
ROOT
ATOM      1  C   LIG A   1      -8.383  -0.912 126.560  0.00  0.00    +0.298 C 
ATOM      2  O   LIG A   1      -9.470  -1.722 126.094  0.00  0.00    -0.339 OA
ATOM      3  C   LIG A   1      -9.193  -2.619 125.007  0.00  0.00    +0.178 C 
ATOM      4  C   LIG A   1      -8.627  -1.856 123.801  0.00  0.00    +0.178 C 
ATOM      5  C   LIG A   1      -7.394  -1.030 124.197  0.00  0.00    +0.191 C 
ATOM      6  C   LIG A   1      -7.686  -0.136 125.413  0.00  0.00    +0.263 C 
ENDROOT
BRANCH   5   7
ATOM      7  O   LIG A   1      -6.287  -1.907 124.423  0.00  0.00    -0.385 OA
ATOM      8  H   LIG A   1      -6.623  -2.697 124.885  0.00  0.00    +0.210 HD
ENDBRANCH   5   7
BRANCH   4   9
ATOM      9  O   LIG A   1      -9.646  -0.996 123.263  0.00  0.00    -0.386 OA
ATOM     10  H   LIG A   1      -9.932  -1.380 122.412  0.00  0.00    +0.210 HD
ENDBRANCH   4   9
BRANCH   1  11
ATOM     11  O   LIG A   1      -7.457  -1.640 127.368  0.00  0.00    -0.308 OA
BRANCH  11  14
ATOM     12  C   LIG A   1      -6.115  -2.962 129.719  0.00  0.00    +0.041 C 
ATOM     13  C   LIG A   1      -7.293  -1.969 129.775  0.00  0.00    +0.071 C 
ATOM     14  C   LIG A   1      -7.227  -0.964 128.621  0.00  0.00    +0.313 C 
ATOM     15  O   LIG A   1      -5.983  -0.238 128.635  0.00  0.00    -0.470 OA
ATOM     16  C   LIG A   1      -4.861  -1.004 128.822  0.00  0.00    +0.201 C 
ATOM     17  C   LIG A   1      -4.848  -2.266 129.281  0.00  0.00    +0.074 C 
ATOM     18  C   LIG A   1      -6.075  -3.529 131.155  0.00  0.00    +0.040 C 
ATOM     19  C   LIG A   1      -6.776  -2.511 132.065  0.00  0.00    +0.118 C 
ATOM     20  C   LIG A   1      -7.125  -1.322 131.167  0.00  0.00    +0.024 C 
ATOM     21  C   LIG A   1      -8.324  -0.499 131.619  0.00  0.00    +0.010 C 
BRANCH  17  22
ATOM     22  C   LIG A   1      -3.533  -2.943 129.318  0.00  0.00    +0.336 C 
ATOM     23  O   LIG A   1      -3.280  -4.063 128.916  0.00  0.00    -0.245 OA
BRANCH  22  24
ATOM     24  O   LIG A   1      -2.611  -2.181 129.922  0.00  0.00    -0.477 OA
ATOM     25  H   LIG A   1      -2.417  -1.494 129.252  0.00  0.00    +0.295 HD
ENDBRANCH  22  24
ENDBRANCH  17  22
BRANCH  19  26
ATOM     26  O   LIG A   1      -7.952  -3.096 132.610  0.00  0.00    -0.392 OA
ATOM     27  H   LIG A   1      -8.637  -3.068 131.919  0.00  0.00    +0.210 HD
ENDBRANCH  19  26
ENDBRANCH  11  14
ENDBRANCH   1  11
BRANCH   3  28
ATOM     28  C   LIG A   1      -8.379  -3.856 125.427  0.00  0.00    +0.190 C 
BRANCH  28  29
ATOM     29  O   LIG A   1      -8.577  -4.178 126.801  0.00  0.00    -0.392 OA
ATOM     30  H   LIG A   1      -7.697  -4.173 127.221  0.00  0.00    +0.209 HD
ENDBRANCH  28  29
ENDBRANCH   3  28
BRANCH   6  31
ATOM     31  O   LIG A   1      -8.582   0.912 124.958  0.00  0.00    -0.450 OA
BRANCH  31  32
ATOM     32  C   LIG A   1      -8.231   2.179 125.238  0.00  0.00    +0.332 C 
ATOM     33  O   LIG A   1      -8.387   2.774 126.294  0.00  0.00    -0.246 OA
BRANCH  32  34
ATOM     34  C   LIG A   1      -7.654   2.764 124.016  0.00  0.00    +0.092 C 
ATOM     35  C   LIG A   1      -8.465   2.984 122.965  0.00  0.00    +0.015 C 
BRANCH  35  36
ATOM     36  C   LIG A   1      -8.035   3.398 121.626  0.00  0.00    -0.025 A 
ATOM     37  C   LIG A   1      -6.681   3.687 121.415  0.00  0.00    +0.011 A 
ATOM     38  C   LIG A   1      -6.253   4.225 120.198  0.00  0.00    +0.046 A 
ATOM     39  C   LIG A   1      -7.170   4.506 119.186  0.00  0.00    +0.120 A 
ATOM     40  C   LIG A   1      -8.516   4.202 119.381  0.00  0.00    +0.046 A 
ATOM     41  C   LIG A   1      -8.946   3.656 120.595  0.00  0.00    +0.011 A 
BRANCH  39  42
ATOM     42  O   LIG A   1      -6.640   5.050 118.049  0.00  0.00    -0.495 OA
ATOM     43  C   LIG A   1      -5.812   6.192 118.245  0.00  0.00    +0.277 C 
ENDBRANCH  39  42
ENDBRANCH  35  36
ENDBRANCH  32  34
ENDBRANCH  31  32
ENDBRANCH   6  31
TORSDOF 14
ENDMDL
MODEL 7
REMARK VINA RESULT:      -7.4      3.527      7.114
REMARK  Name = NuBBE_419
REMARK  16 active torsions:
REMARK  status: ('A' for Active; 'I' for Inactive)
REMARK    1  A    between atoms: C_4  and  O_12
REMARK    2  A    between atoms: C_8  and  C_9
REMARK    3  A    between atoms: C_9  and  O_10
REMARK    4  A    between atoms: O_12  and  C_13
REMARK    5  A    between atoms: C_16  and  C_24
REMARK    6  A    between atoms: C_18  and  O_23
REMARK    7  A    between atoms: C_20  and  O_22
REMARK    8  A    between atoms: C_24  and  O_25
REMARK    9  A    between atoms: C_26  and  O_28
REMARK   10  A    between atoms: O_28  and  C_29
REMARK   11  A    between atoms: C_29  and  C_30
REMARK   12  A    between atoms: C_31  and  C_32
REMARK   13  A    between atoms: C_35  and  O_38
REMARK   14  A    between atoms: O_38  and  C_39
REMARK   15  A    between atoms: C_43  and  O_48
REMARK   16  A    between atoms: C_45  and  C_47
REMARK                            x       y       z     vdW  Elec       q    Type
REMARK                         _______ _______ _______ _____ _____    ______ ____
ROOT
ATOM      1  C   LIG A   1      -7.828   2.187 127.445  0.00  0.00    +0.298 C 
ATOM      2  O   LIG A   1      -6.525   2.650 127.063  0.00  0.00    -0.339 OA
ATOM      3  C   LIG A   1      -6.448   3.476 125.890  0.00  0.00    +0.178 C 
ATOM      4  C   LIG A   1      -7.066   2.762 124.679  0.00  0.00    +0.178 C 
ATOM      5  C   LIG A   1      -8.504   2.313 124.975  0.00  0.00    +0.191 C 
ATOM      6  C   LIG A   1      -8.580   1.499 126.277  0.00  0.00    +0.263 C 
ENDROOT
BRANCH   5   7
ATOM      7  O   LIG A   1      -9.364   3.455 125.000  0.00  0.00    -0.385 OA
ATOM      8  H   LIG A   1     -10.154   3.221 125.520  0.00  0.00    +0.210 HD
ENDBRANCH   5   7
BRANCH   4   9
ATOM      9  O   LIG A   1      -6.254   1.626 124.333  0.00  0.00    -0.386 OA
ATOM     10  H   LIG A   1      -5.669   1.444 125.093  0.00  0.00    +0.210 HD
ENDBRANCH   4   9
BRANCH   1  11
ATOM     11  O   LIG A   1      -8.612   3.199 128.079  0.00  0.00    -0.308 OA
BRANCH  11  14
ATOM     12  C   LIG A   1      -9.166   5.664 129.719  0.00  0.00    +0.041 C 
ATOM     13  C   LIG A   1      -7.933   4.745 129.833  0.00  0.00    +0.071 C 
ATOM     14  C   LIG A   1      -8.286   3.297 129.481  0.00  0.00    +0.313 C 
ATOM     15  O   LIG A   1      -9.341   2.799 130.326  0.00  0.00    -0.470 OA
ATOM     16  C   LIG A   1     -10.405   3.646 130.496  0.00  0.00    +0.201 C 
ATOM     17  C   LIG A   1     -10.408   4.958 130.208  0.00  0.00    +0.074 C 
ATOM     18  C   LIG A   1      -8.754   6.896 130.554  0.00  0.00    +0.040 C 
ATOM     19  C   LIG A   1      -7.650   6.442 131.520  0.00  0.00    +0.118 C 
ATOM     20  C   LIG A   1      -7.505   4.934 131.306  0.00  0.00    +0.024 C 
ATOM     21  C   LIG A   1      -6.131   4.364 131.631  0.00  0.00    +0.010 C 
BRANCH  17  22
ATOM     22  C   LIG A   1     -11.694   5.670 130.379  0.00  0.00    +0.336 C 
ATOM     23  O   LIG A   1     -12.406   6.108 129.495  0.00  0.00    -0.245 OA
BRANCH  22  24
ATOM     24  O   LIG A   1     -11.984   5.844 131.675  0.00  0.00    -0.477 OA
ATOM     25  H   LIG A   1     -11.123   5.701 132.118  0.00  0.00    +0.295 HD
ENDBRANCH  22  24
ENDBRANCH  17  22
BRANCH  19  26
ATOM     26  O   LIG A   1      -6.440   7.118 131.204  0.00  0.00    -0.392 OA
ATOM     27  H   LIG A   1      -5.732   6.710 131.734  0.00  0.00    +0.210 HD
ENDBRANCH  19  26
ENDBRANCH  11  14
ENDBRANCH   1  11
BRANCH   3  28
ATOM     28  C   LIG A   1      -6.953   4.912 126.119  0.00  0.00    +0.190 C 
BRANCH  28  29
ATOM     29  O   LIG A   1      -6.691   5.749 124.997  0.00  0.00    -0.392 OA
ATOM     30  H   LIG A   1      -5.868   5.423 124.587  0.00  0.00    +0.209 HD
ENDBRANCH  28  29
ENDBRANCH   3  28
BRANCH   6  31
ATOM     31  O   LIG A   1      -7.944   0.221 126.012  0.00  0.00    -0.450 OA
BRANCH  31  32
ATOM     32  C   LIG A   1      -8.735  -0.865 126.007  0.00  0.00    +0.332 C 
ATOM     33  O   LIG A   1      -9.705  -1.071 125.291  0.00  0.00    -0.246 OA
BRANCH  32  34
ATOM     34  C   LIG A   1      -8.261  -1.771 127.067  0.00  0.00    +0.092 C 
ATOM     35  C   LIG A   1      -7.010  -1.610 127.536  0.00  0.00    +0.015 C 
BRANCH  35  36
ATOM     36  C   LIG A   1      -6.321  -2.516 128.460  0.00  0.00    -0.025 A 
ATOM     37  C   LIG A   1      -7.081  -3.222 129.400  0.00  0.00    +0.011 A 
ATOM     38  C   LIG A   1      -6.454  -3.981 130.393  0.00  0.00    +0.046 A 
ATOM     39  C   LIG A   1      -5.063  -4.025 130.477  0.00  0.00    +0.120 A 
ATOM     40  C   LIG A   1      -4.300  -3.342 129.532  0.00  0.00    +0.046 A 
ATOM     41  C   LIG A   1      -4.925  -2.588 128.533  0.00  0.00    +0.011 A 
BRANCH  39  42
ATOM     42  O   LIG A   1      -4.562  -4.781 131.500  0.00  0.00    -0.495 OA
ATOM     43  C   LIG A   1      -5.426  -4.947 132.619  0.00  0.00    +0.277 C 
ENDBRANCH  39  42
ENDBRANCH  35  36
ENDBRANCH  32  34
ENDBRANCH  31  32
ENDBRANCH   6  31
TORSDOF 14
ENDMDL
MODEL 8
REMARK VINA RESULT:      -7.3      3.854      7.118
REMARK  Name = NuBBE_419
REMARK  16 active torsions:
REMARK  status: ('A' for Active; 'I' for Inactive)
REMARK    1  A    between atoms: C_4  and  O_12
REMARK    2  A    between atoms: C_8  and  C_9
REMARK    3  A    between atoms: C_9  and  O_10
REMARK    4  A    between atoms: O_12  and  C_13
REMARK    5  A    between atoms: C_16  and  C_24
REMARK    6  A    between atoms: C_18  and  O_23
REMARK    7  A    between atoms: C_20  and  O_22
REMARK    8  A    between atoms: C_24  and  O_25
REMARK    9  A    between atoms: C_26  and  O_28
REMARK   10  A    between atoms: O_28  and  C_29
REMARK   11  A    between atoms: C_29  and  C_30
REMARK   12  A    between atoms: C_31  and  C_32
REMARK   13  A    between atoms: C_35  and  O_38
REMARK   14  A    between atoms: O_38  and  C_39
REMARK   15  A    between atoms: C_43  and  O_48
REMARK   16  A    between atoms: C_45  and  C_47
REMARK                            x       y       z     vdW  Elec       q    Type
REMARK                         _______ _______ _______ _____ _____    ______ ____
ROOT
ATOM      1  C   LIG A   1      -7.827   1.088 126.550  0.00  0.00    +0.298 C 
ATOM      2  O   LIG A   1      -6.750   1.456 125.679  0.00  0.00    -0.339 OA
ATOM      3  C   LIG A   1      -7.108   2.036 124.414  0.00  0.00    +0.178 C 
ATOM      4  C   LIG A   1      -8.045   1.104 123.632  0.00  0.00    +0.178 C 
ATOM      5  C   LIG A   1      -9.280   0.734 124.467  0.00  0.00    +0.191 C 
ATOM      6  C   LIG A   1      -8.880   0.192 125.848  0.00  0.00    +0.263 C 
ENDROOT
BRANCH   5   7
ATOM      7  O   LIG A   1     -10.147   1.867 124.561  0.00  0.00    -0.385 OA
ATOM      8  H   LIG A   1     -10.774   1.824 123.815  0.00  0.00    +0.210 HD
ENDBRANCH   5   7
BRANCH   4   9
ATOM      9  O   LIG A   1      -7.328  -0.084 123.256  0.00  0.00    -0.386 OA
ATOM     10  H   LIG A   1      -7.939  -0.642 122.738  0.00  0.00    +0.210 HD
ENDBRANCH   4   9
BRANCH   1  11
ATOM     11  O   LIG A   1      -8.417   2.211 127.207  0.00  0.00    -0.308 OA
BRANCH  11  14
ATOM     12  C   LIG A   1      -6.421   2.539 129.438  0.00  0.00    +0.041 C 
ATOM     13  C   LIG A   1      -7.459   1.408 129.295  0.00  0.00    +0.071 C 
ATOM     14  C   LIG A   1      -8.722   1.900 128.581  0.00  0.00    +0.313 C 
ATOM     15  O   LIG A   1      -9.313   3.013 129.280  0.00  0.00    -0.470 OA
ATOM     16  C   LIG A   1      -8.435   3.989 129.676  0.00  0.00    +0.201 C 
ATOM     17  C   LIG A   1      -7.100   3.854 129.740  0.00  0.00    +0.074 C 
ATOM     18  C   LIG A   1      -5.498   2.018 130.561  0.00  0.00    +0.040 C 
ATOM     19  C   LIG A   1      -6.298   0.981 131.362  0.00  0.00    +0.118 C 
ATOM     20  C   LIG A   1      -7.704   0.986 130.761  0.00  0.00    +0.024 C 
ATOM     21  C   LIG A   1      -8.477  -0.317 130.911  0.00  0.00    +0.010 C 
BRANCH  17  22
ATOM     22  C   LIG A   1      -6.329   5.064 130.105  0.00  0.00    +0.336 C 
ATOM     23  O   LIG A   1      -6.368   5.659 131.165  0.00  0.00    -0.245 OA
BRANCH  22  24
ATOM     24  O   LIG A   1      -5.587   5.494 129.076  0.00  0.00    -0.477 OA
ATOM     25  H   LIG A   1      -4.690   5.565 129.462  0.00  0.00    +0.295 HD
ENDBRANCH  22  24
ENDBRANCH  17  22
BRANCH  19  26
ATOM     26  O   LIG A   1      -5.690  -0.296 131.220  0.00  0.00    -0.392 OA
ATOM     27  H   LIG A   1      -4.873  -0.290 131.749  0.00  0.00    +0.210 HD
ENDBRANCH  19  26
ENDBRANCH  11  14
ENDBRANCH   1  11
BRANCH   3  28
ATOM     28  C   LIG A   1      -7.591   3.493 124.523  0.00  0.00    +0.190 C 
BRANCH  28  29
ATOM     29  O   LIG A   1      -8.300   3.905 123.358  0.00  0.00    -0.392 OA
ATOM     30  H   LIG A   1      -9.250   3.801 123.555  0.00  0.00    +0.209 HD
ENDBRANCH  28  29
ENDBRANCH   3  28
BRANCH   6  31
ATOM     31  O   LIG A   1      -8.293  -1.119 125.631  0.00  0.00    -0.450 OA
BRANCH  31  32
ATOM     32  C   LIG A   1      -8.981  -2.179 126.091  0.00  0.00    +0.332 C 
ATOM     33  O   LIG A   1      -9.990  -2.672 125.609  0.00  0.00    -0.246 OA
BRANCH  32  34
ATOM     34  C   LIG A   1      -8.330  -2.631 127.332  0.00  0.00    +0.092 C 
ATOM     35  C   LIG A   1      -7.014  -2.399 127.488  0.00  0.00    +0.015 C 
BRANCH  35  36
ATOM     36  C   LIG A   1      -6.177  -2.922 128.572  0.00  0.00    -0.025 A 
ATOM     37  C   LIG A   1      -6.800  -3.525 129.671  0.00  0.00    +0.011 A 
ATOM     38  C   LIG A   1      -6.054  -3.904 130.791  0.00  0.00    +0.046 A 
ATOM     39  C   LIG A   1      -4.681  -3.663 130.840  0.00  0.00    +0.120 A 
ATOM     40  C   LIG A   1      -4.050  -3.082 129.742  0.00  0.00    +0.046 A 
ATOM     41  C   LIG A   1      -4.794  -2.709 128.618  0.00  0.00    +0.011 A 
BRANCH  39  42
ATOM     42  O   LIG A   1      -4.059  -4.055 131.992  0.00  0.00    -0.495 OA
ATOM     43  C   LIG A   1      -4.802  -4.944 132.819  0.00  0.00    +0.277 C 
ENDBRANCH  39  42
ENDBRANCH  35  36
ENDBRANCH  32  34
ENDBRANCH  31  32
ENDBRANCH   6  31
TORSDOF 14
ENDMDL
MODEL 9
REMARK VINA RESULT:      -7.3      3.192      7.604
REMARK  Name = NuBBE_419
REMARK  16 active torsions:
REMARK  status: ('A' for Active; 'I' for Inactive)
REMARK    1  A    between atoms: C_4  and  O_12
REMARK    2  A    between atoms: C_8  and  C_9
REMARK    3  A    between atoms: C_9  and  O_10
REMARK    4  A    between atoms: O_12  and  C_13
REMARK    5  A    between atoms: C_16  and  C_24
REMARK    6  A    between atoms: C_18  and  O_23
REMARK    7  A    between atoms: C_20  and  O_22
REMARK    8  A    between atoms: C_24  and  O_25
REMARK    9  A    between atoms: C_26  and  O_28
REMARK   10  A    between atoms: O_28  and  C_29
REMARK   11  A    between atoms: C_29  and  C_30
REMARK   12  A    between atoms: C_31  and  C_32
REMARK   13  A    between atoms: C_35  and  O_38
REMARK   14  A    between atoms: O_38  and  C_39
REMARK   15  A    between atoms: C_43  and  O_48
REMARK   16  A    between atoms: C_45  and  C_47
REMARK                            x       y       z     vdW  Elec       q    Type
REMARK                         _______ _______ _______ _____ _____    ______ ____
ROOT
ATOM      1  C   LIG A   1      -6.851  -0.463 125.060  0.00  0.00    +0.298 C 
ATOM      2  O   LIG A   1      -6.683  -1.833 124.671  0.00  0.00    -0.339 OA
ATOM      3  C   LIG A   1      -7.874  -2.630 124.570  0.00  0.00    +0.178 C 
ATOM      4  C   LIG A   1      -8.658  -2.611 125.890  0.00  0.00    +0.178 C 
ATOM      5  C   LIG A   1      -8.962  -1.172 126.332  0.00  0.00    +0.191 C 
ATOM      6  C   LIG A   1      -7.688  -0.311 126.356  0.00  0.00    +0.263 C 
ENDROOT
BRANCH   5   7
ATOM      7  O   LIG A   1      -9.973  -0.618 125.484  0.00  0.00    -0.385 OA
ATOM      8  H   LIG A   1     -10.834  -0.761 125.917  0.00  0.00    +0.210 HD
ENDBRANCH   5   7
BRANCH   4   9
ATOM      9  O   LIG A   1      -7.896  -3.288 126.904  0.00  0.00    -0.386 OA
ATOM     10  H   LIG A   1      -7.596  -4.136 126.526  0.00  0.00    +0.210 HD
ENDBRANCH   4   9
BRANCH   1  11
ATOM     11  O   LIG A   1      -7.337   0.358 123.996  0.00  0.00    -0.308 OA
BRANCH  11  14
ATOM     12  C   LIG A   1      -6.305   3.080 123.224  0.00  0.00    +0.041 C 
ATOM     13  C   LIG A   1      -6.807   2.651 124.617  0.00  0.00    +0.071 C 
ATOM     14  C   LIG A   1      -7.899   1.583 124.510  0.00  0.00    +0.313 C 
ATOM     15  O   LIG A   1      -9.009   2.053 123.720  0.00  0.00    -0.470 OA
ATOM     16  C   LIG A   1      -8.670   2.678 122.548  0.00  0.00    +0.201 C 
ATOM     17  C   LIG A   1      -7.448   3.142 122.239  0.00  0.00    +0.074 C 
ATOM     18  C   LIG A   1      -5.624   4.436 123.507  0.00  0.00    +0.040 C 
ATOM     19  C   LIG A   1      -6.216   4.978 124.816  0.00  0.00    +0.118 C 
ATOM     20  C   LIG A   1      -7.303   3.982 125.224  0.00  0.00    +0.024 C 
ATOM     21  C   LIG A   1      -7.592   3.915 126.717  0.00  0.00    +0.010 C 
BRANCH  17  22
ATOM     22  C   LIG A   1      -7.277   3.701 120.879  0.00  0.00    +0.336 C 
ATOM     23  O   LIG A   1      -8.145   4.180 120.175  0.00  0.00    -0.245 OA
BRANCH  22  24
ATOM     24  O   LIG A   1      -6.012   3.569 120.456  0.00  0.00    -0.477 OA
ATOM     25  H   LIG A   1      -6.045   2.759 119.907  0.00  0.00    +0.295 HD
ENDBRANCH  22  24
ENDBRANCH  17  22
BRANCH  19  26
ATOM     26  O   LIG A   1      -5.195   5.046 125.803  0.00  0.00    -0.392 OA
ATOM     27  H   LIG A   1      -5.544   5.569 126.546  0.00  0.00    +0.210 HD
ENDBRANCH  19  26
ENDBRANCH  11  14
ENDBRANCH   1  11
BRANCH   3  28
ATOM     28  C   LIG A   1      -8.713  -2.321 123.317  0.00  0.00    +0.190 C 
BRANCH  28  29
ATOM     29  O   LIG A   1      -9.999  -2.930 123.378  0.00  0.00    -0.392 OA
ATOM     30  H   LIG A   1     -10.248  -3.156 122.462  0.00  0.00    +0.209 HD
ENDBRANCH  28  29
ENDBRANCH   3  28
BRANCH   6  31
ATOM     31  O   LIG A   1      -6.888  -0.777 127.475  0.00  0.00    -0.450 OA
BRANCH  31  32
ATOM     32  C   LIG A   1      -7.139  -0.227 128.675  0.00  0.00    +0.332 C 
ATOM     33  O   LIG A   1      -7.842  -0.683 129.565  0.00  0.00    -0.246 OA
BRANCH  32  34
ATOM     34  C   LIG A   1      -6.449   1.073 128.726  0.00  0.00    +0.092 C 
ATOM     35  C   LIG A   1      -5.118   1.100 128.534  0.00  0.00    +0.015 C 
BRANCH  35  36
ATOM     36  C   LIG A   1      -4.253   2.271 128.715  0.00  0.00    -0.025 A 
ATOM     37  C   LIG A   1      -4.359   3.008 129.900  0.00  0.00    +0.011 A 
ATOM     38  C   LIG A   1      -3.663   4.210 130.053  0.00  0.00    +0.046 A 
ATOM     39  C   LIG A   1      -2.872   4.706 129.017  0.00  0.00    +0.120 A 
ATOM     40  C   LIG A   1      -2.745   3.967 127.842  0.00  0.00    +0.046 A 
ATOM     41  C   LIG A   1      -3.435   2.760 127.690  0.00  0.00    +0.011 A 
BRANCH  39  42
ATOM     42  O   LIG A   1      -2.256   5.900 129.270  0.00  0.00    -0.495 OA
ATOM     43  C   LIG A   1      -2.255   6.829 128.191  0.00  0.00    +0.277 C 
ENDBRANCH  39  42
ENDBRANCH  35  36
ENDBRANCH  32  34
ENDBRANCH  31  32
ENDBRANCH   6  31
TORSDOF 14
ENDMDL
