MODEL 1
REMARK VINA RESULT:      -7.5      0.000      0.000
REMARK  Name = NuBBE_1206
REMARK  5 active torsions:
REMARK  status: ('A' for Active; 'I' for Inactive)
REMARK    1  A    between atoms: O_1  and  C_2
REMARK    2  A    between atoms: C_6  and  C_7
REMARK    3  A    between atoms: C_10  and  O_13
REMARK    4  A    between atoms: O_13  and  C_14
REMARK    5  A    between atoms: C_19  and  O_20
REMARK                            x       y       z     vdW  Elec       q    Type
REMARK                         _______ _______ _______ _____ _____    ______ ____
ROOT
ATOM      1  C   LIG A   1     -11.184   8.098 128.977  0.00  0.00    +0.124 A 
ATOM      2  C   LIG A   1      -9.799   8.086 129.131  0.00  0.00    +0.092 A 
ATOM      3  C   LIG A   1      -9.240   7.381 130.201  0.00  0.00    +0.146 A 
ATOM      4  O   LIG A   1      -7.870   7.398 130.310  0.00  0.00    -0.454 OA
ATOM      5  C   LIG A   1      -7.272   6.711 131.361  0.00  0.00    +0.139 A 
ATOM      6  C   LIG A   1      -7.960   6.018 132.282  0.00  0.00    +0.098 A 
ATOM      7  C   LIG A   1      -9.429   5.979 132.205  0.00  0.00    +0.197 A 
ATOM      8  O   LIG A   1     -10.098   5.365 133.029  0.00  0.00    -0.287 OA
ATOM      9  C   LIG A   1     -10.060   6.703 131.098  0.00  0.00    +0.105 A 
ATOM     10  C   LIG A   1     -11.449   6.722 130.931  0.00  0.00    +0.135 A 
ATOM     11  C   LIG A   1     -12.013   7.422 129.868  0.00  0.00    +0.091 A 
ENDROOT
BRANCH   5  12
ATOM     12  C   LIG A   1      -5.792   6.789 131.375  0.00  0.00    +0.018 A 
ATOM     13  C   LIG A   1      -5.121   7.569 130.419  0.00  0.00    +0.015 A 
ATOM     14  C   LIG A   1      -3.724   7.686 130.422  0.00  0.00    +0.046 A 
ATOM     15  C   LIG A   1      -2.966   7.026 131.385  0.00  0.00    +0.120 A 
ATOM     16  C   LIG A   1      -3.618   6.246 132.339  0.00  0.00    +0.046 A 
ATOM     17  C   LIG A   1      -5.014   6.131 132.339  0.00  0.00    +0.015 A 
BRANCH  15  18
ATOM     18  O   LIG A   1      -1.604   7.064 131.500  0.00  0.00    -0.495 OA
ATOM     19  C   LIG A   1      -0.996   6.010 132.237  0.00  0.00    +0.277 C 
ENDBRANCH  15  18
ENDBRANCH   5  12
BRANCH   1  20
ATOM     20  O   LIG A   1     -11.778   8.772 127.951  0.00  0.00    -0.506 OA
ATOM     21  H   LIG A   1     -12.702   8.482 127.867  0.00  0.00    +0.292 HD
ENDBRANCH   1  20
BRANCH  10  22
ATOM     22  O   LIG A   1     -12.311   6.077 131.775  0.00  0.00    -0.506 OA
ATOM     23  H   LIG A   1     -11.812   5.369 132.244  0.00  0.00    +0.292 HD
ENDBRANCH  10  22
TORSDOF 4
ENDMDL
MODEL 2
REMARK VINA RESULT:      -7.3      1.615      2.610
REMARK  Name = NuBBE_1206
REMARK  5 active torsions:
REMARK  status: ('A' for Active; 'I' for Inactive)
REMARK    1  A    between atoms: O_1  and  C_2
REMARK    2  A    between atoms: C_6  and  C_7
REMARK    3  A    between atoms: C_10  and  O_13
REMARK    4  A    between atoms: O_13  and  C_14
REMARK    5  A    between atoms: C_19  and  O_20
REMARK                            x       y       z     vdW  Elec       q    Type
REMARK                         _______ _______ _______ _____ _____    ______ ____
ROOT
ATOM      1  C   LIG A   1     -11.324   7.359 126.814  0.00  0.00    +0.124 A 
ATOM      2  C   LIG A   1     -10.147   7.213 127.545  0.00  0.00    +0.092 A 
ATOM      3  C   LIG A   1     -10.224   6.967 128.919  0.00  0.00    +0.146 A 
ATOM      4  O   LIG A   1      -9.035   6.830 129.595  0.00  0.00    -0.454 OA
ATOM      5  C   LIG A   1      -9.067   6.587 130.964  0.00  0.00    +0.139 A 
ATOM      6  C   LIG A   1     -10.202   6.469 131.672  0.00  0.00    +0.098 A 
ATOM      7  C   LIG A   1     -11.495   6.615 130.987  0.00  0.00    +0.197 A 
ATOM      8  O   LIG A   1     -12.557   6.524 131.595  0.00  0.00    -0.287 OA
ATOM      9  C   LIG A   1     -11.463   6.872 129.545  0.00  0.00    +0.105 A 
ATOM     10  C   LIG A   1     -12.639   7.019 128.798  0.00  0.00    +0.135 A 
ATOM     11  C   LIG A   1     -12.569   7.264 127.430  0.00  0.00    +0.091 A 
ENDROOT
BRANCH   5  12
ATOM     12  C   LIG A   1      -7.730   6.447 131.588  0.00  0.00    +0.018 A 
ATOM     13  C   LIG A   1      -7.594   5.771 132.812  0.00  0.00    +0.015 A 
ATOM     14  C   LIG A   1      -6.340   5.597 133.414  0.00  0.00    +0.046 A 
ATOM     15  C   LIG A   1      -5.192   6.093 132.802  0.00  0.00    +0.120 A 
ATOM     16  C   LIG A   1      -5.311   6.767 131.588  0.00  0.00    +0.046 A 
ATOM     17  C   LIG A   1      -6.563   6.940 130.984  0.00  0.00    +0.015 A 
BRANCH  15  18
ATOM     18  O   LIG A   1      -3.915   5.982 133.281  0.00  0.00    -0.495 OA
ATOM     19  C   LIG A   1      -3.050   7.088 133.052  0.00  0.00    +0.277 C 
ENDBRANCH  15  18
ENDBRANCH   5  12
BRANCH   1  20
ATOM     20  O   LIG A   1     -11.302   7.601 125.472  0.00  0.00    -0.506 OA
ATOM     21  H   LIG A   1     -12.176   7.405 125.095  0.00  0.00    +0.292 HD
ENDBRANCH   1  20
BRANCH  10  22
ATOM     22  O   LIG A   1     -13.887   6.936 129.351  0.00  0.00    -0.506 OA
ATOM     23  H   LIG A   1     -14.298   6.089 129.060  0.00  0.00    +0.292 HD
ENDBRANCH  10  22
TORSDOF 4
ENDMDL
MODEL 3
REMARK VINA RESULT:      -7.0      4.167      4.601
REMARK  Name = NuBBE_1206
REMARK  5 active torsions:
REMARK  status: ('A' for Active; 'I' for Inactive)
REMARK    1  A    between atoms: O_1  and  C_2
REMARK    2  A    between atoms: C_6  and  C_7
REMARK    3  A    between atoms: C_10  and  O_13
REMARK    4  A    between atoms: O_13  and  C_14
REMARK    5  A    between atoms: C_19  and  O_20
REMARK                            x       y       z     vdW  Elec       q    Type
REMARK                         _______ _______ _______ _____ _____    ______ ____
ROOT
ATOM      1  C   LIG A   1     -11.016   7.789 127.075  0.00  0.00    +0.124 A 
ATOM      2  C   LIG A   1     -10.340   6.836 127.836  0.00  0.00    +0.092 A 
ATOM      3  C   LIG A   1     -10.697   6.655 129.175  0.00  0.00    +0.146 A 
ATOM      4  O   LIG A   1     -10.003   5.704 129.882  0.00  0.00    -0.454 OA
ATOM      5  C   LIG A   1     -10.325   5.493 131.219  0.00  0.00    +0.139 A 
ATOM      6  C   LIG A   1     -11.291   6.166 131.865  0.00  0.00    +0.098 A 
ATOM      7  C   LIG A   1     -12.055   7.197 131.145  0.00  0.00    +0.197 A 
ATOM      8  O   LIG A   1     -12.940   7.841 131.698  0.00  0.00    -0.287 OA
ATOM      9  C   LIG A   1     -11.715   7.420 129.737  0.00  0.00    +0.105 A 
ATOM     10  C   LIG A   1     -12.387   8.372 128.962  0.00  0.00    +0.135 A 
ATOM     11  C   LIG A   1     -12.036   8.557 127.628  0.00  0.00    +0.091 A 
ENDROOT
BRANCH   5  12
ATOM     12  C   LIG A   1      -9.520   4.439 131.880  0.00  0.00    +0.018 A 
ATOM     13  C   LIG A   1      -9.262   4.513 133.258  0.00  0.00    +0.015 A 
ATOM     14  C   LIG A   1      -8.528   3.518 133.918  0.00  0.00    +0.046 A 
ATOM     15  C   LIG A   1      -8.038   2.422 133.213  0.00  0.00    +0.120 A 
ATOM     16  C   LIG A   1      -8.285   2.335 131.844  0.00  0.00    +0.046 A 
ATOM     17  C   LIG A   1      -9.020   3.327 131.184  0.00  0.00    +0.015 A 
BRANCH  15  18
ATOM     18  O   LIG A   1      -7.318   1.385 133.739  0.00  0.00    -0.495 OA
ATOM     19  C   LIG A   1      -5.978   1.668 134.125  0.00  0.00    +0.277 C 
ENDBRANCH  15  18
ENDBRANCH   5  12
BRANCH   1  20
ATOM     20  O   LIG A   1     -10.703   8.004 125.766  0.00  0.00    -0.506 OA
ATOM     21  H   LIG A   1     -11.401   8.538 125.352  0.00  0.00    +0.292 HD
ENDBRANCH   1  20
BRANCH  10  22
ATOM     22  O   LIG A   1     -13.396   9.155 129.452  0.00  0.00    -0.506 OA
ATOM     23  H   LIG A   1     -13.023  10.039 129.672  0.00  0.00    +0.292 HD
ENDBRANCH  10  22
TORSDOF 4
ENDMDL
MODEL 4
REMARK VINA RESULT:      -7.0      9.600     10.041
REMARK  Name = NuBBE_1206
REMARK  5 active torsions:
REMARK  status: ('A' for Active; 'I' for Inactive)
REMARK    1  A    between atoms: O_1  and  C_2
REMARK    2  A    between atoms: C_6  and  C_7
REMARK    3  A    between atoms: C_10  and  O_13
REMARK    4  A    between atoms: O_13  and  C_14
REMARK    5  A    between atoms: C_19  and  O_20
REMARK                            x       y       z     vdW  Elec       q    Type
REMARK                         _______ _______ _______ _____ _____    ______ ____
ROOT
ATOM      1  C   LIG A   1      -8.996   2.336 124.706  0.00  0.00    +0.124 A 
ATOM      2  C   LIG A   1      -8.398   1.606 125.731  0.00  0.00    +0.092 A 
ATOM      3  C   LIG A   1      -8.409   0.209 125.669  0.00  0.00    +0.146 A 
ATOM      4  O   LIG A   1      -7.806  -0.466 126.702  0.00  0.00    -0.454 OA
ATOM      5  C   LIG A   1      -7.797  -1.856 126.681  0.00  0.00    +0.139 A 
ATOM      6  C   LIG A   1      -8.341  -2.587 125.695  0.00  0.00    +0.098 A 
ATOM      7  C   LIG A   1      -9.001  -1.904 124.572  0.00  0.00    +0.197 A 
ATOM      8  O   LIG A   1      -9.518  -2.531 123.654  0.00  0.00    -0.287 OA
ATOM      9  C   LIG A   1      -9.012  -0.438 124.595  0.00  0.00    +0.105 A 
ATOM     10  C   LIG A   1      -9.608   0.307 123.570  0.00  0.00    +0.135 A 
ATOM     11  C   LIG A   1      -9.600   1.698 123.626  0.00  0.00    +0.091 A 
ENDROOT
BRANCH   5  12
ATOM     12  C   LIG A   1      -7.112  -2.478 127.839  0.00  0.00    +0.018 A 
ATOM     13  C   LIG A   1      -5.712  -2.420 127.940  0.00  0.00    +0.015 A 
ATOM     14  C   LIG A   1      -5.037  -2.974 129.036  0.00  0.00    +0.046 A 
ATOM     15  C   LIG A   1      -5.748  -3.596 130.059  0.00  0.00    +0.120 A 
ATOM     16  C   LIG A   1      -7.138  -3.663 129.972  0.00  0.00    +0.046 A 
ATOM     17  C   LIG A   1      -7.814  -3.107 128.878  0.00  0.00    +0.015 A 
BRANCH  15  18
ATOM     18  O   LIG A   1      -5.210  -4.166 131.180  0.00  0.00    -0.495 OA
ATOM     19  C   LIG A   1      -5.869  -3.898 132.412  0.00  0.00    +0.277 C 
ENDBRANCH  15  18
ENDBRANCH   5  12
BRANCH   1  20
ATOM     20  O   LIG A   1      -9.012   3.700 124.722  0.00  0.00    -0.506 OA
ATOM     21  H   LIG A   1      -9.855   4.007 125.097  0.00  0.00    +0.292 HD
ENDBRANCH   1  20
BRANCH  10  22
ATOM     22  O   LIG A   1     -10.215  -0.266 122.487  0.00  0.00    -0.506 OA
ATOM     23  H   LIG A   1     -11.031  -0.724 122.797  0.00  0.00    +0.292 HD
ENDBRANCH  10  22
TORSDOF 4
ENDMDL
MODEL 5
REMARK VINA RESULT:      -6.9     10.416     11.228
REMARK  Name = NuBBE_1206
REMARK  5 active torsions:
REMARK  status: ('A' for Active; 'I' for Inactive)
REMARK    1  A    between atoms: O_1  and  C_2
REMARK    2  A    between atoms: C_6  and  C_7
REMARK    3  A    between atoms: C_10  and  O_13
REMARK    4  A    between atoms: O_13  and  C_14
REMARK    5  A    between atoms: C_19  and  O_20
REMARK                            x       y       z     vdW  Elec       q    Type
REMARK                         _______ _______ _______ _____ _____    ______ ____
ROOT
ATOM      1  C   LIG A   1      -9.259  -3.140 123.957  0.00  0.00    +0.124 A 
ATOM      2  C   LIG A   1      -9.101  -3.320 125.330  0.00  0.00    +0.092 A 
ATOM      3  C   LIG A   1      -7.984  -2.771 125.966  0.00  0.00    +0.146 A 
ATOM      4  O   LIG A   1      -7.875  -2.975 127.320  0.00  0.00    -0.454 OA
ATOM      5  C   LIG A   1      -6.778  -2.447 127.991  0.00  0.00    +0.139 A 
ATOM      6  C   LIG A   1      -5.811  -1.735 127.391  0.00  0.00    +0.098 A 
ATOM      7  C   LIG A   1      -5.888  -1.498 125.941  0.00  0.00    +0.197 A 
ATOM      8  O   LIG A   1      -5.024  -0.860 125.349  0.00  0.00    -0.287 OA
ATOM      9  C   LIG A   1      -7.043  -2.055 125.232  0.00  0.00    +0.105 A 
ATOM     10  C   LIG A   1      -7.214  -1.879 123.854  0.00  0.00    +0.135 A 
ATOM     11  C   LIG A   1      -8.323  -2.423 123.214  0.00  0.00    +0.091 A 
ENDROOT
BRANCH   5  12
ATOM     12  C   LIG A   1      -6.767  -2.720 129.448  0.00  0.00    +0.018 A 
ATOM     13  C   LIG A   1      -7.536  -1.927 130.316  0.00  0.00    +0.015 A 
ATOM     14  C   LIG A   1      -7.569  -2.176 131.695  0.00  0.00    +0.046 A 
ATOM     15  C   LIG A   1      -6.836  -3.228 132.237  0.00  0.00    +0.120 A 
ATOM     16  C   LIG A   1      -6.067  -4.023 131.389  0.00  0.00    +0.046 A 
ATOM     17  C   LIG A   1      -6.035  -3.776 130.010  0.00  0.00    +0.015 A 
BRANCH  15  18
ATOM     18  O   LIG A   1      -6.791  -3.578 133.559  0.00  0.00    -0.495 OA
ATOM     19  C   LIG A   1      -8.032  -3.614 134.253  0.00  0.00    +0.277 C 
ENDBRANCH  15  18
ENDBRANCH   5  12
BRANCH   1  20
ATOM     20  O   LIG A   1     -10.330  -3.657 123.290  0.00  0.00    -0.506 OA
ATOM     21  H   LIG A   1     -11.080  -3.740 123.903  0.00  0.00    +0.292 HD
ENDBRANCH   1  20
BRANCH  10  22
ATOM     22  O   LIG A   1      -6.328  -1.186 123.075  0.00  0.00    -0.506 OA
ATOM     23  H   LIG A   1      -6.668  -0.268 122.964  0.00  0.00    +0.292 HD
ENDBRANCH  10  22
TORSDOF 4
ENDMDL
MODEL 6
REMARK VINA RESULT:      -6.8      1.663      7.088
REMARK  Name = NuBBE_1206
REMARK  5 active torsions:
REMARK  status: ('A' for Active; 'I' for Inactive)
REMARK    1  A    between atoms: O_1  and  C_2
REMARK    2  A    between atoms: C_6  and  C_7
REMARK    3  A    between atoms: C_10  and  O_13
REMARK    4  A    between atoms: O_13  and  C_14
REMARK    5  A    between atoms: C_19  and  O_20
REMARK                            x       y       z     vdW  Elec       q    Type
REMARK                         _______ _______ _______ _____ _____    ______ ____
ROOT
ATOM      1  C   LIG A   1      -4.453   6.485 131.850  0.00  0.00    +0.124 A 
ATOM      2  C   LIG A   1      -5.602   6.894 131.175  0.00  0.00    +0.092 A 
ATOM      3  C   LIG A   1      -6.853   6.513 131.669  0.00  0.00    +0.146 A 
ATOM      4  O   LIG A   1      -7.956   6.942 130.970  0.00  0.00    -0.454 OA
ATOM      5  C   LIG A   1      -9.219   6.583 131.425  0.00  0.00    +0.139 A 
ATOM      6  C   LIG A   1      -9.431   5.841 132.524  0.00  0.00    +0.098 A 
ATOM      7  C   LIG A   1      -8.277   5.358 133.298  0.00  0.00    +0.197 A 
ATOM      8  O   LIG A   1      -8.422   4.671 134.304  0.00  0.00    -0.287 OA
ATOM      9  C   LIG A   1      -6.944   5.734 132.819  0.00  0.00    +0.105 A 
ATOM     10  C   LIG A   1      -5.782   5.332 133.488  0.00  0.00    +0.135 A 
ATOM     11  C   LIG A   1      -4.534   5.708 133.002  0.00  0.00    +0.091 A 
ENDROOT
BRANCH   5  12
ATOM     12  C   LIG A   1     -10.334   7.107 130.601  0.00  0.00    +0.018 A 
ATOM     13  C   LIG A   1     -10.063   7.770 129.393  0.00  0.00    +0.015 A 
ATOM     14  C   LIG A   1     -11.095   8.253 128.577  0.00  0.00    +0.046 A 
ATOM     15  C   LIG A   1     -12.425   8.081 128.951  0.00  0.00    +0.120 A 
ATOM     16  C   LIG A   1     -12.711   7.427 130.149  0.00  0.00    +0.046 A 
ATOM     17  C   LIG A   1     -11.680   6.942 130.964  0.00  0.00    +0.015 A 
BRANCH  15  18
ATOM     18  O   LIG A   1     -13.519   8.497 128.244  0.00  0.00    -0.495 OA
ATOM     19  C   LIG A   1     -13.887   9.864 128.383  0.00  0.00    +0.277 C 
ENDBRANCH  15  18
ENDBRANCH   5  12
BRANCH   1  20
ATOM     20  O   LIG A   1      -3.210   6.830 131.407  0.00  0.00    -0.506 OA
ATOM     21  H   LIG A   1      -2.540   6.453 132.003  0.00  0.00    +0.292 HD
ENDBRANCH   1  20
BRANCH  10  22
ATOM     22  O   LIG A   1      -5.802   4.568 134.622  0.00  0.00    -0.506 OA
ATOM     23  H   LIG A   1      -6.545   4.877 135.190  0.00  0.00    +0.292 HD
ENDBRANCH  10  22
TORSDOF 4
ENDMDL
MODEL 7
REMARK VINA RESULT:      -6.5      8.659      9.200
REMARK  Name = NuBBE_1206
REMARK  5 active torsions:
REMARK  status: ('A' for Active; 'I' for Inactive)
REMARK    1  A    between atoms: O_1  and  C_2
REMARK    2  A    between atoms: C_6  and  C_7
REMARK    3  A    between atoms: C_10  and  O_13
REMARK    4  A    between atoms: O_13  and  C_14
REMARK    5  A    between atoms: C_19  and  O_20
REMARK                            x       y       z     vdW  Elec       q    Type
REMARK                         _______ _______ _______ _____ _____    ______ ____
ROOT
ATOM      1  C   LIG A   1      -7.717  -2.683 124.197  0.00  0.00    +0.124 A 
ATOM      2  C   LIG A   1      -6.867  -1.756 124.797  0.00  0.00    +0.092 A 
ATOM      3  C   LIG A   1      -7.107  -0.391 124.610  0.00  0.00    +0.146 A 
ATOM      4  O   LIG A   1      -6.242   0.483 125.223  0.00  0.00    -0.454 OA
ATOM      5  C   LIG A   1      -6.443   1.849 125.061  0.00  0.00    +0.139 A 
ATOM      6  C   LIG A   1      -7.448   2.372 124.340  0.00  0.00    +0.098 A 
ATOM      7  C   LIG A   1      -8.394   1.470 123.664  0.00  0.00    +0.197 A 
ATOM      8  O   LIG A   1      -9.322   1.903 122.989  0.00  0.00    -0.287 OA
ATOM      9  C   LIG A   1      -8.182   0.030 123.833  0.00  0.00    +0.105 A 
ATOM     10  C   LIG A   1      -9.029  -0.912 123.238  0.00  0.00    +0.135 A 
ATOM     11  C   LIG A   1      -8.796  -2.271 123.419  0.00  0.00    +0.091 A 
ENDROOT
BRANCH   5  12
ATOM     12  C   LIG A   1      -5.458   2.698 125.772  0.00  0.00    +0.018 A 
ATOM     13  C   LIG A   1      -4.290   2.124 126.301  0.00  0.00    +0.015 A 
ATOM     14  C   LIG A   1      -3.325   2.903 126.955  0.00  0.00    +0.046 A 
ATOM     15  C   LIG A   1      -3.507   4.277 127.092  0.00  0.00    +0.120 A 
ATOM     16  C   LIG A   1      -4.662   4.860 126.574  0.00  0.00    +0.046 A 
ATOM     17  C   LIG A   1      -5.625   4.083 125.918  0.00  0.00    +0.015 A 
BRANCH  15  18
ATOM     18  O   LIG A   1      -2.642   5.145 127.699  0.00  0.00    -0.495 OA
ATOM     19  C   LIG A   1      -3.160   6.423 128.048  0.00  0.00    +0.277 C 
ENDBRANCH  15  18
ENDBRANCH   5  12
BRANCH   1  20
ATOM     20  O   LIG A   1      -7.524  -4.025 124.348  0.00  0.00    -0.506 OA
ATOM     21  H   LIG A   1      -6.917  -4.342 123.658  0.00  0.00    +0.292 HD
ENDBRANCH   1  20
BRANCH  10  22
ATOM     22  O   LIG A   1     -10.103  -0.565 122.464  0.00  0.00    -0.506 OA
ATOM     23  H   LIG A   1     -10.908  -0.981 122.849  0.00  0.00    +0.292 HD
ENDBRANCH  10  22
TORSDOF 4
ENDMDL
MODEL 8
REMARK VINA RESULT:      -6.4      3.651      7.179
REMARK  Name = NuBBE_1206
REMARK  5 active torsions:
REMARK  status: ('A' for Active; 'I' for Inactive)
REMARK    1  A    between atoms: O_1  and  C_2
REMARK    2  A    between atoms: C_6  and  C_7
REMARK    3  A    between atoms: C_10  and  O_13
REMARK    4  A    between atoms: O_13  and  C_14
REMARK    5  A    between atoms: C_19  and  O_20
REMARK                            x       y       z     vdW  Elec       q    Type
REMARK                         _______ _______ _______ _____ _____    ______ ____
ROOT
ATOM      1  C   LIG A   1      -6.011   3.393 128.904  0.00  0.00    +0.124 A 
ATOM      2  C   LIG A   1      -6.885   4.471 128.782  0.00  0.00    +0.092 A 
ATOM      3  C   LIG A   1      -8.130   4.414 129.416  0.00  0.00    +0.146 A 
ATOM      4  O   LIG A   1      -8.956   5.502 129.267  0.00  0.00    -0.454 OA
ATOM      5  C   LIG A   1     -10.204   5.486 129.879  0.00  0.00    +0.139 A 
ATOM      6  C   LIG A   1     -10.653   4.462 130.623  0.00  0.00    +0.098 A 
ATOM      7  C   LIG A   1      -9.802   3.276 130.803  0.00  0.00    +0.197 A 
ATOM      8  O   LIG A   1     -10.175   2.314 131.467  0.00  0.00    -0.287 OA
ATOM      9  C   LIG A   1      -8.487   3.292 130.157  0.00  0.00    +0.105 A 
ATOM     10  C   LIG A   1      -7.599   2.216 130.273  0.00  0.00    +0.135 A 
ATOM     11  C   LIG A   1      -6.358   2.266 129.645  0.00  0.00    +0.091 A 
ENDROOT
BRANCH   5  12
ATOM     12  C   LIG A   1     -11.005   6.713 129.660  0.00  0.00    +0.018 A 
ATOM     13  C   LIG A   1     -10.763   7.518 128.535  0.00  0.00    +0.015 A 
ATOM     14  C   LIG A   1     -11.522   8.670 128.285  0.00  0.00    +0.046 A 
ATOM     15  C   LIG A   1     -12.544   9.041 129.154  0.00  0.00    +0.120 A 
ATOM     16  C   LIG A   1     -12.795   8.253 130.277  0.00  0.00    +0.046 A 
ATOM     17  C   LIG A   1     -12.039   7.100 130.527  0.00  0.00    +0.015 A 
BRANCH  15  18
ATOM     18  O   LIG A   1     -13.357  10.132 129.019  0.00  0.00    -0.495 OA
ATOM     19  C   LIG A   1     -13.464  10.993 130.147  0.00  0.00    +0.277 C 
ENDBRANCH  15  18
ENDBRANCH   5  12
BRANCH   1  20
ATOM     20  O   LIG A   1      -4.787   3.400 128.303  0.00  0.00    -0.506 OA
ATOM     21  H   LIG A   1      -4.545   2.492 128.054  0.00  0.00    +0.292 HD
ENDBRANCH   1  20
BRANCH  10  22
ATOM     22  O   LIG A   1      -7.887   1.085 130.987  0.00  0.00    -0.506 OA
ATOM     23  H   LIG A   1      -7.479   0.316 130.526  0.00  0.00    +0.292 HD
ENDBRANCH  10  22
TORSDOF 4
ENDMDL
MODEL 9
REMARK VINA RESULT:      -6.4     10.360     10.786
REMARK  Name = NuBBE_1206
REMARK  5 active torsions:
REMARK  status: ('A' for Active; 'I' for Inactive)
REMARK    1  A    between atoms: O_1  and  C_2
REMARK    2  A    between atoms: C_6  and  C_7
REMARK    3  A    between atoms: C_10  and  O_13
REMARK    4  A    between atoms: O_13  and  C_14
REMARK    5  A    between atoms: C_19  and  O_20
REMARK                            x       y       z     vdW  Elec       q    Type
REMARK                         _______ _______ _______ _____ _____    ______ ____
ROOT
ATOM      1  C   LIG A   1      -6.925  -1.502 124.444  0.00  0.00    +0.124 A 
ATOM      2  C   LIG A   1      -6.165  -1.669 125.600  0.00  0.00    +0.092 A 
ATOM      3  C   LIG A   1      -6.731  -2.327 126.697  0.00  0.00    +0.146 A 
ATOM      4  O   LIG A   1      -5.941  -2.469 127.813  0.00  0.00    -0.454 OA
ATOM      5  C   LIG A   1      -6.466  -3.115 128.927  0.00  0.00    +0.139 A 
ATOM      6  C   LIG A   1      -7.708  -3.622 128.976  0.00  0.00    +0.098 A 
ATOM      7  C   LIG A   1      -8.587  -3.487 127.804  0.00  0.00    +0.197 A 
ATOM      8  O   LIG A   1      -9.731  -3.928 127.807  0.00  0.00    -0.287 OA
ATOM      9  C   LIG A   1      -8.036  -2.805 126.630  0.00  0.00    +0.105 A 
ATOM     10  C   LIG A   1      -8.787  -2.631 125.461  0.00  0.00    +0.135 A 
ATOM     11  C   LIG A   1      -8.231  -1.978 124.366  0.00  0.00    +0.091 A 
ENDROOT
BRANCH   5  12
ATOM     12  C   LIG A   1      -5.525  -3.219 130.068  0.00  0.00    +0.018 A 
ATOM     13  C   LIG A   1      -5.585  -4.329 130.927  0.00  0.00    +0.015 A 
ATOM     14  C   LIG A   1      -4.692  -4.471 131.998  0.00  0.00    +0.046 A 
ATOM     15  C   LIG A   1      -3.716  -3.507 132.232  0.00  0.00    +0.120 A 
ATOM     16  C   LIG A   1      -3.645  -2.399 131.389  0.00  0.00    +0.046 A 
ATOM     17  C   LIG A   1      -4.535  -2.257 130.317  0.00  0.00    +0.015 A 
BRANCH  15  18
ATOM     18  O   LIG A   1      -2.785  -3.533 133.234  0.00  0.00    -0.495 OA
ATOM     19  C   LIG A   1      -2.750  -4.703 134.043  0.00  0.00    +0.277 C 
ENDBRANCH  15  18
ENDBRANCH   5  12
BRANCH   1  20
ATOM     20  O   LIG A   1      -6.419  -0.865 123.349  0.00  0.00    -0.506 OA
ATOM     21  H   LIG A   1      -6.405  -1.482 122.597  0.00  0.00    +0.292 HD
ENDBRANCH   1  20
BRANCH  10  22
ATOM     22  O   LIG A   1     -10.074  -3.078 125.329  0.00  0.00    -0.506 OA
ATOM     23  H   LIG A   1     -10.183  -3.440 124.420  0.00  0.00    +0.292 HD
ENDBRANCH  10  22
TORSDOF 4
ENDMDL
