MODEL 1
REMARK VINA RESULT:      -6.6      0.000      0.000
REMARK  Name = NuBBE_1625
REMARK  13 active torsions:
REMARK  status: ('A' for Active; 'I' for Inactive)
REMARK    1  A    between atoms: O_1  and  C_2
REMARK    2  A    between atoms: O_1  and  C_3
REMARK    3  A    between atoms: C_7  and  C_11
REMARK    4  A    between atoms: C_13  and  O_14
REMARK    5  A    between atoms: O_14  and  C_15
REMARK    6  A    between atoms: C_16  and  O_21
REMARK    7  A    between atoms: C_17  and  O_19
REMARK    8  A    between atoms: O_19  and  C_20
REMARK    9  A    between atoms: O_21  and  C_22
REMARK   10  A    between atoms: C_24  and  O_28
REMARK   11  A    between atoms: C_25  and  O_26
REMARK   12  A    between atoms: O_26  and  C_27
REMARK   13  A    between atoms: O_28  and  C_29
REMARK                            x       y       z     vdW  Elec       q    Type
REMARK                         _______ _______ _______ _____ _____    ______ ____
ROOT
ATOM      1  C   LIG A   1      -9.205  -0.013 124.804  0.00  0.00    +0.179 A 
ATOM      2  C   LIG A   1      -8.812  -0.697 125.981  0.00  0.00    +0.104 A 
ATOM      3  C   LIG A   1      -8.228  -0.006 127.015  0.00  0.00    +0.139 A 
ATOM      4  O   LIG A   1      -7.739  -0.582 128.167  0.00  0.00    -0.483 OA
ATOM      5  C   LIG A   1      -8.006  -1.986 128.358  0.00  0.00    +0.211 C 
ATOM      6  C   LIG A   1      -7.919  -2.763 127.060  0.00  0.00    +0.129 C 
ATOM      7  C   LIG A   1      -8.962  -2.149 126.151  0.00  0.00    +0.174 C 
ATOM      8  O   LIG A   1      -9.859  -2.783 125.665  0.00  0.00    -0.292 OA
ATOM      9  C   LIG A   1      -8.085   1.376 126.976  0.00  0.00    +0.096 A 
ATOM     10  C   LIG A   1      -8.554   2.099 125.875  0.00  0.00    +0.169 A 
ATOM     11  C   LIG A   1      -9.073   1.408 124.755  0.00  0.00    +0.204 A 
ENDROOT
BRANCH   5  12
ATOM     12  C   LIG A   1      -6.984  -2.493 129.360  0.00  0.00    +0.000 A 
ATOM     13  C   LIG A   1      -5.619  -2.557 129.061  0.00  0.00    +0.057 A 
ATOM     14  C   LIG A   1      -4.676  -2.937 130.030  0.00  0.00    +0.166 A 
ATOM     15  C   LIG A   1      -5.098  -3.324 131.321  0.00  0.00    +0.203 A 
ATOM     16  C   LIG A   1      -6.477  -3.335 131.609  0.00  0.00    +0.166 A 
ATOM     17  C   LIG A   1      -7.389  -2.873 130.647  0.00  0.00    +0.057 A 
BRANCH  14  18
ATOM     18  O   LIG A   1      -3.394  -2.841 129.541  0.00  0.00    -0.491 OA
ATOM     19  C   LIG A   1      -2.843  -3.920 128.799  0.00  0.00    +0.277 C 
ENDBRANCH  14  18
BRANCH  16  20
ATOM     20  O   LIG A   1      -6.925  -3.708 132.857  0.00  0.00    -0.491 OA
ATOM     21  C   LIG A   1      -7.785  -2.736 133.466  0.00  0.00    +0.277 C 
ENDBRANCH  16  20
BRANCH  15  22
ATOM     22  O   LIG A   1      -4.104  -3.576 132.221  0.00  0.00    -0.488 OA
ATOM     23  C   LIG A   1      -3.602  -2.555 133.062  0.00  0.00    +0.277 C 
ENDBRANCH  15  22
ENDBRANCH   5  12
BRANCH   1  24
ATOM     24  O   LIG A   1      -9.708  -0.796 123.802  0.00  0.00    -0.490 OA
ATOM     25  C   LIG A   1      -8.838  -1.267 122.782  0.00  0.00    +0.277 C 
ENDBRANCH   1  24
BRANCH  11  26
ATOM     26  O   LIG A   1      -9.540   2.017 123.614  0.00  0.00    -0.488 OA
ATOM     27  C   LIG A   1      -8.576   2.455 122.663  0.00  0.00    +0.277 C 
ENDBRANCH  11  26
BRANCH  10  28
ATOM     28  O   LIG A   1      -8.553   3.475 125.865  0.00  0.00    -0.491 OA
ATOM     29  C   LIG A   1      -7.305   4.146 125.708  0.00  0.00    +0.277 C 
ENDBRANCH  10  28
TORSDOF 7
ENDMDL
MODEL 2
REMARK VINA RESULT:      -6.6      0.218      2.393
REMARK  Name = NuBBE_1625
REMARK  13 active torsions:
REMARK  status: ('A' for Active; 'I' for Inactive)
REMARK    1  A    between atoms: O_1  and  C_2
REMARK    2  A    between atoms: O_1  and  C_3
REMARK    3  A    between atoms: C_7  and  C_11
REMARK    4  A    between atoms: C_13  and  O_14
REMARK    5  A    between atoms: O_14  and  C_15
REMARK    6  A    between atoms: C_16  and  O_21
REMARK    7  A    between atoms: C_17  and  O_19
REMARK    8  A    between atoms: O_19  and  C_20
REMARK    9  A    between atoms: O_21  and  C_22
REMARK   10  A    between atoms: C_24  and  O_28
REMARK   11  A    between atoms: C_25  and  O_26
REMARK   12  A    between atoms: O_26  and  C_27
REMARK   13  A    between atoms: O_28  and  C_29
REMARK                            x       y       z     vdW  Elec       q    Type
REMARK                         _______ _______ _______ _____ _____    ______ ____
ROOT
ATOM      1  C   LIG A   1      -9.210  -0.008 124.672  0.00  0.00    +0.179 A 
ATOM      2  C   LIG A   1      -8.820  -0.633 125.882  0.00  0.00    +0.104 A 
ATOM      3  C   LIG A   1      -8.291   0.117 126.905  0.00  0.00    +0.139 A 
ATOM      4  O   LIG A   1      -7.809  -0.397 128.088  0.00  0.00    -0.483 OA
ATOM      5  C   LIG A   1      -8.024  -1.803 128.324  0.00  0.00    +0.211 C 
ATOM      6  C   LIG A   1      -7.873  -2.621 127.057  0.00  0.00    +0.129 C 
ATOM      7  C   LIG A   1      -8.916  -2.083 126.101  0.00  0.00    +0.174 C 
ATOM      8  O   LIG A   1      -9.773  -2.771 125.617  0.00  0.00    -0.292 OA
ATOM      9  C   LIG A   1      -8.203   1.502 126.819  0.00  0.00    +0.096 A 
ATOM     10  C   LIG A   1      -8.672   2.166 125.681  0.00  0.00    +0.169 A 
ATOM     11  C   LIG A   1      -9.134   1.415 124.574  0.00  0.00    +0.204 A 
ENDROOT
BRANCH   5  12
ATOM     12  C   LIG A   1      -7.009  -2.232 129.368  0.00  0.00    +0.000 A 
ATOM     13  C   LIG A   1      -7.390  -2.644 130.649  0.00  0.00    +0.057 A 
ATOM     14  C   LIG A   1      -6.447  -3.129 131.570  0.00  0.00    +0.166 A 
ATOM     15  C   LIG A   1      -5.074  -3.152 131.239  0.00  0.00    +0.203 A 
ATOM     16  C   LIG A   1      -4.672  -2.667 129.979  0.00  0.00    +0.166 A 
ATOM     17  C   LIG A   1      -5.645  -2.265 129.049  0.00  0.00    +0.057 A 
BRANCH  14  18
ATOM     18  O   LIG A   1      -7.057  -3.561 132.725  0.00  0.00    -0.491 OA
ATOM     19  C   LIG A   1      -7.625  -2.611 133.616  0.00  0.00    +0.277 C 
ENDBRANCH  14  18
BRANCH  16  20
ATOM     20  O   LIG A   1      -3.342  -2.673 129.622  0.00  0.00    -0.491 OA
ATOM     21  C   LIG A   1      -2.952  -3.848 128.900  0.00  0.00    +0.277 C 
ENDBRANCH  16  20
BRANCH  15  22
ATOM     22  O   LIG A   1      -4.250  -3.735 132.157  0.00  0.00    -0.488 OA
ATOM     23  C   LIG A   1      -3.612  -2.966 133.159  0.00  0.00    +0.277 C 
ENDBRANCH  15  22
ENDBRANCH   5  12
BRANCH   1  24
ATOM     24  O   LIG A   1      -9.655  -0.846 123.687  0.00  0.00    -0.490 OA
ATOM     25  C   LIG A   1      -8.740  -1.317 122.707  0.00  0.00    +0.277 C 
ENDBRANCH   1  24
BRANCH  11  26
ATOM     26  O   LIG A   1      -9.596   1.963 123.401  0.00  0.00    -0.488 OA
ATOM     27  C   LIG A   1      -8.632   2.524 122.516  0.00  0.00    +0.277 C 
ENDBRANCH  11  26
BRANCH  10  28
ATOM     28  O   LIG A   1      -8.726   3.540 125.621  0.00  0.00    -0.491 OA
ATOM     29  C   LIG A   1      -7.502   4.265 125.684  0.00  0.00    +0.277 C 
ENDBRANCH  10  28
TORSDOF 7
ENDMDL
MODEL 3
REMARK VINA RESULT:      -6.4      4.381      8.730
REMARK  Name = NuBBE_1625
REMARK  13 active torsions:
REMARK  status: ('A' for Active; 'I' for Inactive)
REMARK    1  A    between atoms: O_1  and  C_2
REMARK    2  A    between atoms: O_1  and  C_3
REMARK    3  A    between atoms: C_7  and  C_11
REMARK    4  A    between atoms: C_13  and  O_14
REMARK    5  A    between atoms: O_14  and  C_15
REMARK    6  A    between atoms: C_16  and  O_21
REMARK    7  A    between atoms: C_17  and  O_19
REMARK    8  A    between atoms: O_19  and  C_20
REMARK    9  A    between atoms: O_21  and  C_22
REMARK   10  A    between atoms: C_24  and  O_28
REMARK   11  A    between atoms: C_25  and  O_26
REMARK   12  A    between atoms: O_26  and  C_27
REMARK   13  A    between atoms: O_28  and  C_29
REMARK                            x       y       z     vdW  Elec       q    Type
REMARK                         _______ _______ _______ _____ _____    ______ ____
ROOT
ATOM      1  C   LIG A   1      -6.831   4.767 131.007  0.00  0.00    +0.179 A 
ATOM      2  C   LIG A   1      -7.023   4.335 129.672  0.00  0.00    +0.104 A 
ATOM      3  C   LIG A   1      -8.198   4.618 129.018  0.00  0.00    +0.139 A 
ATOM      4  O   LIG A   1      -8.518   4.181 127.753  0.00  0.00    -0.483 OA
ATOM      5  C   LIG A   1      -7.478   3.512 127.011  0.00  0.00    +0.211 C 
ATOM      6  C   LIG A   1      -6.630   2.623 127.898  0.00  0.00    +0.129 C 
ATOM      7  C   LIG A   1      -6.026   3.546 128.935  0.00  0.00    +0.174 C 
ATOM      8  O   LIG A   1      -4.841   3.660 129.095  0.00  0.00    -0.292 OA
ATOM      9  C   LIG A   1      -9.185   5.400 129.607  0.00  0.00    +0.096 A 
ATOM     10  C   LIG A   1      -8.991   5.932 130.886  0.00  0.00    +0.169 A 
ATOM     11  C   LIG A   1      -7.834   5.579 131.620  0.00  0.00    +0.204 A 
ENDROOT
BRANCH   5  12
ATOM     12  C   LIG A   1      -8.166   2.698 125.930  0.00  0.00    +0.000 A 
ATOM     13  C   LIG A   1      -8.712   1.435 126.186  0.00  0.00    +0.057 A 
ATOM     14  C   LIG A   1      -9.429   0.737 125.200  0.00  0.00    +0.166 A 
ATOM     15  C   LIG A   1      -9.562   1.274 123.901  0.00  0.00    +0.203 A 
ATOM     16  C   LIG A   1      -8.951   2.510 123.612  0.00  0.00    +0.166 A 
ATOM     17  C   LIG A   1      -8.311   3.222 124.639  0.00  0.00    +0.057 A 
BRANCH  14  18
ATOM     18  O   LIG A   1      -9.949  -0.434 125.700  0.00  0.00    -0.491 OA
ATOM     19  C   LIG A   1      -9.117  -1.581 125.810  0.00  0.00    +0.277 C 
ENDBRANCH  14  18
BRANCH  16  20
ATOM     20  O   LIG A   1      -9.059   3.064 122.356  0.00  0.00    -0.491 OA
ATOM     21  C   LIG A   1      -7.794   3.387 121.765  0.00  0.00    +0.277 C 
ENDBRANCH  16  20
BRANCH  15  22
ATOM     22  O   LIG A   1     -10.361   0.572 123.046  0.00  0.00    -0.488 OA
ATOM     23  C   LIG A   1      -9.845  -0.490 122.268  0.00  0.00    +0.277 C 
ENDBRANCH  15  22
ENDBRANCH   5  12
BRANCH   1  24
ATOM     24  O   LIG A   1      -5.662   4.373 131.597  0.00  0.00    -0.490 OA
ATOM     25  C   LIG A   1      -5.654   3.217 132.423  0.00  0.00    +0.277 C 
ENDBRANCH   1  24
BRANCH  11  26
ATOM     26  O   LIG A   1      -7.553   6.025 132.890  0.00  0.00    -0.488 OA
ATOM     27  C   LIG A   1      -8.180   5.351 133.975  0.00  0.00    +0.277 C 
ENDBRANCH  11  26
BRANCH  10  28
ATOM     28  O   LIG A   1      -9.885   6.819 131.440  0.00  0.00    -0.491 OA
ATOM     29  C   LIG A   1     -11.177   6.337 131.799  0.00  0.00    +0.277 C 
ENDBRANCH  10  28
TORSDOF 7
ENDMDL
MODEL 4
REMARK VINA RESULT:      -6.3      4.423      7.196
REMARK  Name = NuBBE_1625
REMARK  13 active torsions:
REMARK  status: ('A' for Active; 'I' for Inactive)
REMARK    1  A    between atoms: O_1  and  C_2
REMARK    2  A    between atoms: O_1  and  C_3
REMARK    3  A    between atoms: C_7  and  C_11
REMARK    4  A    between atoms: C_13  and  O_14
REMARK    5  A    between atoms: O_14  and  C_15
REMARK    6  A    between atoms: C_16  and  O_21
REMARK    7  A    between atoms: C_17  and  O_19
REMARK    8  A    between atoms: O_19  and  C_20
REMARK    9  A    between atoms: O_21  and  C_22
REMARK   10  A    between atoms: C_24  and  O_28
REMARK   11  A    between atoms: C_25  and  O_26
REMARK   12  A    between atoms: O_26  and  C_27
REMARK   13  A    between atoms: O_28  and  C_29
REMARK                            x       y       z     vdW  Elec       q    Type
REMARK                         _______ _______ _______ _____ _____    ______ ____
ROOT
ATOM      1  C   LIG A   1      -7.578   1.348 124.437  0.00  0.00    +0.179 A 
ATOM      2  C   LIG A   1      -7.579   2.030 125.679  0.00  0.00    +0.104 A 
ATOM      3  C   LIG A   1      -8.398   1.605 126.697  0.00  0.00    +0.139 A 
ATOM      4  O   LIG A   1      -8.534   2.240 127.911  0.00  0.00    -0.483 OA
ATOM      5  C   LIG A   1      -7.634   3.333 128.181  0.00  0.00    +0.211 C 
ATOM      6  C   LIG A   1      -7.371   4.170 126.945  0.00  0.00    +0.129 C 
ATOM      7  C   LIG A   1      -6.759   3.222 125.937  0.00  0.00    +0.174 C 
ATOM      8  O   LIG A   1      -5.680   3.403 125.443  0.00  0.00    -0.292 OA
ATOM      9  C   LIG A   1      -9.176   0.460 126.573  0.00  0.00    +0.096 A 
ATOM     10  C   LIG A   1      -9.125  -0.300 125.400  0.00  0.00    +0.169 A 
ATOM     11  C   LIG A   1      -8.365   0.164 124.300  0.00  0.00    +0.204 A 
ENDROOT
BRANCH   5  12
ATOM     12  C   LIG A   1      -8.276   4.169 129.274  0.00  0.00    +0.000 A 
ATOM     13  C   LIG A   1      -8.524   5.537 129.113  0.00  0.00    +0.057 A 
ATOM     14  C   LIG A   1      -9.205   6.275 130.095  0.00  0.00    +0.166 A 
ATOM     15  C   LIG A   1      -9.603   5.658 131.302  0.00  0.00    +0.203 A 
ATOM     16  C   LIG A   1      -9.291   4.300 131.504  0.00  0.00    +0.166 A 
ATOM     17  C   LIG A   1      -8.682   3.568 130.473  0.00  0.00    +0.057 A 
BRANCH  14  18
ATOM     18  O   LIG A   1      -9.416   7.571 129.685  0.00  0.00    -0.491 OA
ATOM     19  C   LIG A   1     -10.413   7.847 128.712  0.00  0.00    +0.277 C 
ENDBRANCH  14  18
BRANCH  16  20
ATOM     20  O   LIG A   1      -9.663   3.665 132.669  0.00  0.00    -0.491 OA
ATOM     21  C   LIG A   1      -8.553   3.166 133.425  0.00  0.00    +0.277 C 
ENDBRANCH  16  20
BRANCH  15  22
ATOM     22  O   LIG A   1     -10.348   6.429 132.146  0.00  0.00    -0.488 OA
ATOM     23  C   LIG A   1     -11.744   6.572 131.967  0.00  0.00    +0.277 C 
ENDBRANCH  15  22
ENDBRANCH   5  12
BRANCH   1  24
ATOM     24  O   LIG A   1      -6.786   1.889 123.462  0.00  0.00    -0.490 OA
ATOM     25  C   LIG A   1      -7.363   2.762 122.501  0.00  0.00    +0.277 C 
ENDBRANCH   1  24
BRANCH  11  26
ATOM     26  O   LIG A   1      -8.263  -0.491 123.095  0.00  0.00    -0.488 OA
ATOM     27  C   LIG A   1      -7.244  -1.477 122.969  0.00  0.00    +0.277 C 
ENDBRANCH  11  26
BRANCH  10  28
ATOM     28  O   LIG A   1      -9.775  -1.508 125.297  0.00  0.00    -0.491 OA
ATOM     29  C   LIG A   1      -9.223  -2.629 125.983  0.00  0.00    +0.277 C 
ENDBRANCH  10  28
TORSDOF 7
ENDMDL
MODEL 5
REMARK VINA RESULT:      -6.2      8.311     11.490
REMARK  Name = NuBBE_1625
REMARK  13 active torsions:
REMARK  status: ('A' for Active; 'I' for Inactive)
REMARK    1  A    between atoms: O_1  and  C_2
REMARK    2  A    between atoms: O_1  and  C_3
REMARK    3  A    between atoms: C_7  and  C_11
REMARK    4  A    between atoms: C_13  and  O_14
REMARK    5  A    between atoms: O_14  and  C_15
REMARK    6  A    between atoms: C_16  and  O_21
REMARK    7  A    between atoms: C_17  and  O_19
REMARK    8  A    between atoms: O_19  and  C_20
REMARK    9  A    between atoms: O_21  and  C_22
REMARK   10  A    between atoms: C_24  and  O_28
REMARK   11  A    between atoms: C_25  and  O_26
REMARK   12  A    between atoms: O_26  and  C_27
REMARK   13  A    between atoms: O_28  and  C_29
REMARK                            x       y       z     vdW  Elec       q    Type
REMARK                         _______ _______ _______ _____ _____    ______ ____
ROOT
ATOM      1  C   LIG A   1      -4.841   5.779 133.102  0.00  0.00    +0.179 A 
ATOM      2  C   LIG A   1      -6.087   5.846 132.430  0.00  0.00    +0.104 A 
ATOM      3  C   LIG A   1      -6.178   6.469 131.209  0.00  0.00    +0.139 A 
ATOM      4  O   LIG A   1      -7.349   6.659 130.510  0.00  0.00    -0.483 OA
ATOM      5  C   LIG A   1      -8.531   6.018 131.030  0.00  0.00    +0.211 C 
ATOM      6  C   LIG A   1      -8.572   6.047 132.545  0.00  0.00    +0.129 C 
ATOM      7  C   LIG A   1      -7.331   5.308 132.997  0.00  0.00    +0.174 C 
ATOM      8  O   LIG A   1      -7.371   4.338 133.705  0.00  0.00    -0.292 OA
ATOM      9  C   LIG A   1      -5.053   6.968 130.563  0.00  0.00    +0.096 A 
ATOM     10  C   LIG A   1      -3.789   6.829 131.146  0.00  0.00    +0.169 A 
ATOM     11  C   LIG A   1      -3.675   6.279 132.444  0.00  0.00    +0.204 A 
ENDROOT
BRANCH   5  12
ATOM     12  C   LIG A   1      -9.722   6.754 130.443  0.00  0.00    +0.000 A 
ATOM     13  C   LIG A   1      -9.663   7.388 129.198  0.00  0.00    +0.057 A 
ATOM     14  C   LIG A   1     -10.801   7.981 128.627  0.00  0.00    +0.166 A 
ATOM     15  C   LIG A   1     -12.024   8.003 129.333  0.00  0.00    +0.203 A 
ATOM     16  C   LIG A   1     -12.073   7.434 130.621  0.00  0.00    +0.166 A 
ATOM     17  C   LIG A   1     -10.943   6.777 131.131  0.00  0.00    +0.057 A 
BRANCH  14  18
ATOM     18  O   LIG A   1     -10.532   8.460 127.366  0.00  0.00    -0.491 OA
ATOM     19  C   LIG A   1     -10.885   7.684 126.230  0.00  0.00    +0.277 C 
ENDBRANCH  14  18
BRANCH  16  20
ATOM     20  O   LIG A   1     -13.248   7.438 131.340  0.00  0.00    -0.491 OA
ATOM     21  C   LIG A   1     -13.250   8.375 132.424  0.00  0.00    +0.277 C 
ENDBRANCH  16  20
BRANCH  15  22
ATOM     22  O   LIG A   1     -13.094   8.509 128.655  0.00  0.00    -0.488 OA
ATOM     23  C   LIG A   1     -13.487   9.859 128.809  0.00  0.00    +0.277 C 
ENDBRANCH  15  22
ENDBRANCH   5  12
BRANCH   1  24
ATOM     24  O   LIG A   1      -4.865   5.207 134.343  0.00  0.00    -0.490 OA
ATOM     25  C   LIG A   1      -4.867   6.040 135.494  0.00  0.00    +0.277 C 
ENDBRANCH   1  24
BRANCH  11  26
ATOM     26  O   LIG A   1      -2.488   6.117 133.118  0.00  0.00    -0.488 OA
ATOM     27  C   LIG A   1      -1.710   4.967 132.807  0.00  0.00    +0.277 C 
ENDBRANCH  11  26
BRANCH  10  28
ATOM     28  O   LIG A   1      -2.644   7.188 130.473  0.00  0.00    -0.491 OA
ATOM     29  C   LIG A   1      -2.390   6.586 129.206  0.00  0.00    +0.277 C 
ENDBRANCH  10  28
TORSDOF 7
ENDMDL
MODEL 6
REMARK VINA RESULT:      -6.2      4.198      6.220
REMARK  Name = NuBBE_1625
REMARK  13 active torsions:
REMARK  status: ('A' for Active; 'I' for Inactive)
REMARK    1  A    between atoms: O_1  and  C_2
REMARK    2  A    between atoms: O_1  and  C_3
REMARK    3  A    between atoms: C_7  and  C_11
REMARK    4  A    between atoms: C_13  and  O_14
REMARK    5  A    between atoms: O_14  and  C_15
REMARK    6  A    between atoms: C_16  and  O_21
REMARK    7  A    between atoms: C_17  and  O_19
REMARK    8  A    between atoms: O_19  and  C_20
REMARK    9  A    between atoms: O_21  and  C_22
REMARK   10  A    between atoms: C_24  and  O_28
REMARK   11  A    between atoms: C_25  and  O_26
REMARK   12  A    between atoms: O_26  and  C_27
REMARK   13  A    between atoms: O_28  and  C_29
REMARK                            x       y       z     vdW  Elec       q    Type
REMARK                         _______ _______ _______ _____ _____    ______ ____
ROOT
ATOM      1  C   LIG A   1      -7.489   0.053 123.817  0.00  0.00    +0.179 A 
ATOM      2  C   LIG A   1      -6.615   0.866 124.581  0.00  0.00    +0.104 A 
ATOM      3  C   LIG A   1      -5.669   0.287 125.392  0.00  0.00    +0.139 A 
ATOM      4  O   LIG A   1      -4.826   0.979 126.232  0.00  0.00    -0.483 OA
ATOM      5  C   LIG A   1      -4.836   2.417 126.128  0.00  0.00    +0.211 C 
ATOM      6  C   LIG A   1      -6.231   2.958 125.887  0.00  0.00    +0.129 C 
ATOM      7  C   LIG A   1      -6.687   2.334 124.586  0.00  0.00    +0.174 C 
ATOM      8  O   LIG A   1      -7.020   2.983 123.632  0.00  0.00    -0.292 OA
ATOM      9  C   LIG A   1      -5.485  -1.090 125.424  0.00  0.00    +0.096 A 
ATOM     10  C   LIG A   1      -6.259  -1.921 124.607  0.00  0.00    +0.169 A 
ATOM     11  C   LIG A   1      -7.304  -1.363 123.833  0.00  0.00    +0.204 A 
ENDROOT
BRANCH   5  12
ATOM     12  C   LIG A   1      -4.266   2.954 127.429  0.00  0.00    +0.000 A 
ATOM     13  C   LIG A   1      -3.401   4.052 127.464  0.00  0.00    +0.057 A 
ATOM     14  C   LIG A   1      -2.960   4.595 128.681  0.00  0.00    +0.166 A 
ATOM     15  C   LIG A   1      -3.336   4.000 129.905  0.00  0.00    +0.203 A 
ATOM     16  C   LIG A   1      -4.146   2.848 129.878  0.00  0.00    +0.166 A 
ATOM     17  C   LIG A   1      -4.638   2.376 128.651  0.00  0.00    +0.057 A 
BRANCH  14  18
ATOM     18  O   LIG A   1      -2.195   5.720 128.475  0.00  0.00    -0.491 OA
ATOM     19  C   LIG A   1      -2.827   6.945 128.130  0.00  0.00    +0.277 C 
ENDBRANCH  14  18
BRANCH  16  20
ATOM     20  O   LIG A   1      -4.532   2.240 131.052  0.00  0.00    -0.491 OA
ATOM     21  C   LIG A   1      -5.922   1.892 131.083  0.00  0.00    +0.277 C 
ENDBRANCH  16  20
BRANCH  15  22
ATOM     22  O   LIG A   1      -2.943   4.660 131.033  0.00  0.00    -0.488 OA
ATOM     23  C   LIG A   1      -3.776   5.628 131.642  0.00  0.00    +0.277 C 
ENDBRANCH  15  22
ENDBRANCH   5  12
BRANCH   1  24
ATOM     24  O   LIG A   1      -8.444   0.719 123.099  0.00  0.00    -0.490 OA
ATOM     25  C   LIG A   1      -9.756   0.842 123.631  0.00  0.00    +0.277 C 
ENDBRANCH   1  24
BRANCH  11  26
ATOM     26  O   LIG A   1      -8.137  -2.088 123.015  0.00  0.00    -0.488 OA
ATOM     27  C   LIG A   1      -9.201  -2.805 123.632  0.00  0.00    +0.277 C 
ENDBRANCH  11  26
BRANCH  10  28
ATOM     28  O   LIG A   1      -6.010  -3.271 124.512  0.00  0.00    -0.491 OA
ATOM     29  C   LIG A   1      -4.867  -3.695 123.773  0.00  0.00    +0.277 C 
ENDBRANCH  10  28
TORSDOF 7
ENDMDL
MODEL 7
REMARK VINA RESULT:      -6.1      4.154      6.563
REMARK  Name = NuBBE_1625
REMARK  13 active torsions:
REMARK  status: ('A' for Active; 'I' for Inactive)
REMARK    1  A    between atoms: O_1  and  C_2
REMARK    2  A    between atoms: O_1  and  C_3
REMARK    3  A    between atoms: C_7  and  C_11
REMARK    4  A    between atoms: C_13  and  O_14
REMARK    5  A    between atoms: O_14  and  C_15
REMARK    6  A    between atoms: C_16  and  O_21
REMARK    7  A    between atoms: C_17  and  O_19
REMARK    8  A    between atoms: O_19  and  C_20
REMARK    9  A    between atoms: O_21  and  C_22
REMARK   10  A    between atoms: C_24  and  O_28
REMARK   11  A    between atoms: C_25  and  O_26
REMARK   12  A    between atoms: O_26  and  C_27
REMARK   13  A    between atoms: O_28  and  C_29
REMARK                            x       y       z     vdW  Elec       q    Type
REMARK                         _______ _______ _______ _____ _____    ______ ____
ROOT
ATOM      1  C   LIG A   1      -7.608  -0.006 123.694  0.00  0.00    +0.179 A 
ATOM      2  C   LIG A   1      -6.767   0.851 124.445  0.00  0.00    +0.104 A 
ATOM      3  C   LIG A   1      -5.829   0.321 125.299  0.00  0.00    +0.139 A 
ATOM      4  O   LIG A   1      -5.018   1.060 126.130  0.00  0.00    -0.483 OA
ATOM      5  C   LIG A   1      -5.053   2.493 125.972  0.00  0.00    +0.211 C 
ATOM      6  C   LIG A   1      -6.451   2.998 125.679  0.00  0.00    +0.129 C 
ATOM      7  C   LIG A   1      -6.866   2.316 124.393  0.00  0.00    +0.174 C 
ATOM      8  O   LIG A   1      -7.188   2.923 123.408  0.00  0.00    -0.292 OA
ATOM      9  C   LIG A   1      -5.621  -1.050 125.386  0.00  0.00    +0.096 A 
ATOM     10  C   LIG A   1      -6.360  -1.926 124.585  0.00  0.00    +0.169 A 
ATOM     11  C   LIG A   1      -7.397  -1.418 123.768  0.00  0.00    +0.204 A 
ENDROOT
BRANCH   5  12
ATOM     12  C   LIG A   1      -4.523   3.089 127.264  0.00  0.00    +0.000 A 
ATOM     13  C   LIG A   1      -4.881   2.582 128.518  0.00  0.00    +0.057 A 
ATOM     14  C   LIG A   1      -4.307   3.083 129.698  0.00  0.00    +0.166 A 
ATOM     15  C   LIG A   1      -3.395   4.160 129.646  0.00  0.00    +0.203 A 
ATOM     16  C   LIG A   1      -3.087   4.727 128.394  0.00  0.00    +0.166 A 
ATOM     17  C   LIG A   1      -3.612   4.153 127.225  0.00  0.00    +0.057 A 
BRANCH  14  18
ATOM     18  O   LIG A   1      -4.737   2.376 130.797  0.00  0.00    -0.491 OA
ATOM     19  C   LIG A   1      -5.969   2.721 131.416  0.00  0.00    +0.277 C 
ENDBRANCH  14  18
BRANCH  16  20
ATOM     20  O   LIG A   1      -2.201   5.778 128.305  0.00  0.00    -0.491 OA
ATOM     21  C   LIG A   1      -2.841   7.060 128.275  0.00  0.00    +0.277 C 
ENDBRANCH  16  20
BRANCH  15  22
ATOM     22  O   LIG A   1      -2.816   4.506 130.831  0.00  0.00    -0.488 OA
ATOM     23  C   LIG A   1      -3.382   5.503 131.659  0.00  0.00    +0.277 C 
ENDBRANCH  15  22
ENDBRANCH   5  12
BRANCH   1  24
ATOM     24  O   LIG A   1      -8.558   0.613 122.930  0.00  0.00    -0.490 OA
ATOM     25  C   LIG A   1      -9.872   0.771 123.446  0.00  0.00    +0.277 C 
ENDBRANCH   1  24
BRANCH  11  26
ATOM     26  O   LIG A   1      -8.198  -2.189 122.959  0.00  0.00    -0.488 OA
ATOM     27  C   LIG A   1      -9.255  -2.911 123.581  0.00  0.00    +0.277 C 
ENDBRANCH  11  26
BRANCH  10  28
ATOM     28  O   LIG A   1      -6.083  -3.273 124.547  0.00  0.00    -0.491 OA
ATOM     29  C   LIG A   1      -4.874  -3.695 123.922  0.00  0.00    +0.277 C 
ENDBRANCH  10  28
TORSDOF 7
ENDMDL
MODEL 8
REMARK VINA RESULT:      -6.1      3.786      7.256
REMARK  Name = NuBBE_1625
REMARK  13 active torsions:
REMARK  status: ('A' for Active; 'I' for Inactive)
REMARK    1  A    between atoms: O_1  and  C_2
REMARK    2  A    between atoms: O_1  and  C_3
REMARK    3  A    between atoms: C_7  and  C_11
REMARK    4  A    between atoms: C_13  and  O_14
REMARK    5  A    between atoms: O_14  and  C_15
REMARK    6  A    between atoms: C_16  and  O_21
REMARK    7  A    between atoms: C_17  and  O_19
REMARK    8  A    between atoms: O_19  and  C_20
REMARK    9  A    between atoms: O_21  and  C_22
REMARK   10  A    between atoms: C_24  and  O_28
REMARK   11  A    between atoms: C_25  and  O_26
REMARK   12  A    between atoms: O_26  and  C_27
REMARK   13  A    between atoms: O_28  and  C_29
REMARK                            x       y       z     vdW  Elec       q    Type
REMARK                         _______ _______ _______ _____ _____    ______ ____
ROOT
ATOM      1  C   LIG A   1      -6.874   5.061 129.955  0.00  0.00    +0.179 A 
ATOM      2  C   LIG A   1      -7.286   4.101 128.997  0.00  0.00    +0.104 A 
ATOM      3  C   LIG A   1      -8.302   3.224 129.293  0.00  0.00    +0.139 A 
ATOM      4  O   LIG A   1      -8.725   2.206 128.469  0.00  0.00    -0.483 OA
ATOM      5  C   LIG A   1      -8.165   2.166 127.141  0.00  0.00    +0.211 C 
ATOM      6  C   LIG A   1      -6.699   2.550 127.132  0.00  0.00    +0.129 C 
ATOM      7  C   LIG A   1      -6.647   3.960 127.681  0.00  0.00    +0.174 C 
ATOM      8  O   LIG A   1      -6.180   4.881 127.070  0.00  0.00    -0.292 OA
ATOM      9  C   LIG A   1      -9.004   3.305 130.490  0.00  0.00    +0.096 A 
ATOM     10  C   LIG A   1      -8.696   4.304 131.419  0.00  0.00    +0.169 A 
ATOM     11  C   LIG A   1      -7.595   5.160 131.184  0.00  0.00    +0.204 A 
ENDROOT
BRANCH   5  12
ATOM     12  C   LIG A   1      -8.355   0.749 126.629  0.00  0.00    +0.000 A 
ATOM     13  C   LIG A   1      -8.982   0.478 125.408  0.00  0.00    +0.057 A 
ATOM     14  C   LIG A   1      -9.063  -0.831 124.905  0.00  0.00    +0.166 A 
ATOM     15  C   LIG A   1      -8.563  -1.916 125.657  0.00  0.00    +0.203 A 
ATOM     16  C   LIG A   1      -7.998  -1.662 126.922  0.00  0.00    +0.166 A 
ATOM     17  C   LIG A   1      -7.857  -0.336 127.363  0.00  0.00    +0.057 A 
BRANCH  14  18
ATOM     18  O   LIG A   1      -9.636  -0.847 123.655  0.00  0.00    -0.491 OA
ATOM     19  C   LIG A   1      -9.818   0.373 122.949  0.00  0.00    +0.277 C 
ENDBRANCH  14  18
BRANCH  16  20
ATOM     20  O   LIG A   1      -7.500  -2.696 127.684  0.00  0.00    -0.491 OA
ATOM     21  C   LIG A   1      -8.485  -3.307 128.527  0.00  0.00    +0.277 C 
ENDBRANCH  16  20
BRANCH  15  22
ATOM     22  O   LIG A   1      -8.595  -3.132 125.039  0.00  0.00    -0.488 OA
ATOM     23  C   LIG A   1      -7.453  -3.650 124.383  0.00  0.00    +0.277 C 
ENDBRANCH  15  22
ENDBRANCH   5  12
BRANCH   1  24
ATOM     24  O   LIG A   1      -5.808   5.838 129.597  0.00  0.00    -0.490 OA
ATOM     25  C   LIG A   1      -4.506   5.481 130.039  0.00  0.00    +0.277 C 
ENDBRANCH   1  24
BRANCH  11  26
ATOM     26  O   LIG A   1      -7.191   6.159 132.039  0.00  0.00    -0.488 OA
ATOM     27  C   LIG A   1      -6.346   5.792 133.123  0.00  0.00    +0.277 C 
ENDBRANCH  11  26
BRANCH  10  28
ATOM     28  O   LIG A   1      -9.460   4.497 132.547  0.00  0.00    -0.491 OA
ATOM     29  C   LIG A   1      -9.272   3.611 133.647  0.00  0.00    +0.277 C 
ENDBRANCH  10  28
TORSDOF 7
ENDMDL
MODEL 9
REMARK VINA RESULT:      -6.1      3.863      7.623
REMARK  Name = NuBBE_1625
REMARK  13 active torsions:
REMARK  status: ('A' for Active; 'I' for Inactive)
REMARK    1  A    between atoms: O_1  and  C_2
REMARK    2  A    between atoms: O_1  and  C_3
REMARK    3  A    between atoms: C_7  and  C_11
REMARK    4  A    between atoms: C_13  and  O_14
REMARK    5  A    between atoms: O_14  and  C_15
REMARK    6  A    between atoms: C_16  and  O_21
REMARK    7  A    between atoms: C_17  and  O_19
REMARK    8  A    between atoms: O_19  and  C_20
REMARK    9  A    between atoms: O_21  and  C_22
REMARK   10  A    between atoms: C_24  and  O_28
REMARK   11  A    between atoms: C_25  and  O_26
REMARK   12  A    between atoms: O_26  and  C_27
REMARK   13  A    between atoms: O_28  and  C_29
REMARK                            x       y       z     vdW  Elec       q    Type
REMARK                         _______ _______ _______ _____ _____    ______ ____
ROOT
ATOM      1  C   LIG A   1      -6.671   5.161 129.993  0.00  0.00    +0.179 A 
ATOM      2  C   LIG A   1      -7.106   4.282 128.971  0.00  0.00    +0.104 A 
ATOM      3  C   LIG A   1      -8.249   3.538 129.143  0.00  0.00    +0.139 A 
ATOM      4  O   LIG A   1      -8.716   2.600 128.250  0.00  0.00    -0.483 OA
ATOM      5  C   LIG A   1      -8.040   2.513 126.980  0.00  0.00    +0.211 C 
ATOM      6  C   LIG A   1      -6.543   2.705 127.120  0.00  0.00    +0.129 C 
ATOM      7  C   LIG A   1      -6.366   4.085 127.717  0.00  0.00    +0.174 C 
ATOM      8  O   LIG A   1      -5.728   4.950 127.181  0.00  0.00    -0.292 OA
ATOM      9  C   LIG A   1      -9.048   3.685 130.270  0.00  0.00    +0.096 A 
ATOM     10  C   LIG A   1      -8.707   4.617 131.256  0.00  0.00    +0.169 A 
ATOM     11  C   LIG A   1      -7.488   5.328 131.153  0.00  0.00    +0.204 A 
ENDROOT
BRANCH   5  12
ATOM     12  C   LIG A   1      -8.357   1.143 126.407  0.00  0.00    +0.000 A 
ATOM     13  C   LIG A   1      -8.062  -0.037 127.098  0.00  0.00    +0.057 A 
ATOM     14  C   LIG A   1      -8.449  -1.291 126.598  0.00  0.00    +0.166 A 
ATOM     15  C   LIG A   1      -9.096  -1.390 125.346  0.00  0.00    +0.203 A 
ATOM     16  C   LIG A   1      -9.329  -0.214 124.608  0.00  0.00    +0.166 A 
ATOM     17  C   LIG A   1      -9.005   1.032 125.169  0.00  0.00    +0.057 A 
BRANCH  14  18
ATOM     18  O   LIG A   1      -8.138  -2.296 127.483  0.00  0.00    -0.491 OA
ATOM     19  C   LIG A   1      -6.990  -2.172 128.311  0.00  0.00    +0.277 C 
ENDBRANCH  14  18
BRANCH  16  20
ATOM     20  O   LIG A   1      -9.956  -0.272 123.383  0.00  0.00    -0.491 OA
ATOM     21  C   LIG A   1      -9.971   0.983 122.690  0.00  0.00    +0.277 C 
ENDBRANCH  16  20
BRANCH  15  22
ATOM     22  O   LIG A   1      -9.523  -2.637 124.995  0.00  0.00    -0.488 OA
ATOM     23  C   LIG A   1      -8.949  -3.327 123.902  0.00  0.00    +0.277 C 
ENDBRANCH  15  22
ENDBRANCH   5  12
BRANCH   1  24
ATOM     24  O   LIG A   1      -5.485   5.801 129.762  0.00  0.00    -0.490 OA
ATOM     25  C   LIG A   1      -4.290   5.278 130.325  0.00  0.00    +0.277 C 
ENDBRANCH   1  24
BRANCH  11  26
ATOM     26  O   LIG A   1      -7.046   6.249 132.073  0.00  0.00    -0.488 OA
ATOM     27  C   LIG A   1      -6.401   5.752 133.240  0.00  0.00    +0.277 C 
ENDBRANCH  11  26
BRANCH  10  28
ATOM     28  O   LIG A   1      -9.546   4.885 132.313  0.00  0.00    -0.491 OA
ATOM     29  C   LIG A   1     -10.478   5.955 132.180  0.00  0.00    +0.277 C 
ENDBRANCH  10  28
TORSDOF 7
ENDMDL
