MODEL 1
REMARK VINA RESULT:      -7.2      0.000      0.000
REMARK  Name = NuBBE_2391
REMARK  10 active torsions:
REMARK  status: ('A' for Active; 'I' for Inactive)
REMARK    1  A    between atoms: C_1  and  C_2
REMARK    2  A    between atoms: C_5  and  C_6
REMARK    3  A    between atoms: C_5  and  C_7
REMARK    4  A    between atoms: C_13  and  C_24
REMARK    5  A    between atoms: C_14  and  C_16
REMARK    6  A    between atoms: C_16  and  C_17
REMARK    7  A    between atoms: C_17  and  C_18
REMARK    8  A    between atoms: C_18  and  C_23
REMARK    9  A    between atoms: C_19  and  C_20
REMARK   10  A    between atoms: C_20  and  O_22
REMARK                            x       y       z     vdW  Elec       q    Type
REMARK                         _______ _______ _______ _____ _____    ______ ____
ROOT
ATOM      1  C   LIG A   1      -6.647  -0.993 129.354  0.00  0.00    +0.012 C 
ATOM      2  C   LIG A   1      -6.101  -2.248 128.631  0.00  0.00    -0.022 C 
ATOM      3  C   LIG A   1      -6.337  -3.568 129.467  0.00  0.00    +0.005 C 
ATOM      4  C   LIG A   1      -5.529  -3.714 130.818  0.00  0.00    -0.031 C 
ATOM      5  C   LIG A   1      -5.668  -5.164 131.354  0.00  0.00    +0.011 C 
ATOM      6  C   LIG A   1      -5.984  -2.787 131.972  0.00  0.00    +0.011 C 
ATOM      7  C   LIG A   1      -4.030  -3.470 130.527  0.00  0.00    +0.007 C 
ATOM      8  C   LIG A   1      -3.758  -2.186 129.750  0.00  0.00    +0.001 C 
ATOM      9  C   LIG A   1      -4.562  -2.098 128.448  0.00  0.00    +0.007 C 
ATOM     10  C   LIG A   1      -7.826  -3.896 129.642  0.00  0.00    +0.031 C 
ATOM     11  C   LIG A   1      -8.655  -3.611 128.440  0.00  0.00    -0.027 C 
ATOM     12  C   LIG A   1      -8.254  -2.954 127.337  0.00  0.00    -0.073 C 
ATOM     13  C   LIG A   1      -6.832  -2.376 127.180  0.00  0.00    +0.021 C 
ATOM     14  C   LIG A   1      -9.245  -2.885 126.211  0.00  0.00    +0.039 C 
ENDROOT
BRANCH  13  15
ATOM     15  C   LIG A   1      -6.711  -1.029 126.352  0.00  0.00    +0.013 C 
BRANCH  15  16
ATOM     16  C   LIG A   1      -5.817  -0.985 125.089  0.00  0.00    +0.031 C 
BRANCH  16  17
ATOM     17  C   LIG A   1      -6.242  -1.949 123.983  0.00  0.00    -0.066 C 
ATOM     18  C   LIG A   1      -7.316  -1.837 123.175  0.00  0.00    +0.090 C 
ATOM     19  C   LIG A   1      -5.273  -3.080 123.716  0.00  0.00    +0.039 C 
BRANCH  18  20
ATOM     20  C   LIG A   1      -8.345  -0.783 123.187  0.00  0.00    +0.330 C 
ATOM     21  O   LIG A   1      -8.125   0.418 123.226  0.00  0.00    -0.246 OA
BRANCH  20  22
ATOM     22  O   LIG A   1      -9.586  -1.304 123.153  0.00  0.00    -0.477 OA
ATOM     23  H   LIG A   1     -10.288  -0.690 122.850  0.00  0.00    +0.295 HD
ENDBRANCH  20  22
ENDBRANCH  18  20
ENDBRANCH  16  17
ENDBRANCH  15  16
ENDBRANCH  13  15
TORSDOF 5
ENDMDL
MODEL 2
REMARK VINA RESULT:      -7.1      1.625      2.018
REMARK  Name = NuBBE_2391
REMARK  10 active torsions:
REMARK  status: ('A' for Active; 'I' for Inactive)
REMARK    1  A    between atoms: C_1  and  C_2
REMARK    2  A    between atoms: C_5  and  C_6
REMARK    3  A    between atoms: C_5  and  C_7
REMARK    4  A    between atoms: C_13  and  C_24
REMARK    5  A    between atoms: C_14  and  C_16
REMARK    6  A    between atoms: C_16  and  C_17
REMARK    7  A    between atoms: C_17  and  C_18
REMARK    8  A    between atoms: C_18  and  C_23
REMARK    9  A    between atoms: C_19  and  C_20
REMARK   10  A    between atoms: C_20  and  O_22
REMARK                            x       y       z     vdW  Elec       q    Type
REMARK                         _______ _______ _______ _____ _____    ______ ____
ROOT
ATOM      1  C   LIG A   1      -7.650  -0.761 129.496  0.00  0.00    +0.012 C 
ATOM      2  C   LIG A   1      -6.701  -1.597 128.604  0.00  0.00    -0.022 C 
ATOM      3  C   LIG A   1      -6.602  -3.099 129.083  0.00  0.00    +0.005 C 
ATOM      4  C   LIG A   1      -5.897  -3.362 130.474  0.00  0.00    -0.031 C 
ATOM      5  C   LIG A   1      -5.642  -4.883 130.650  0.00  0.00    +0.011 C 
ATOM      6  C   LIG A   1      -6.697  -2.916 131.723  0.00  0.00    +0.011 C 
ATOM      7  C   LIG A   1      -4.519  -2.660 130.472  0.00  0.00    +0.007 C 
ATOM      8  C   LIG A   1      -4.579  -1.195 130.047  0.00  0.00    +0.001 C 
ATOM      9  C   LIG A   1      -5.266  -0.999 128.691  0.00  0.00    +0.007 C 
ATOM     10  C   LIG A   1      -7.935  -3.847 128.957  0.00  0.00    +0.031 C 
ATOM     11  C   LIG A   1      -8.713  -3.499 127.737  0.00  0.00    -0.027 C 
ATOM     12  C   LIG A   1      -8.438  -2.501 126.879  0.00  0.00    -0.073 C 
ATOM     13  C   LIG A   1      -7.243  -1.542 127.068  0.00  0.00    +0.021 C 
ATOM     14  C   LIG A   1      -9.311  -2.415 125.661  0.00  0.00    +0.039 C 
ENDROOT
BRANCH  13  15
ATOM     15  C   LIG A   1      -7.460  -0.047 126.585  0.00  0.00    +0.013 C 
BRANCH  15  16
ATOM     16  C   LIG A   1      -6.618   0.507 125.411  0.00  0.00    +0.031 C 
BRANCH  16  17
ATOM     17  C   LIG A   1      -7.303   0.417 124.048  0.00  0.00    -0.066 C 
ATOM     18  C   LIG A   1      -8.157   1.309 123.506  0.00  0.00    +0.090 C 
ATOM     19  C   LIG A   1      -6.867  -0.753 123.192  0.00  0.00    +0.039 C 
BRANCH  18  20
ATOM     20  C   LIG A   1      -8.655   2.558 124.108  0.00  0.00    +0.330 C 
ATOM     21  O   LIG A   1      -9.347   2.631 125.111  0.00  0.00    -0.246 OA
BRANCH  20  22
ATOM     22  O   LIG A   1      -8.254   3.637 123.408  0.00  0.00    -0.477 OA
ATOM     23  H   LIG A   1      -8.941   4.324 123.273  0.00  0.00    +0.295 HD
ENDBRANCH  20  22
ENDBRANCH  18  20
ENDBRANCH  16  17
ENDBRANCH  15  16
ENDBRANCH  13  15
TORSDOF 5
ENDMDL
MODEL 3
REMARK VINA RESULT:      -7.1      1.716      3.407
REMARK  Name = NuBBE_2391
REMARK  10 active torsions:
REMARK  status: ('A' for Active; 'I' for Inactive)
REMARK    1  A    between atoms: C_1  and  C_2
REMARK    2  A    between atoms: C_5  and  C_6
REMARK    3  A    between atoms: C_5  and  C_7
REMARK    4  A    between atoms: C_13  and  C_24
REMARK    5  A    between atoms: C_14  and  C_16
REMARK    6  A    between atoms: C_16  and  C_17
REMARK    7  A    between atoms: C_17  and  C_18
REMARK    8  A    between atoms: C_18  and  C_23
REMARK    9  A    between atoms: C_19  and  C_20
REMARK   10  A    between atoms: C_20  and  O_22
REMARK                            x       y       z     vdW  Elec       q    Type
REMARK                         _______ _______ _______ _____ _____    ______ ____
ROOT
ATOM      1  C   LIG A   1      -4.942  -2.320 128.246  0.00  0.00    +0.012 C 
ATOM      2  C   LIG A   1      -6.270  -1.539 128.099  0.00  0.00    -0.022 C 
ATOM      3  C   LIG A   1      -6.672  -0.791 129.430  0.00  0.00    +0.005 C 
ATOM      4  C   LIG A   1      -7.075  -1.693 130.665  0.00  0.00    -0.031 C 
ATOM      5  C   LIG A   1      -7.698  -0.806 131.777  0.00  0.00    +0.011 C 
ATOM      6  C   LIG A   1      -5.911  -2.463 131.336  0.00  0.00    +0.011 C 
ATOM      7  C   LIG A   1      -8.160  -2.697 130.213  0.00  0.00    +0.007 C 
ATOM      8  C   LIG A   1      -7.792  -3.465 128.946  0.00  0.00    +0.001 C 
ATOM      9  C   LIG A   1      -7.416  -2.544 127.781  0.00  0.00    +0.007 C 
ATOM     10  C   LIG A   1      -5.672   0.307 129.814  0.00  0.00    +0.031 C 
ATOM     11  C   LIG A   1      -5.137   1.073 128.656  0.00  0.00    -0.027 C 
ATOM     12  C   LIG A   1      -5.314   0.773 127.357  0.00  0.00    -0.073 C 
ATOM     13  C   LIG A   1      -6.112  -0.461 126.886  0.00  0.00    +0.021 C 
ATOM     14  C   LIG A   1      -4.765   1.760 126.369  0.00  0.00    +0.039 C 
ENDROOT
BRANCH  13  15
ATOM     15  C   LIG A   1      -5.603  -1.159 125.556  0.00  0.00    +0.013 C 
BRANCH  15  16
ATOM     16  C   LIG A   1      -6.624  -1.558 124.463  0.00  0.00    +0.031 C 
BRANCH  16  17
ATOM     17  C   LIG A   1      -6.827  -3.065 124.312  0.00  0.00    -0.066 C 
ATOM     18  C   LIG A   1      -8.001  -3.729 124.282  0.00  0.00    +0.090 C 
ATOM     19  C   LIG A   1      -5.563  -3.856 124.057  0.00  0.00    +0.039 C 
BRANCH  18  20
ATOM     20  C   LIG A   1      -9.356  -3.166 124.418  0.00  0.00    +0.330 C 
ATOM     21  O   LIG A   1      -9.778  -2.571 125.398  0.00  0.00    -0.246 OA
BRANCH  20  22
ATOM     22  O   LIG A   1     -10.097  -3.392 123.317  0.00  0.00    -0.477 OA
ATOM     23  H   LIG A   1      -9.587  -3.614 122.510  0.00  0.00    +0.295 HD
ENDBRANCH  20  22
ENDBRANCH  18  20
ENDBRANCH  16  17
ENDBRANCH  15  16
ENDBRANCH  13  15
TORSDOF 5
ENDMDL
MODEL 4
REMARK VINA RESULT:      -7.0      3.220      6.863
REMARK  Name = NuBBE_2391
REMARK  10 active torsions:
REMARK  status: ('A' for Active; 'I' for Inactive)
REMARK    1  A    between atoms: C_1  and  C_2
REMARK    2  A    between atoms: C_5  and  C_6
REMARK    3  A    between atoms: C_5  and  C_7
REMARK    4  A    between atoms: C_13  and  C_24
REMARK    5  A    between atoms: C_14  and  C_16
REMARK    6  A    between atoms: C_16  and  C_17
REMARK    7  A    between atoms: C_17  and  C_18
REMARK    8  A    between atoms: C_18  and  C_23
REMARK    9  A    between atoms: C_19  and  C_20
REMARK   10  A    between atoms: C_20  and  O_22
REMARK                            x       y       z     vdW  Elec       q    Type
REMARK                         _______ _______ _______ _____ _____    ______ ____
ROOT
ATOM      1  C   LIG A   1      -8.676  -0.678 126.437  0.00  0.00    +0.012 C 
ATOM      2  C   LIG A   1      -7.758  -1.919 126.334  0.00  0.00    -0.022 C 
ATOM      3  C   LIG A   1      -6.757  -1.821 125.116  0.00  0.00    +0.005 C 
ATOM      4  C   LIG A   1      -7.386  -1.881 123.666  0.00  0.00    -0.031 C 
ATOM      5  C   LIG A   1      -6.256  -2.051 122.614  0.00  0.00    +0.011 C 
ATOM      6  C   LIG A   1      -8.187  -0.628 123.233  0.00  0.00    +0.011 C 
ATOM      7  C   LIG A   1      -8.296  -3.128 123.571  0.00  0.00    +0.007 C 
ATOM      8  C   LIG A   1      -9.300  -3.240 124.715  0.00  0.00    +0.001 C 
ATOM      9  C   LIG A   1      -8.638  -3.181 126.095  0.00  0.00    +0.007 C 
ATOM     10  C   LIG A   1      -5.756  -0.668 125.267  0.00  0.00    +0.031 C 
ATOM     11  C   LIG A   1      -5.267  -0.469 126.658  0.00  0.00    -0.027 C 
ATOM     12  C   LIG A   1      -5.746  -1.070 127.761  0.00  0.00    -0.073 C 
ATOM     13  C   LIG A   1      -6.922  -2.069 127.725  0.00  0.00    +0.021 C 
ATOM     14  C   LIG A   1      -5.014  -0.786 129.041  0.00  0.00    +0.039 C 
ENDROOT
BRANCH  13  15
ATOM     15  C   LIG A   1      -7.887  -2.062 128.983  0.00  0.00    +0.013 C 
BRANCH  15  16
ATOM     16  C   LIG A   1      -7.941  -3.298 129.912  0.00  0.00    +0.031 C 
BRANCH  16  17
ATOM     17  C   LIG A   1      -6.743  -3.431 130.852  0.00  0.00    -0.066 C 
ATOM     18  C   LIG A   1      -6.592  -2.858 132.064  0.00  0.00    +0.090 C 
ATOM     19  C   LIG A   1      -5.680  -4.407 130.396  0.00  0.00    +0.039 C 
BRANCH  18  20
ATOM     20  C   LIG A   1      -7.525  -1.948 132.751  0.00  0.00    +0.330 C 
ATOM     21  O   LIG A   1      -8.291  -2.267 133.647  0.00  0.00    -0.246 OA
BRANCH  20  22
ATOM     22  O   LIG A   1      -7.439  -0.695 132.266  0.00  0.00    -0.477 OA
ATOM     23  H   LIG A   1      -6.535  -0.404 132.021  0.00  0.00    +0.295 HD
ENDBRANCH  20  22
ENDBRANCH  18  20
ENDBRANCH  16  17
ENDBRANCH  15  16
ENDBRANCH  13  15
TORSDOF 5
ENDMDL
MODEL 5
REMARK VINA RESULT:      -6.9      4.637      7.141
REMARK  Name = NuBBE_2391
REMARK  10 active torsions:
REMARK  status: ('A' for Active; 'I' for Inactive)
REMARK    1  A    between atoms: C_1  and  C_2
REMARK    2  A    between atoms: C_5  and  C_6
REMARK    3  A    between atoms: C_5  and  C_7
REMARK    4  A    between atoms: C_13  and  C_24
REMARK    5  A    between atoms: C_14  and  C_16
REMARK    6  A    between atoms: C_16  and  C_17
REMARK    7  A    between atoms: C_17  and  C_18
REMARK    8  A    between atoms: C_18  and  C_23
REMARK    9  A    between atoms: C_19  and  C_20
REMARK   10  A    between atoms: C_20  and  O_22
REMARK                            x       y       z     vdW  Elec       q    Type
REMARK                         _______ _______ _______ _____ _____    ______ ____
ROOT
ATOM      1  C   LIG A   1      -7.454   0.816 126.730  0.00  0.00    +0.012 C 
ATOM      2  C   LIG A   1      -6.144   0.596 125.937  0.00  0.00    -0.022 C 
ATOM      3  C   LIG A   1      -6.417   0.123 124.455  0.00  0.00    +0.005 C 
ATOM      4  C   LIG A   1      -7.041  -1.318 124.267  0.00  0.00    -0.031 C 
ATOM      5  C   LIG A   1      -6.980  -1.720 122.769  0.00  0.00    +0.011 C 
ATOM      6  C   LIG A   1      -8.524  -1.463 124.688  0.00  0.00    +0.011 C 
ATOM      7  C   LIG A   1      -6.184  -2.336 125.054  0.00  0.00    +0.007 C 
ATOM      8  C   LIG A   1      -5.927  -1.929 126.502  0.00  0.00    +0.001 C 
ATOM      9  C   LIG A   1      -5.317  -0.529 126.626  0.00  0.00    +0.007 C 
ATOM     10  C   LIG A   1      -7.145   1.185 123.622  0.00  0.00    +0.031 C 
ATOM     11  C   LIG A   1      -6.702   2.579 123.894  0.00  0.00    -0.027 C 
ATOM     12  C   LIG A   1      -5.887   2.972 124.889  0.00  0.00    -0.073 C 
ATOM     13  C   LIG A   1      -5.299   1.990 125.925  0.00  0.00    +0.021 C 
ATOM     14  C   LIG A   1      -5.499   4.422 124.893  0.00  0.00    +0.039 C 
ENDROOT
BRANCH  13  15
ATOM     15  C   LIG A   1      -5.098   2.557 127.392  0.00  0.00    +0.013 C 
BRANCH  15  16
ATOM     16  C   LIG A   1      -3.686   2.552 128.027  0.00  0.00    +0.031 C 
BRANCH  16  17
ATOM     17  C   LIG A   1      -2.714   3.555 127.406  0.00  0.00    -0.066 C 
ATOM     18  C   LIG A   1      -2.631   4.875 127.666  0.00  0.00    +0.090 C 
ATOM     19  C   LIG A   1      -1.673   2.949 126.490  0.00  0.00    +0.039 C 
BRANCH  18  20
ATOM     20  C   LIG A   1      -3.472   5.667 128.580  0.00  0.00    +0.330 C 
ATOM     21  O   LIG A   1      -3.244   5.855 129.766  0.00  0.00    -0.246 OA
BRANCH  20  22
ATOM     22  O   LIG A   1      -4.550   6.170 127.949  0.00  0.00    -0.477 OA
ATOM     23  H   LIG A   1      -5.413   5.820 128.255  0.00  0.00    +0.295 HD
ENDBRANCH  20  22
ENDBRANCH  18  20
ENDBRANCH  16  17
ENDBRANCH  15  16
ENDBRANCH  13  15
TORSDOF 5
ENDMDL
MODEL 6
REMARK VINA RESULT:      -6.8      2.857      6.122
REMARK  Name = NuBBE_2391
REMARK  10 active torsions:
REMARK  status: ('A' for Active; 'I' for Inactive)
REMARK    1  A    between atoms: C_1  and  C_2
REMARK    2  A    between atoms: C_5  and  C_6
REMARK    3  A    between atoms: C_5  and  C_7
REMARK    4  A    between atoms: C_13  and  C_24
REMARK    5  A    between atoms: C_14  and  C_16
REMARK    6  A    between atoms: C_16  and  C_17
REMARK    7  A    between atoms: C_17  and  C_18
REMARK    8  A    between atoms: C_18  and  C_23
REMARK    9  A    between atoms: C_19  and  C_20
REMARK   10  A    between atoms: C_20  and  O_22
REMARK                            x       y       z     vdW  Elec       q    Type
REMARK                         _______ _______ _______ _____ _____    ______ ____
ROOT
ATOM      1  C   LIG A   1      -8.540   1.529 126.573  0.00  0.00    +0.012 C 
ATOM      2  C   LIG A   1      -7.573   1.042 125.466  0.00  0.00    -0.022 C 
ATOM      3  C   LIG A   1      -6.429   2.091 125.171  0.00  0.00    +0.005 C 
ATOM      4  C   LIG A   1      -6.866   3.458 124.507  0.00  0.00    -0.031 C 
ATOM      5  C   LIG A   1      -5.606   4.236 124.040  0.00  0.00    +0.011 C 
ATOM      6  C   LIG A   1      -7.648   4.427 125.428  0.00  0.00    +0.011 C 
ATOM      7  C   LIG A   1      -7.712   3.151 123.250  0.00  0.00    +0.007 C 
ATOM      8  C   LIG A   1      -8.850   2.166 123.504  0.00  0.00    +0.001 C 
ATOM      9  C   LIG A   1      -8.371   0.858 124.142  0.00  0.00    +0.007 C 
ATOM     10  C   LIG A   1      -5.496   2.299 126.371  0.00  0.00    +0.031 C 
ATOM     11  C   LIG A   1      -5.195   1.054 127.128  0.00  0.00    -0.027 C 
ATOM     12  C   LIG A   1      -5.790  -0.140 126.960  0.00  0.00    -0.073 C 
ATOM     13  C   LIG A   1      -6.916  -0.375 125.931  0.00  0.00    +0.021 C 
ATOM     14  C   LIG A   1      -5.237  -1.275 127.772  0.00  0.00    +0.039 C 
ENDROOT
BRANCH  13  15
ATOM     15  C   LIG A   1      -8.033  -1.423 126.342  0.00  0.00    +0.013 C 
BRANCH  15  16
ATOM     16  C   LIG A   1      -7.914  -2.892 125.871  0.00  0.00    +0.031 C 
BRANCH  16  17
ATOM     17  C   LIG A   1      -7.386  -3.056 124.446  0.00  0.00    -0.066 C 
ATOM     18  C   LIG A   1      -8.083  -2.913 123.300  0.00  0.00    +0.090 C 
ATOM     19  C   LIG A   1      -5.895  -3.290 124.341  0.00  0.00    +0.039 C 
BRANCH  18  20
ATOM     20  C   LIG A   1      -9.514  -2.600 123.150  0.00  0.00    +0.330 C 
ATOM     21  O   LIG A   1      -9.971  -1.504 122.864  0.00  0.00    -0.246 OA
BRANCH  20  22
ATOM     22  O   LIG A   1     -10.283  -3.683 123.374  0.00  0.00    -0.477 OA
ATOM     23  H   LIG A   1     -10.401  -3.923 124.317  0.00  0.00    +0.295 HD
ENDBRANCH  20  22
ENDBRANCH  18  20
ENDBRANCH  16  17
ENDBRANCH  15  16
ENDBRANCH  13  15
TORSDOF 5
ENDMDL
MODEL 7
REMARK VINA RESULT:      -6.7      1.831      3.718
REMARK  Name = NuBBE_2391
REMARK  10 active torsions:
REMARK  status: ('A' for Active; 'I' for Inactive)
REMARK    1  A    between atoms: C_1  and  C_2
REMARK    2  A    between atoms: C_5  and  C_6
REMARK    3  A    between atoms: C_5  and  C_7
REMARK    4  A    between atoms: C_13  and  C_24
REMARK    5  A    between atoms: C_14  and  C_16
REMARK    6  A    between atoms: C_16  and  C_17
REMARK    7  A    between atoms: C_17  and  C_18
REMARK    8  A    between atoms: C_18  and  C_23
REMARK    9  A    between atoms: C_19  and  C_20
REMARK   10  A    between atoms: C_20  and  O_22
REMARK                            x       y       z     vdW  Elec       q    Type
REMARK                         _______ _______ _______ _____ _____    ______ ____
ROOT
ATOM      1  C   LIG A   1      -5.551  -2.540 126.812  0.00  0.00    +0.012 C 
ATOM      2  C   LIG A   1      -6.854  -1.714 126.940  0.00  0.00    -0.022 C 
ATOM      3  C   LIG A   1      -7.125  -1.255 128.427  0.00  0.00    +0.005 C 
ATOM      4  C   LIG A   1      -7.470  -2.388 129.475  0.00  0.00    -0.031 C 
ATOM      5  C   LIG A   1      -7.972  -1.742 130.794  0.00  0.00    +0.011 C 
ATOM      6  C   LIG A   1      -6.291  -3.310 129.873  0.00  0.00    +0.011 C 
ATOM      7  C   LIG A   1      -8.625  -3.248 128.912  0.00  0.00    +0.007 C 
ATOM      8  C   LIG A   1      -8.384  -3.739 127.488  0.00  0.00    +0.001 C 
ATOM      9  C   LIG A   1      -8.060  -2.602 126.514  0.00  0.00    +0.007 C 
ATOM     10  C   LIG A   1      -6.055  -0.286 128.949  0.00  0.00    +0.031 C 
ATOM     11  C   LIG A   1      -5.578   0.694 127.936  0.00  0.00    -0.027 C 
ATOM     12  C   LIG A   1      -5.864   0.679 126.622  0.00  0.00    -0.073 C 
ATOM     13  C   LIG A   1      -6.743  -0.408 125.970  0.00  0.00    +0.021 C 
ATOM     14  C   LIG A   1      -5.350   1.840 125.820  0.00  0.00    +0.039 C 
ENDROOT
BRANCH  13  15
ATOM     15  C   LIG A   1      -6.363  -0.821 124.487  0.00  0.00    +0.013 C 
BRANCH  15  16
ATOM     16  C   LIG A   1      -7.101  -0.162 123.297  0.00  0.00    +0.031 C 
BRANCH  16  17
ATOM     17  C   LIG A   1      -8.615  -0.371 123.302  0.00  0.00    -0.066 C 
ATOM     18  C   LIG A   1      -9.567   0.582 123.371  0.00  0.00    +0.090 C 
ATOM     19  C   LIG A   1      -9.062  -1.801 123.090  0.00  0.00    +0.039 C 
BRANCH  18  20
ATOM     20  C   LIG A   1      -9.376   2.038 123.490  0.00  0.00    +0.330 C 
ATOM     21  O   LIG A   1      -8.982   2.774 122.598  0.00  0.00    -0.246 OA
BRANCH  20  22
ATOM     22  O   LIG A   1      -9.687   2.477 124.724  0.00  0.00    -0.477 OA
ATOM     23  H   LIG A   1     -10.206   1.851 125.271  0.00  0.00    +0.295 HD
ENDBRANCH  20  22
ENDBRANCH  18  20
ENDBRANCH  16  17
ENDBRANCH  15  16
ENDBRANCH  13  15
TORSDOF 5
ENDMDL
MODEL 8
REMARK VINA RESULT:      -6.7      3.657      6.108
REMARK  Name = NuBBE_2391
REMARK  10 active torsions:
REMARK  status: ('A' for Active; 'I' for Inactive)
REMARK    1  A    between atoms: C_1  and  C_2
REMARK    2  A    between atoms: C_5  and  C_6
REMARK    3  A    between atoms: C_5  and  C_7
REMARK    4  A    between atoms: C_13  and  C_24
REMARK    5  A    between atoms: C_14  and  C_16
REMARK    6  A    between atoms: C_16  and  C_17
REMARK    7  A    between atoms: C_17  and  C_18
REMARK    8  A    between atoms: C_18  and  C_23
REMARK    9  A    between atoms: C_19  and  C_20
REMARK   10  A    between atoms: C_20  and  O_22
REMARK                            x       y       z     vdW  Elec       q    Type
REMARK                         _______ _______ _______ _____ _____    ______ ____
ROOT
ATOM      1  C   LIG A   1      -5.299  -1.466 125.805  0.00  0.00    +0.012 C 
ATOM      2  C   LIG A   1      -6.638  -0.704 125.663  0.00  0.00    -0.022 C 
ATOM      3  C   LIG A   1      -7.876  -1.681 125.595  0.00  0.00    +0.005 C 
ATOM      4  C   LIG A   1      -7.998  -2.595 124.310  0.00  0.00    -0.031 C 
ATOM      5  C   LIG A   1      -9.394  -3.273 124.282  0.00  0.00    +0.011 C 
ATOM      6  C   LIG A   1      -6.963  -3.744 124.208  0.00  0.00    +0.011 C 
ATOM      7  C   LIG A   1      -7.894  -1.700 123.053  0.00  0.00    +0.007 C 
ATOM      8  C   LIG A   1      -6.688  -0.763 123.068  0.00  0.00    +0.001 C 
ATOM      9  C   LIG A   1      -6.623   0.101 124.331  0.00  0.00    +0.007 C 
ATOM     10  C   LIG A   1      -8.073  -2.475 126.893  0.00  0.00    +0.031 C 
ATOM     11  C   LIG A   1      -7.802  -1.693 128.129  0.00  0.00    -0.027 C 
ATOM     12  C   LIG A   1      -7.253  -0.467 128.188  0.00  0.00    -0.073 C 
ATOM     13  C   LIG A   1      -6.802   0.307 126.932  0.00  0.00    +0.021 C 
ATOM     14  C   LIG A   1      -7.180   0.161 129.549  0.00  0.00    +0.039 C 
ENDROOT
BRANCH  13  15
ATOM     15  C   LIG A   1      -5.526   1.234 127.100  0.00  0.00    +0.013 C 
BRANCH  15  16
ATOM     16  C   LIG A   1      -5.681   2.771 127.010  0.00  0.00    +0.031 C 
BRANCH  16  17
ATOM     17  C   LIG A   1      -4.807   3.431 125.944  0.00  0.00    -0.066 C 
ATOM     18  C   LIG A   1      -3.484   3.681 126.018  0.00  0.00    +0.090 C 
ATOM     19  C   LIG A   1      -5.508   3.718 124.634  0.00  0.00    +0.039 C 
BRANCH  18  20
ATOM     20  C   LIG A   1      -2.578   3.410 127.148  0.00  0.00    +0.330 C 
ATOM     21  O   LIG A   1      -2.630   3.954 128.240  0.00  0.00    -0.246 OA
BRANCH  20  22
ATOM     22  O   LIG A   1      -1.662   2.475 126.832  0.00  0.00    -0.477 OA
ATOM     23  H   LIG A   1      -1.325   1.950 127.589  0.00  0.00    +0.295 HD
ENDBRANCH  20  22
ENDBRANCH  18  20
ENDBRANCH  16  17
ENDBRANCH  15  16
ENDBRANCH  13  15
TORSDOF 5
ENDMDL
MODEL 9
REMARK VINA RESULT:      -6.6      3.281      5.234
REMARK  Name = NuBBE_2391
REMARK  10 active torsions:
REMARK  status: ('A' for Active; 'I' for Inactive)
REMARK    1  A    between atoms: C_1  and  C_2
REMARK    2  A    between atoms: C_5  and  C_6
REMARK    3  A    between atoms: C_5  and  C_7
REMARK    4  A    between atoms: C_13  and  C_24
REMARK    5  A    between atoms: C_14  and  C_16
REMARK    6  A    between atoms: C_16  and  C_17
REMARK    7  A    between atoms: C_17  and  C_18
REMARK    8  A    between atoms: C_18  and  C_23
REMARK    9  A    between atoms: C_19  and  C_20
REMARK   10  A    between atoms: C_20  and  O_22
REMARK                            x       y       z     vdW  Elec       q    Type
REMARK                         _______ _______ _______ _____ _____    ______ ____
ROOT
ATOM      1  C   LIG A   1      -7.352   2.269 126.999  0.00  0.00    +0.012 C 
ATOM      2  C   LIG A   1      -6.027   1.764 126.379  0.00  0.00    -0.022 C 
ATOM      3  C   LIG A   1      -4.789   2.025 127.323  0.00  0.00    +0.005 C 
ATOM      4  C   LIG A   1      -4.371   3.532 127.556  0.00  0.00    -0.031 C 
ATOM      5  C   LIG A   1      -2.992   3.587 128.268  0.00  0.00    +0.011 C 
ATOM      6  C   LIG A   1      -5.338   4.366 128.433  0.00  0.00    +0.011 C 
ATOM      7  C   LIG A   1      -4.207   4.219 126.180  0.00  0.00    +0.007 C 
ATOM      8  C   LIG A   1      -5.400   4.017 125.250  0.00  0.00    +0.001 C 
ATOM      9  C   LIG A   1      -5.758   2.541 125.056  0.00  0.00    +0.007 C 
ATOM     10  C   LIG A   1      -4.873   1.236 128.637  0.00  0.00    +0.031 C 
ATOM     11  C   LIG A   1      -5.424  -0.137 128.485  0.00  0.00    -0.027 C 
ATOM     12  C   LIG A   1      -5.992  -0.646 127.377  0.00  0.00    -0.073 C 
ATOM     13  C   LIG A   1      -6.165   0.168 126.078  0.00  0.00    +0.021 C 
ATOM     14  C   LIG A   1      -6.376  -2.096 127.437  0.00  0.00    +0.039 C 
ENDROOT
BRANCH  13  15
ATOM     15  C   LIG A   1      -7.461  -0.148 125.220  0.00  0.00    +0.013 C 
BRANCH  15  16
ATOM     16  C   LIG A   1      -7.317  -0.839 123.843  0.00  0.00    +0.031 C 
BRANCH  16  17
ATOM     17  C   LIG A   1      -7.044  -2.341 123.918  0.00  0.00    -0.066 C 
ATOM     18  C   LIG A   1      -7.939  -3.319 124.167  0.00  0.00    +0.090 C 
ATOM     19  C   LIG A   1      -5.633  -2.751 123.557  0.00  0.00    +0.039 C 
BRANCH  18  20
ATOM     20  C   LIG A   1      -9.376  -3.171 124.456  0.00  0.00    +0.330 C 
ATOM     21  O   LIG A   1      -9.847  -2.783 125.514  0.00  0.00    -0.246 OA
BRANCH  20  22
ATOM     22  O   LIG A   1     -10.131  -3.525 123.398  0.00  0.00    -0.477 OA
ATOM     23  H   LIG A   1     -11.099  -3.439 123.530  0.00  0.00    +0.295 HD
ENDBRANCH  20  22
ENDBRANCH  18  20
ENDBRANCH  16  17
ENDBRANCH  15  16
ENDBRANCH  13  15
TORSDOF 5
ENDMDL
