MODEL 1
REMARK VINA RESULT:      -8.4      0.000      0.000
REMARK  Name = NuBBE_561
REMARK  12 active torsions:
REMARK  status: ('A' for Active; 'I' for Inactive)
REMARK    1  A    between atoms: C_1  and  C_2
REMARK    2  A    between atoms: C_6  and  C_8
REMARK    3  A    between atoms: C_8  and  C_10
REMARK    4  A    between atoms: C_8  and  C_11
REMARK    5  A    between atoms: C_11  and  C_12
REMARK    6  A    between atoms: C_12  and  C_13
REMARK    7  A    between atoms: C_13  and  C_15
REMARK    8  A    between atoms: C_13  and  C_17
REMARK    9  A    between atoms: C_15  and  C_16
REMARK   10  A    between atoms: C_17  and  C_18
REMARK   11  A    between atoms: C_17  and  C_19
REMARK   12  A    between atoms: C_24  and  C_33
REMARK                            x       y       z     vdW  Elec       q    Type
REMARK                         _______ _______ _______ _____ _____    ______ ____
ROOT
ATOM      1  C   LIG A   1      -6.702  -1.173 128.791  0.00  0.00    +0.012 C 
ATOM      2  C   LIG A   1      -6.919  -0.074 127.729  0.00  0.00    -0.026 C 
ATOM      3  C   LIG A   1      -8.289  -0.303 127.013  0.00  0.00    -0.001 C 
ATOM      4  C   LIG A   1      -8.691   1.102 126.552  0.00  0.00    +0.004 C 
ATOM      5  C   LIG A   1      -8.089   2.086 127.557  0.00  0.00    +0.004 C 
ATOM      6  C   LIG A   1      -7.067   1.326 128.440  0.00  0.00    -0.002 C 
ATOM      7  C   LIG A   1      -8.300  -1.343 125.838  0.00  0.00    -0.003 C 
ATOM      8  C   LIG A   1      -7.093  -1.171 124.862  0.00  0.00    +0.002 C 
ATOM      9  C   LIG A   1      -7.051  -2.248 123.718  0.00  0.00    -0.007 C 
ATOM     10  C   LIG A   1      -7.099  -3.621 124.373  0.00  0.00    -0.060 C 
ATOM     11  C   LIG A   1      -8.299  -3.866 125.259  0.00  0.00    +0.032 C 
ATOM     12  C   LIG A   1      -8.400  -2.799 126.355  0.00  0.00    +0.008 C 
ATOM     13  C   LIG A   1      -6.115  -4.534 124.280  0.00  0.00    +0.046 C 
ATOM     14  C   LIG A   1      -4.847  -4.248 123.581  0.00  0.00    +0.156 C 
ATOM     15  C   LIG A   1      -4.551  -2.838 123.164  0.00  0.00    +0.080 C 
ATOM     16  C   LIG A   1      -5.812  -2.081 122.777  0.00  0.00    +0.019 C 
ATOM     17  O   LIG A   1      -4.011  -5.157 123.453  0.00  0.00    -0.293 OA
ATOM     18  C   LIG A   1      -8.282  -2.051 122.788  0.00  0.00    +0.016 C 
ATOM     19  C   LIG A   1      -5.792  -1.137 125.668  0.00  0.00    +0.005 C 
ATOM     20  C   LIG A   1      -5.784  -0.029 126.698  0.00  0.00    +0.007 C 
ENDROOT
BRANCH   6  21
ATOM     21  C   LIG A   1      -5.764   2.200 128.709  0.00  0.00    -0.010 C 
ATOM     22  C   LIG A   1      -5.019   1.882 130.016  0.00  0.00    +0.008 C 
BRANCH  21  23
ATOM     23  C   LIG A   1      -6.091   3.733 128.667  0.00  0.00    +0.004 C 
BRANCH  23  24
ATOM     24  C   LIG A   1      -5.423   4.544 127.520  0.00  0.00    +0.004 C 
BRANCH  24  25
ATOM     25  C   LIG A   1      -4.416   3.733 126.631  0.00  0.00    -0.009 C 
BRANCH  25  26
ATOM     26  C   LIG A   1      -2.914   4.116 126.891  0.00  0.00    -0.014 C 
ATOM     27  C   LIG A   1      -2.622   4.685 128.282  0.00  0.00    +0.007 C 
ATOM     28  C   LIG A   1      -1.942   2.963 126.600  0.00  0.00    +0.007 C 
ENDBRANCH  25  26
BRANCH  25  29
ATOM     29  C   LIG A   1      -4.808   3.820 125.125  0.00  0.00    +0.000 C 
ATOM     30  C   LIG A   1      -6.022   2.992 124.700  0.00  0.00    +0.004 C 
ENDBRANCH  25  29
ENDBRANCH  24  25
ENDBRANCH  23  24
ENDBRANCH  21  23
ENDBRANCH   6  21
TORSDOF 6
ENDMDL
MODEL 2
REMARK VINA RESULT:      -8.3      2.481      6.328
REMARK  Name = NuBBE_561
REMARK  12 active torsions:
REMARK  status: ('A' for Active; 'I' for Inactive)
REMARK    1  A    between atoms: C_1  and  C_2
REMARK    2  A    between atoms: C_6  and  C_8
REMARK    3  A    between atoms: C_8  and  C_10
REMARK    4  A    between atoms: C_8  and  C_11
REMARK    5  A    between atoms: C_11  and  C_12
REMARK    6  A    between atoms: C_12  and  C_13
REMARK    7  A    between atoms: C_13  and  C_15
REMARK    8  A    between atoms: C_13  and  C_17
REMARK    9  A    between atoms: C_15  and  C_16
REMARK   10  A    between atoms: C_17  and  C_18
REMARK   11  A    between atoms: C_17  and  C_19
REMARK   12  A    between atoms: C_24  and  C_33
REMARK                            x       y       z     vdW  Elec       q    Type
REMARK                         _______ _______ _______ _____ _____    ______ ____
ROOT
ATOM      1  C   LIG A   1      -6.169   2.373 126.809  0.00  0.00    +0.012 C 
ATOM      2  C   LIG A   1      -6.992   1.149 126.353  0.00  0.00    -0.026 C 
ATOM      3  C   LIG A   1      -8.166   0.907 127.354  0.00  0.00    -0.001 C 
ATOM      4  C   LIG A   1      -9.227   0.206 126.498  0.00  0.00    +0.004 C 
ATOM      5  C   LIG A   1      -9.045   0.713 125.067  0.00  0.00    +0.004 C 
ATOM      6  C   LIG A   1      -7.695   1.467 124.978  0.00  0.00    -0.002 C 
ATOM      7  C   LIG A   1      -7.823   0.102 128.656  0.00  0.00    -0.003 C 
ATOM      8  C   LIG A   1      -6.954  -1.165 128.377  0.00  0.00    +0.002 C 
ATOM      9  C   LIG A   1      -6.544  -1.945 129.678  0.00  0.00    -0.007 C 
ATOM     10  C   LIG A   1      -5.871  -0.955 130.618  0.00  0.00    -0.060 C 
ATOM     11  C   LIG A   1      -6.709   0.247 130.989  0.00  0.00    +0.032 C 
ATOM     12  C   LIG A   1      -7.172   1.001 129.737  0.00  0.00    +0.008 C 
ATOM     13  C   LIG A   1      -4.591  -1.053 131.025  0.00  0.00    +0.046 C 
ATOM     14  C   LIG A   1      -3.692  -2.110 130.526  0.00  0.00    +0.156 C 
ATOM     15  C   LIG A   1      -4.137  -2.955 129.369  0.00  0.00    +0.080 C 
ATOM     16  C   LIG A   1      -5.640  -3.187 129.378  0.00  0.00    +0.019 C 
ATOM     17  O   LIG A   1      -2.549  -2.203 131.001  0.00  0.00    -0.293 OA
ATOM     18  C   LIG A   1      -7.820  -2.536 130.342  0.00  0.00    +0.016 C 
ATOM     19  C   LIG A   1      -5.738  -0.769 127.536  0.00  0.00    +0.005 C 
ATOM     20  C   LIG A   1      -6.132  -0.116 126.229  0.00  0.00    +0.007 C 
ENDROOT
BRANCH   6  21
ATOM     21  C   LIG A   1      -6.929   1.139 123.621  0.00  0.00    -0.010 C 
ATOM     22  C   LIG A   1      -6.935   2.265 122.575  0.00  0.00    +0.008 C 
BRANCH  21  23
ATOM     23  C   LIG A   1      -7.481  -0.173 122.963  0.00  0.00    +0.004 C 
BRANCH  23  24
ATOM     24  C   LIG A   1      -6.452  -1.322 122.760  0.00  0.00    +0.004 C 
BRANCH  24  25
ATOM     25  C   LIG A   1      -6.810  -2.668 123.482  0.00  0.00    -0.009 C 
BRANCH  25  26
ATOM     26  C   LIG A   1      -8.188  -2.619 124.236  0.00  0.00    -0.014 C 
ATOM     27  C   LIG A   1      -9.374  -3.186 123.454  0.00  0.00    +0.007 C 
ATOM     28  C   LIG A   1      -8.135  -3.274 125.625  0.00  0.00    +0.007 C 
ENDBRANCH  25  26
BRANCH  25  29
ATOM     29  C   LIG A   1      -5.638  -3.136 124.399  0.00  0.00    +0.000 C 
ATOM     30  C   LIG A   1      -4.656  -4.129 123.775  0.00  0.00    +0.004 C 
ENDBRANCH  25  29
ENDBRANCH  24  25
ENDBRANCH  23  24
ENDBRANCH  21  23
ENDBRANCH   6  21
TORSDOF 6
ENDMDL
MODEL 3
REMARK VINA RESULT:      -7.9      3.283      6.827
REMARK  Name = NuBBE_561
REMARK  12 active torsions:
REMARK  status: ('A' for Active; 'I' for Inactive)
REMARK    1  A    between atoms: C_1  and  C_2
REMARK    2  A    between atoms: C_6  and  C_8
REMARK    3  A    between atoms: C_8  and  C_10
REMARK    4  A    between atoms: C_8  and  C_11
REMARK    5  A    between atoms: C_11  and  C_12
REMARK    6  A    between atoms: C_12  and  C_13
REMARK    7  A    between atoms: C_13  and  C_15
REMARK    8  A    between atoms: C_13  and  C_17
REMARK    9  A    between atoms: C_15  and  C_16
REMARK   10  A    between atoms: C_17  and  C_18
REMARK   11  A    between atoms: C_17  and  C_19
REMARK   12  A    between atoms: C_24  and  C_33
REMARK                            x       y       z     vdW  Elec       q    Type
REMARK                         _______ _______ _______ _____ _____    ______ ____
ROOT
ATOM      1  C   LIG A   1      -8.979  -3.399 127.161  0.00  0.00    +0.012 C 
ATOM      2  C   LIG A   1      -7.844  -2.485 126.651  0.00  0.00    -0.026 C 
ATOM      3  C   LIG A   1      -6.545  -2.758 127.475  0.00  0.00    -0.001 C 
ATOM      4  C   LIG A   1      -5.421  -2.372 126.507  0.00  0.00    +0.004 C 
ATOM      5  C   LIG A   1      -5.943  -2.638 125.095  0.00  0.00    +0.004 C 
ATOM      6  C   LIG A   1      -7.472  -2.880 125.171  0.00  0.00    -0.002 C 
ATOM      7  C   LIG A   1      -6.423  -2.022 128.855  0.00  0.00    -0.003 C 
ATOM      8  C   LIG A   1      -6.822  -0.514 128.778  0.00  0.00    +0.002 C 
ATOM      9  C   LIG A   1      -6.771   0.221 130.167  0.00  0.00    -0.007 C 
ATOM     10  C   LIG A   1      -7.626  -0.575 131.143  0.00  0.00    -0.060 C 
ATOM     11  C   LIG A   1      -7.220  -2.020 131.319  0.00  0.00    +0.032 C 
ATOM     12  C   LIG A   1      -7.207  -2.754 129.972  0.00  0.00    +0.008 C 
ATOM     13  C   LIG A   1      -8.730  -0.092 131.744  0.00  0.00    +0.046 C 
ATOM     14  C   LIG A   1      -9.259   1.251 131.443  0.00  0.00    +0.156 C 
ATOM     15  C   LIG A   1      -8.693   2.010 130.279  0.00  0.00    +0.080 C 
ATOM     16  C   LIG A   1      -7.216   1.719 130.073  0.00  0.00    +0.019 C 
ATOM     17  O   LIG A   1     -10.230   1.675 132.090  0.00  0.00    -0.293 OA
ATOM     18  C   LIG A   1      -5.298   0.276 130.661  0.00  0.00    +0.016 C 
ATOM     19  C   LIG A   1      -8.195  -0.388 128.111  0.00  0.00    +0.005 C 
ATOM     20  C   LIG A   1      -8.217  -0.999 126.727  0.00  0.00    +0.007 C 
ENDROOT
BRANCH   6  21
ATOM     21  C   LIG A   1      -8.236  -2.175 123.965  0.00  0.00    -0.010 C 
ATOM     22  C   LIG A   1      -9.325  -3.026 123.291  0.00  0.00    +0.008 C 
BRANCH  21  23
ATOM     23  C   LIG A   1      -7.229  -1.674 122.872  0.00  0.00    +0.004 C 
BRANCH  23  24
ATOM     24  C   LIG A   1      -6.817  -0.177 122.957  0.00  0.00    +0.004 C 
BRANCH  24  25
ATOM     25  C   LIG A   1      -7.660   0.689 123.956  0.00  0.00    -0.009 C 
BRANCH  25  26
ATOM     26  C   LIG A   1      -8.934   1.331 123.296  0.00  0.00    -0.014 C 
ATOM     27  C   LIG A   1     -10.166   1.404 124.201  0.00  0.00    +0.007 C 
ATOM     28  C   LIG A   1      -8.663   2.719 122.695  0.00  0.00    +0.007 C 
ENDBRANCH  25  26
BRANCH  25  29
ATOM     29  C   LIG A   1      -6.761   1.740 124.678  0.00  0.00    +0.000 C 
ATOM     30  C   LIG A   1      -5.702   1.175 125.626  0.00  0.00    +0.004 C 
ENDBRANCH  25  29
ENDBRANCH  24  25
ENDBRANCH  23  24
ENDBRANCH  21  23
ENDBRANCH   6  21
TORSDOF 6
ENDMDL
MODEL 4
REMARK VINA RESULT:      -7.7      2.289      4.756
REMARK  Name = NuBBE_561
REMARK  12 active torsions:
REMARK  status: ('A' for Active; 'I' for Inactive)
REMARK    1  A    between atoms: C_1  and  C_2
REMARK    2  A    between atoms: C_6  and  C_8
REMARK    3  A    between atoms: C_8  and  C_10
REMARK    4  A    between atoms: C_8  and  C_11
REMARK    5  A    between atoms: C_11  and  C_12
REMARK    6  A    between atoms: C_12  and  C_13
REMARK    7  A    between atoms: C_13  and  C_15
REMARK    8  A    between atoms: C_13  and  C_17
REMARK    9  A    between atoms: C_15  and  C_16
REMARK   10  A    between atoms: C_17  and  C_18
REMARK   11  A    between atoms: C_17  and  C_19
REMARK   12  A    between atoms: C_24  and  C_33
REMARK                            x       y       z     vdW  Elec       q    Type
REMARK                         _______ _______ _______ _____ _____    ______ ____
ROOT
ATOM      1  C   LIG A   1      -8.435   1.948 127.274  0.00  0.00    +0.012 C 
ATOM      2  C   LIG A   1      -7.262   1.073 127.766  0.00  0.00    -0.026 C 
ATOM      3  C   LIG A   1      -6.054   1.223 126.786  0.00  0.00    -0.001 C 
ATOM      4  C   LIG A   1      -4.838   0.925 127.670  0.00  0.00    +0.004 C 
ATOM      5  C   LIG A   1      -5.206   1.361 129.089  0.00  0.00    +0.004 C 
ATOM      6  C   LIG A   1      -6.732   1.625 129.144  0.00  0.00    -0.002 C 
ATOM      7  C   LIG A   1      -6.085   0.333 125.494  0.00  0.00    -0.003 C 
ATOM      8  C   LIG A   1      -6.489  -1.148 125.785  0.00  0.00    +0.002 C 
ATOM      9  C   LIG A   1      -6.591  -2.036 124.492  0.00  0.00    -0.007 C 
ATOM     10  C   LIG A   1      -7.536  -1.338 123.524  0.00  0.00    -0.060 C 
ATOM     11  C   LIG A   1      -7.138   0.069 123.143  0.00  0.00    +0.032 C 
ATOM     12  C   LIG A   1      -6.976   0.951 124.388  0.00  0.00    +0.008 C 
ATOM     13  C   LIG A   1      -8.702  -1.861 123.101  0.00  0.00    +0.046 C 
ATOM     14  C   LIG A   1      -9.210  -3.150 123.607  0.00  0.00    +0.156 C 
ATOM     15  C   LIG A   1      -8.532  -3.785 124.785  0.00  0.00    +0.080 C 
ATOM     16  C   LIG A   1      -7.038  -3.503 124.802  0.00  0.00    +0.019 C 
ATOM     17  O   LIG A   1     -10.247  -3.624 123.117  0.00  0.00    -0.293 OA
ATOM     18  C   LIG A   1      -5.179  -2.178 123.858  0.00  0.00    +0.016 C 
ATOM     19  C   LIG A   1      -7.784  -1.168 126.601  0.00  0.00    +0.005 C 
ATOM     20  C   LIG A   1      -7.655  -0.404 127.900  0.00  0.00    +0.007 C 
ENDROOT
BRANCH   6  21
ATOM     21  C   LIG A   1      -7.372   1.078 130.496  0.00  0.00    -0.010 C 
ATOM     22  C   LIG A   1      -7.746   2.155 131.528  0.00  0.00    +0.008 C 
BRANCH  21  23
ATOM     23  C   LIG A   1      -6.437   0.020 131.177  0.00  0.00    +0.004 C 
BRANCH  23  24
ATOM     24  C   LIG A   1      -6.992  -1.431 131.260  0.00  0.00    +0.004 C 
BRANCH  24  25
ATOM     25  C   LIG A   1      -6.010  -2.548 130.760  0.00  0.00    -0.009 C 
BRANCH  25  26
ATOM     26  C   LIG A   1      -4.815  -1.985 129.908  0.00  0.00    -0.014 C 
ATOM     27  C   LIG A   1      -3.460  -1.979 130.617  0.00  0.00    +0.007 C 
ATOM     28  C   LIG A   1      -4.673  -2.679 128.545  0.00  0.00    +0.007 C 
ENDBRANCH  25  26
BRANCH  25  29
ATOM     29  C   LIG A   1      -6.787  -3.686 130.031  0.00  0.00    +0.000 C 
ATOM     30  C   LIG A   1      -8.209  -3.344 129.581  0.00  0.00    +0.004 C 
ENDBRANCH  25  29
ENDBRANCH  24  25
ENDBRANCH  23  24
ENDBRANCH  21  23
ENDBRANCH   6  21
TORSDOF 6
ENDMDL
MODEL 5
REMARK VINA RESULT:      -7.7      3.549      6.208
REMARK  Name = NuBBE_561
REMARK  12 active torsions:
REMARK  status: ('A' for Active; 'I' for Inactive)
REMARK    1  A    between atoms: C_1  and  C_2
REMARK    2  A    between atoms: C_6  and  C_8
REMARK    3  A    between atoms: C_8  and  C_10
REMARK    4  A    between atoms: C_8  and  C_11
REMARK    5  A    between atoms: C_11  and  C_12
REMARK    6  A    between atoms: C_12  and  C_13
REMARK    7  A    between atoms: C_13  and  C_15
REMARK    8  A    between atoms: C_13  and  C_17
REMARK    9  A    between atoms: C_15  and  C_16
REMARK   10  A    between atoms: C_17  and  C_18
REMARK   11  A    between atoms: C_17  and  C_19
REMARK   12  A    between atoms: C_24  and  C_33
REMARK                            x       y       z     vdW  Elec       q    Type
REMARK                         _______ _______ _______ _____ _____    ______ ____
ROOT
ATOM      1  C   LIG A   1      -5.677  -1.866 127.344  0.00  0.00    +0.012 C 
ATOM      2  C   LIG A   1      -7.211  -2.035 127.405  0.00  0.00    -0.026 C 
ATOM      3  C   LIG A   1      -7.701  -2.813 126.142  0.00  0.00    -0.001 C 
ATOM      4  C   LIG A   1      -8.991  -3.490 126.617  0.00  0.00    +0.004 C 
ATOM      5  C   LIG A   1      -8.827  -3.751 128.115  0.00  0.00    +0.004 C 
ATOM      6  C   LIG A   1      -7.593  -2.963 128.622  0.00  0.00    -0.002 C 
ATOM      7  C   LIG A   1      -7.916  -1.967 124.838  0.00  0.00    -0.003 C 
ATOM      8  C   LIG A   1      -8.681  -0.631 125.099  0.00  0.00    +0.002 C 
ATOM      9  C   LIG A   1      -8.845   0.260 123.814  0.00  0.00    -0.007 C 
ATOM     10  C   LIG A   1      -7.460   0.471 123.218  0.00  0.00    -0.060 C 
ATOM     11  C   LIG A   1      -6.715  -0.796 122.866  0.00  0.00    +0.032 C 
ATOM     12  C   LIG A   1      -6.585  -1.715 124.087  0.00  0.00    +0.008 C 
ATOM     13  C   LIG A   1      -6.868   1.674 123.096  0.00  0.00    +0.046 C 
ATOM     14  C   LIG A   1      -7.493   2.908 123.609  0.00  0.00    +0.156 C 
ATOM     15  C   LIG A   1      -8.704   2.797 124.488  0.00  0.00    +0.080 C 
ATOM     16  C   LIG A   1      -9.577   1.612 124.107  0.00  0.00    +0.019 C 
ATOM     17  O   LIG A   1      -6.940   3.998 123.391  0.00  0.00    -0.293 OA
ATOM     18  C   LIG A   1      -9.763  -0.475 122.798  0.00  0.00    +0.016 C 
ATOM     19  C   LIG A   1      -8.000   0.127 126.242  0.00  0.00    +0.005 C 
ATOM     20  C   LIG A   1      -7.939  -0.689 127.514  0.00  0.00    +0.007 C 
ENDROOT
BRANCH   6  21
ATOM     21  C   LIG A   1      -7.864  -2.303 130.045  0.00  0.00    -0.010 C 
ATOM     22  C   LIG A   1      -7.314  -0.879 130.224  0.00  0.00    +0.008 C 
BRANCH  21  23
ATOM     23  C   LIG A   1      -7.321  -3.210 131.203  0.00  0.00    +0.004 C 
BRANCH  23  24
ATOM     24  C   LIG A   1      -6.048  -4.043 130.880  0.00  0.00    +0.004 C 
BRANCH  24  25
ATOM     25  C   LIG A   1      -4.758  -3.617 131.664  0.00  0.00    -0.009 C 
BRANCH  25  26
ATOM     26  C   LIG A   1      -3.612  -3.087 130.728  0.00  0.00    -0.014 C 
ATOM     27  C   LIG A   1      -3.505  -3.792 129.374  0.00  0.00    +0.007 C 
ATOM     28  C   LIG A   1      -3.672  -1.569 130.507  0.00  0.00    +0.007 C 
ENDBRANCH  25  26
BRANCH  25  29
ATOM     29  C   LIG A   1      -4.282  -4.758 132.614  0.00  0.00    +0.000 C 
ATOM     30  C   LIG A   1      -5.317  -5.270 133.617  0.00  0.00    +0.004 C 
ENDBRANCH  25  29
ENDBRANCH  24  25
ENDBRANCH  23  24
ENDBRANCH  21  23
ENDBRANCH   6  21
TORSDOF 6
ENDMDL
MODEL 6
REMARK VINA RESULT:      -7.6      7.349     10.139
REMARK  Name = NuBBE_561
REMARK  12 active torsions:
REMARK  status: ('A' for Active; 'I' for Inactive)
REMARK    1  A    between atoms: C_1  and  C_2
REMARK    2  A    between atoms: C_6  and  C_8
REMARK    3  A    between atoms: C_8  and  C_10
REMARK    4  A    between atoms: C_8  and  C_11
REMARK    5  A    between atoms: C_11  and  C_12
REMARK    6  A    between atoms: C_12  and  C_13
REMARK    7  A    between atoms: C_13  and  C_15
REMARK    8  A    between atoms: C_13  and  C_17
REMARK    9  A    between atoms: C_15  and  C_16
REMARK   10  A    between atoms: C_17  and  C_18
REMARK   11  A    between atoms: C_17  and  C_19
REMARK   12  A    between atoms: C_24  and  C_33
REMARK                            x       y       z     vdW  Elec       q    Type
REMARK                         _______ _______ _______ _____ _____    ______ ____
ROOT
ATOM      1  C   LIG A   1      -8.305   5.764 133.744  0.00  0.00    +0.012 C 
ATOM      2  C   LIG A   1      -8.276   5.506 132.222  0.00  0.00    -0.026 C 
ATOM      3  C   LIG A   1      -7.528   4.165 131.934  0.00  0.00    -0.001 C 
ATOM      4  C   LIG A   1      -8.136   3.693 130.609  0.00  0.00    +0.004 C 
ATOM      5  C   LIG A   1      -9.571   4.221 130.568  0.00  0.00    +0.004 C 
ATOM      6  C   LIG A   1      -9.744   5.268 131.698  0.00  0.00    -0.002 C 
ATOM      7  C   LIG A   1      -5.962   4.233 131.882  0.00  0.00    -0.003 C 
ATOM      8  C   LIG A   1      -5.433   5.447 131.052  0.00  0.00    +0.002 C 
ATOM      9  C   LIG A   1      -3.866   5.569 131.046  0.00  0.00    -0.007 C 
ATOM     10  C   LIG A   1      -3.398   5.586 132.495  0.00  0.00    -0.060 C 
ATOM     11  C   LIG A   1      -3.811   4.386 133.315  0.00  0.00    +0.032 C 
ATOM     12  C   LIG A   1      -5.333   4.205 133.297  0.00  0.00    +0.008 C 
ATOM     13  C   LIG A   1      -2.755   6.621 133.066  0.00  0.00    +0.046 C 
ATOM     14  C   LIG A   1      -2.509   7.883 132.343  0.00  0.00    +0.156 C 
ATOM     15  C   LIG A   1      -3.188   8.108 131.025  0.00  0.00    +0.080 C 
ATOM     16  C   LIG A   1      -3.361   6.814 130.245  0.00  0.00    +0.019 C 
ATOM     17  O   LIG A   1      -1.836   8.771 132.892  0.00  0.00    -0.293 OA
ATOM     18  C   LIG A   1      -3.262   4.346 130.299  0.00  0.00    +0.016 C 
ATOM     19  C   LIG A   1      -6.109   6.729 131.546  0.00  0.00    +0.005 C 
ATOM     20  C   LIG A   1      -7.617   6.656 131.450  0.00  0.00    +0.007 C 
ENDROOT
BRANCH   6  21
ATOM     21  C   LIG A   1     -10.606   6.515 131.213  0.00  0.00    -0.010 C 
ATOM     22  C   LIG A   1     -12.002   6.634 131.846  0.00  0.00    +0.008 C 
BRANCH  21  23
ATOM     23  C   LIG A   1     -10.750   6.532 129.651  0.00  0.00    +0.004 C 
BRANCH  23  24
ATOM     24  C   LIG A   1     -10.300   7.838 128.937  0.00  0.00    +0.004 C 
BRANCH  24  25
ATOM     25  C   LIG A   1     -11.381   8.492 128.006  0.00  0.00    -0.009 C 
BRANCH  25  26
ATOM     26  C   LIG A   1     -12.829   8.452 128.617  0.00  0.00    -0.014 C 
ATOM     27  C   LIG A   1     -13.489   9.819 128.806  0.00  0.00    +0.007 C 
ATOM     28  C   LIG A   1     -13.781   7.530 127.840  0.00  0.00    +0.007 C 
ENDBRANCH  25  26
BRANCH  25  29
ATOM     29  C   LIG A   1     -11.316   7.888 126.570  0.00  0.00    +0.000 C 
ATOM     30  C   LIG A   1     -10.206   6.865 126.323  0.00  0.00    +0.004 C 
ENDBRANCH  25  29
ENDBRANCH  24  25
ENDBRANCH  23  24
ENDBRANCH  21  23
ENDBRANCH   6  21
TORSDOF 6
ENDMDL
MODEL 7
REMARK VINA RESULT:      -7.6      4.594      9.070
REMARK  Name = NuBBE_561
REMARK  12 active torsions:
REMARK  status: ('A' for Active; 'I' for Inactive)
REMARK    1  A    between atoms: C_1  and  C_2
REMARK    2  A    between atoms: C_6  and  C_8
REMARK    3  A    between atoms: C_8  and  C_10
REMARK    4  A    between atoms: C_8  and  C_11
REMARK    5  A    between atoms: C_11  and  C_12
REMARK    6  A    between atoms: C_12  and  C_13
REMARK    7  A    between atoms: C_13  and  C_15
REMARK    8  A    between atoms: C_13  and  C_17
REMARK    9  A    between atoms: C_15  and  C_16
REMARK   10  A    between atoms: C_17  and  C_18
REMARK   11  A    between atoms: C_17  and  C_19
REMARK   12  A    between atoms: C_24  and  C_33
REMARK                            x       y       z     vdW  Elec       q    Type
REMARK                         _______ _______ _______ _____ _____    ______ ____
ROOT
ATOM      1  C   LIG A   1      -8.776   0.963 132.001  0.00  0.00    +0.012 C 
ATOM      2  C   LIG A   1      -8.010   1.530 130.786  0.00  0.00    -0.026 C 
ATOM      3  C   LIG A   1      -6.904   2.517 131.280  0.00  0.00    -0.001 C 
ATOM      4  C   LIG A   1      -5.848   2.456 130.171  0.00  0.00    +0.004 C 
ATOM      5  C   LIG A   1      -5.927   1.054 129.564  0.00  0.00    +0.004 C 
ATOM      6  C   LIG A   1      -7.221   0.368 130.069  0.00  0.00    -0.002 C 
ATOM      7  C   LIG A   1      -7.362   3.985 131.588  0.00  0.00    -0.003 C 
ATOM      8  C   LIG A   1      -8.294   4.577 130.483  0.00  0.00    +0.002 C 
ATOM      9  C   LIG A   1      -8.817   6.023 130.810  0.00  0.00    -0.007 C 
ATOM     10  C   LIG A   1      -9.471   5.978 132.183  0.00  0.00    -0.060 C 
ATOM     11  C   LIG A   1      -8.579   5.496 133.303  0.00  0.00    +0.032 C 
ATOM     12  C   LIG A   1      -8.007   4.108 132.991  0.00  0.00    +0.008 C 
ATOM     13  C   LIG A   1     -10.773   6.240 132.405  0.00  0.00    +0.046 C 
ATOM     14  C   LIG A   1     -11.712   6.525 131.303  0.00  0.00    +0.156 C 
ATOM     15  C   LIG A   1     -11.264   6.295 129.890  0.00  0.00    +0.080 C 
ATOM     16  C   LIG A   1      -9.781   6.578 129.710  0.00  0.00    +0.019 C 
ATOM     17  O   LIG A   1     -12.881   6.844 131.575  0.00  0.00    -0.293 OA
ATOM     18  C   LIG A   1      -7.615   7.009 130.817  0.00  0.00    +0.016 C 
ATOM     19  C   LIG A   1      -9.439   3.598 130.211  0.00  0.00    +0.005 C 
ATOM     20  C   LIG A   1      -8.940   2.234 129.789  0.00  0.00    +0.007 C 
ENDROOT
BRANCH   6  21
ATOM     21  C   LIG A   1      -7.937  -0.456 128.911  0.00  0.00    -0.010 C 
ATOM     22  C   LIG A   1      -7.771  -1.982 128.992  0.00  0.00    +0.008 C 
BRANCH  21  23
ATOM     23  C   LIG A   1      -7.473   0.035 127.496  0.00  0.00    +0.004 C 
BRANCH  23  24
ATOM     24  C   LIG A   1      -8.419  -0.305 126.309  0.00  0.00    +0.004 C 
BRANCH  24  25
ATOM     25  C   LIG A   1      -7.751  -1.100 125.133  0.00  0.00    -0.009 C 
BRANCH  25  26
ATOM     26  C   LIG A   1      -8.433  -2.490 124.861  0.00  0.00    -0.014 C 
ATOM     27  C   LIG A   1      -9.482  -2.911 125.893  0.00  0.00    +0.007 C 
ATOM     28  C   LIG A   1      -9.036  -2.595 123.452  0.00  0.00    +0.007 C 
ENDBRANCH  25  26
BRANCH  25  29
ATOM     29  C   LIG A   1      -6.211  -1.216 125.345  0.00  0.00    +0.000 C 
ATOM     30  C   LIG A   1      -5.624  -2.624 125.233  0.00  0.00    +0.004 C 
ENDBRANCH  25  29
ENDBRANCH  24  25
ENDBRANCH  23  24
ENDBRANCH  21  23
ENDBRANCH   6  21
TORSDOF 6
ENDMDL
MODEL 8
REMARK VINA RESULT:      -7.5      4.120      7.792
REMARK  Name = NuBBE_561
REMARK  12 active torsions:
REMARK  status: ('A' for Active; 'I' for Inactive)
REMARK    1  A    between atoms: C_1  and  C_2
REMARK    2  A    between atoms: C_6  and  C_8
REMARK    3  A    between atoms: C_8  and  C_10
REMARK    4  A    between atoms: C_8  and  C_11
REMARK    5  A    between atoms: C_11  and  C_12
REMARK    6  A    between atoms: C_12  and  C_13
REMARK    7  A    between atoms: C_13  and  C_15
REMARK    8  A    between atoms: C_13  and  C_17
REMARK    9  A    between atoms: C_15  and  C_16
REMARK   10  A    between atoms: C_17  and  C_18
REMARK   11  A    between atoms: C_17  and  C_19
REMARK   12  A    between atoms: C_24  and  C_33
REMARK                            x       y       z     vdW  Elec       q    Type
REMARK                         _______ _______ _______ _____ _____    ______ ____
ROOT
ATOM      1  C   LIG A   1      -7.915  -0.127 130.293  0.00  0.00    +0.012 C 
ATOM      2  C   LIG A   1      -7.264  -1.340 129.593  0.00  0.00    -0.026 C 
ATOM      3  C   LIG A   1      -7.888  -2.660 130.149  0.00  0.00    -0.001 C 
ATOM      4  C   LIG A   1      -7.718  -3.651 128.992  0.00  0.00    +0.004 C 
ATOM      5  C   LIG A   1      -7.763  -2.833 127.700  0.00  0.00    +0.004 C 
ATOM      6  C   LIG A   1      -7.641  -1.331 128.061  0.00  0.00    -0.002 C 
ATOM      7  C   LIG A   1      -7.291  -3.204 131.493  0.00  0.00    -0.003 C 
ATOM      8  C   LIG A   1      -5.729  -3.178 131.521  0.00  0.00    +0.002 C 
ATOM      9  C   LIG A   1      -5.117  -3.657 132.887  0.00  0.00    -0.007 C 
ATOM     10  C   LIG A   1      -5.749  -2.824 133.994  0.00  0.00    -0.060 C 
ATOM     11  C   LIG A   1      -7.257  -2.890 134.063  0.00  0.00    +0.032 C 
ATOM     12  C   LIG A   1      -7.887  -2.480 132.726  0.00  0.00    +0.008 C 
ATOM     13  C   LIG A   1      -5.058  -1.998 134.803  0.00  0.00    +0.046 C 
ATOM     14  C   LIG A   1      -3.611  -1.768 134.632  0.00  0.00    +0.156 C 
ATOM     15  C   LIG A   1      -2.935  -2.282 133.396  0.00  0.00    +0.080 C 
ATOM     16  C   LIG A   1      -3.554  -3.582 132.907  0.00  0.00    +0.019 C 
ATOM     17  O   LIG A   1      -3.012  -1.063 135.460  0.00  0.00    -0.293 OA
ATOM     18  C   LIG A   1      -5.444  -5.163 133.092  0.00  0.00    +0.016 C 
ATOM     19  C   LIG A   1      -5.241  -1.781 131.129  0.00  0.00    +0.005 C 
ATOM     20  C   LIG A   1      -5.740  -1.361 129.764  0.00  0.00    +0.007 C 
ENDROOT
BRANCH   6  21
ATOM     21  C   LIG A   1      -6.701  -0.557 127.036  0.00  0.00    -0.010 C 
ATOM     22  C   LIG A   1      -7.396   0.527 126.197  0.00  0.00    +0.008 C 
BRANCH  21  23
ATOM     23  C   LIG A   1      -5.968  -1.556 126.075  0.00  0.00    +0.004 C 
BRANCH  23  24
ATOM     24  C   LIG A   1      -6.024  -1.213 124.558  0.00  0.00    +0.004 C 
BRANCH  24  25
ATOM     25  C   LIG A   1      -6.362  -2.420 123.616  0.00  0.00    -0.009 C 
BRANCH  25  26
ATOM     26  C   LIG A   1      -7.894  -2.538 123.286  0.00  0.00    -0.014 C 
ATOM     27  C   LIG A   1      -8.694  -3.431 124.237  0.00  0.00    +0.007 C 
ATOM     28  C   LIG A   1      -8.588  -1.172 123.168  0.00  0.00    +0.007 C 
ENDBRANCH  25  26
BRANCH  25  29
ATOM     29  C   LIG A   1      -5.762  -3.747 124.175  0.00  0.00    +0.000 C 
ATOM     30  C   LIG A   1      -4.409  -4.165 123.598  0.00  0.00    +0.004 C 
ENDBRANCH  25  29
ENDBRANCH  24  25
ENDBRANCH  23  24
ENDBRANCH  21  23
ENDBRANCH   6  21
TORSDOF 6
ENDMDL
MODEL 9
REMARK VINA RESULT:      -7.5      4.969      8.150
REMARK  Name = NuBBE_561
REMARK  12 active torsions:
REMARK  status: ('A' for Active; 'I' for Inactive)
REMARK    1  A    between atoms: C_1  and  C_2
REMARK    2  A    between atoms: C_6  and  C_8
REMARK    3  A    between atoms: C_8  and  C_10
REMARK    4  A    between atoms: C_8  and  C_11
REMARK    5  A    between atoms: C_11  and  C_12
REMARK    6  A    between atoms: C_12  and  C_13
REMARK    7  A    between atoms: C_13  and  C_15
REMARK    8  A    between atoms: C_13  and  C_17
REMARK    9  A    between atoms: C_15  and  C_16
REMARK   10  A    between atoms: C_17  and  C_18
REMARK   11  A    between atoms: C_17  and  C_19
REMARK   12  A    between atoms: C_24  and  C_33
REMARK                            x       y       z     vdW  Elec       q    Type
REMARK                         _______ _______ _______ _____ _____    ______ ____
ROOT
ATOM      1  C   LIG A   1      -6.859   1.905 127.934  0.00  0.00    +0.012 C 
ATOM      2  C   LIG A   1      -5.999   2.755 128.895  0.00  0.00    -0.026 C 
ATOM      3  C   LIG A   1      -6.205   2.255 130.360  0.00  0.00    -0.001 C 
ATOM      4  C   LIG A   1      -4.895   2.640 131.057  0.00  0.00    +0.004 C 
ATOM      5  C   LIG A   1      -3.800   2.601 129.990  0.00  0.00    +0.004 C 
ATOM      6  C   LIG A   1      -4.471   2.507 128.596  0.00  0.00    -0.002 C 
ATOM      7  C   LIG A   1      -7.466   2.803 131.116  0.00  0.00    -0.003 C 
ATOM      8  C   LIG A   1      -7.664   4.341 130.936  0.00  0.00    +0.002 C 
ATOM      9  C   LIG A   1      -8.961   4.894 131.631  0.00  0.00    -0.007 C 
ATOM     10  C   LIG A   1     -10.141   4.076 131.125  0.00  0.00    -0.060 C 
ATOM     11  C   LIG A   1     -10.035   2.587 131.359  0.00  0.00    +0.032 C 
ATOM     12  C   LIG A   1      -8.750   2.024 130.739  0.00  0.00    +0.008 C 
ATOM     13  C   LIG A   1     -11.169   4.591 130.425  0.00  0.00    +0.046 C 
ATOM     14  C   LIG A   1     -11.204   6.008 130.016  0.00  0.00    +0.156 C 
ATOM     15  C   LIG A   1      -9.967   6.841 130.180  0.00  0.00    +0.080 C 
ATOM     16  C   LIG A   1      -9.161   6.429 131.402  0.00  0.00    +0.019 C 
ATOM     17  O   LIG A   1     -12.216   6.446 129.447  0.00  0.00    -0.293 OA
ATOM     18  C   LIG A   1      -8.819   4.739 133.171  0.00  0.00    +0.016 C 
ATOM     19  C   LIG A   1      -7.619   4.685 129.444  0.00  0.00    +0.005 C 
ATOM     20  C   LIG A   1      -6.323   4.252 128.795  0.00  0.00    +0.007 C 
ENDROOT
BRANCH   6  21
ATOM     21  C   LIG A   1      -3.730   3.426 127.528  0.00  0.00    -0.010 C 
ATOM     22  C   LIG A   1      -3.230   2.697 126.270  0.00  0.00    +0.008 C 
BRANCH  21  23
ATOM     23  C   LIG A   1      -2.533   4.201 128.180  0.00  0.00    +0.004 C 
BRANCH  23  24
ATOM     24  C   LIG A   1      -2.773   5.709 128.476  0.00  0.00    +0.004 C 
BRANCH  24  25
ATOM     25  C   LIG A   1      -3.165   6.040 129.959  0.00  0.00    -0.009 C 
BRANCH  25  26
ATOM     26  C   LIG A   1      -4.370   7.043 130.071  0.00  0.00    -0.014 C 
ATOM     27  C   LIG A   1      -5.224   6.890 131.331  0.00  0.00    +0.007 C 
ATOM     28  C   LIG A   1      -3.943   8.511 129.921  0.00  0.00    +0.007 C 
ENDBRANCH  25  26
BRANCH  25  29
ATOM     29  C   LIG A   1      -1.918   6.503 130.773  0.00  0.00    +0.000 C 
ATOM     30  C   LIG A   1      -1.597   5.688 132.027  0.00  0.00    +0.004 C 
ENDBRANCH  25  29
ENDBRANCH  24  25
ENDBRANCH  23  24
ENDBRANCH  21  23
ENDBRANCH   6  21
TORSDOF 6
ENDMDL
