MODEL 1
REMARK VINA RESULT:      -6.3      0.000      0.000
REMARK  Name = NuBBE_2059
REMARK  9 active torsions:
REMARK  status: ('A' for Active; 'I' for Inactive)
REMARK    1  A    between atoms: C_5  and  O_6
REMARK    2  A    between atoms: O_6  and  C_7
REMARK    3  A    between atoms: C_8  and  O_9
REMARK    4  A    between atoms: O_9  and  C_10
REMARK    5  A    between atoms: C_10  and  C_11
REMARK    6  A    between atoms: C_12  and  C_13
REMARK    7  A    between atoms: C_12  and  C_14
REMARK    8  A    between atoms: C_15  and  O_20
REMARK    9  A    between atoms: O_20  and  C_21
REMARK                            x       y       z     vdW  Elec       q    Type
REMARK                         _______ _______ _______ _____ _____    ______ ____
ROOT
ATOM      1  O   LIG A   1      -4.353   5.801 120.319  0.00  0.00    -0.245 OA
ATOM      2  C   LIG A   1      -5.302   5.109 120.637  0.00  0.00    +0.337 A 
ATOM      3  O   LIG A   1      -5.435   4.574 121.903  0.00  0.00    -0.418 OA
ATOM      4  C   LIG A   1      -6.568   3.840 122.323  0.00  0.00    +0.184 A 
ATOM      5  C   LIG A   1      -6.640   3.411 123.652  0.00  0.00    +0.209 A 
ATOM      6  C   LIG A   1      -7.693   2.556 124.034  0.00  0.00    +0.208 A 
ATOM      7  C   LIG A   1      -8.758   2.344 123.131  0.00  0.00    +0.166 A 
ATOM      8  C   LIG A   1      -8.674   2.813 121.809  0.00  0.00    +0.061 A 
ATOM      9  C   LIG A   1      -7.562   3.546 121.392  0.00  0.00    +0.025 A 
ATOM     10  C   LIG A   1      -7.436   4.053 120.028  0.00  0.00    +0.019 A 
ATOM     11  C   LIG A   1      -6.377   4.791 119.687  0.00  0.00    +0.092 A 
ENDROOT
BRANCH   5  12
ATOM     12  O   LIG A   1      -5.783   3.781 124.650  0.00  0.00    -0.488 OA
ATOM     13  C   LIG A   1      -6.012   4.956 125.403  0.00  0.00    +0.277 C 
ENDBRANCH   5  12
BRANCH   7  14
ATOM     14  O   LIG A   1      -9.935   1.694 123.416  0.00  0.00    -0.491 OA
ATOM     15  C   LIG A   1     -10.242   0.601 122.548  0.00  0.00    +0.277 C 
ENDBRANCH   7  14
BRANCH   6  16
ATOM     16  O   LIG A   1      -7.764   1.912 125.257  0.00  0.00    -0.481 OA
BRANCH  16  17
ATOM     17  C   LIG A   1      -6.873   0.806 125.453  0.00  0.00    +0.257 C 
BRANCH  17  18
ATOM     18  C   LIG A   1      -7.618  -0.480 125.261  0.00  0.00    +0.012 C 
ATOM     19  C   LIG A   1      -7.613  -1.300 124.190  0.00  0.00    -0.076 C 
ATOM     20  C   LIG A   1      -6.796  -1.120 122.936  0.00  0.00    +0.038 C 
ATOM     21  C   LIG A   1      -8.507  -2.510 124.175  0.00  0.00    +0.038 C 
ENDBRANCH  17  18
ENDBRANCH  16  17
ENDBRANCH   6  16
TORSDOF 5
ENDMDL
MODEL 2
REMARK VINA RESULT:      -6.2      1.932      6.483
REMARK  Name = NuBBE_2059
REMARK  9 active torsions:
REMARK  status: ('A' for Active; 'I' for Inactive)
REMARK    1  A    between atoms: C_5  and  O_6
REMARK    2  A    between atoms: O_6  and  C_7
REMARK    3  A    between atoms: C_8  and  O_9
REMARK    4  A    between atoms: O_9  and  C_10
REMARK    5  A    between atoms: C_10  and  C_11
REMARK    6  A    between atoms: C_12  and  C_13
REMARK    7  A    between atoms: C_12  and  C_14
REMARK    8  A    between atoms: C_15  and  O_20
REMARK    9  A    between atoms: O_20  and  C_21
REMARK                            x       y       z     vdW  Elec       q    Type
REMARK                         _______ _______ _______ _____ _____    ______ ____
ROOT
ATOM      1  O   LIG A   1     -10.120  -3.673 123.226  0.00  0.00    -0.245 OA
ATOM      2  C   LIG A   1      -9.239  -2.953 123.659  0.00  0.00    +0.337 A 
ATOM      3  O   LIG A   1      -9.235  -1.588 123.458  0.00  0.00    -0.418 OA
ATOM      4  C   LIG A   1      -8.272  -0.720 124.022  0.00  0.00    +0.184 A 
ATOM      5  C   LIG A   1      -8.406   0.658 123.824  0.00  0.00    +0.209 A 
ATOM      6  C   LIG A   1      -7.371   1.511 124.257  0.00  0.00    +0.208 A 
ATOM      7  C   LIG A   1      -6.348   0.978 125.072  0.00  0.00    +0.166 A 
ATOM      8  C   LIG A   1      -6.255  -0.408 125.281  0.00  0.00    +0.061 A 
ATOM      9  C   LIG A   1      -7.208  -1.269 124.735  0.00  0.00    +0.025 A 
ATOM     10  C   LIG A   1      -7.148  -2.715 124.929  0.00  0.00    +0.019 A 
ATOM     11  C   LIG A   1      -8.110  -3.494 124.428  0.00  0.00    +0.092 A 
ENDROOT
BRANCH   5  12
ATOM     12  O   LIG A   1      -9.491   1.275 123.266  0.00  0.00    -0.488 OA
ATOM     13  C   LIG A   1     -10.633   1.576 124.044  0.00  0.00    +0.277 C 
ENDBRANCH   5  12
BRANCH   7  14
ATOM     14  O   LIG A   1      -5.379   1.704 125.721  0.00  0.00    -0.491 OA
ATOM     15  C   LIG A   1      -5.197   1.368 127.097  0.00  0.00    +0.277 C 
ENDBRANCH   7  14
BRANCH   6  16
ATOM     16  O   LIG A   1      -7.295   2.858 123.947  0.00  0.00    -0.481 OA
BRANCH  16  17
ATOM     17  C   LIG A   1      -6.340   3.233 122.946  0.00  0.00    +0.257 C 
BRANCH  17  18
ATOM     18  C   LIG A   1      -7.040   3.448 121.639  0.00  0.00    +0.012 C 
ATOM     19  C   LIG A   1      -6.584   4.080 120.538  0.00  0.00    -0.076 C 
ATOM     20  C   LIG A   1      -5.213   4.682 120.361  0.00  0.00    +0.038 C 
ATOM     21  C   LIG A   1      -7.492   4.257 119.351  0.00  0.00    +0.038 C 
ENDBRANCH  17  18
ENDBRANCH  16  17
ENDBRANCH   6  16
TORSDOF 5
ENDMDL
MODEL 3
REMARK VINA RESULT:      -6.2      2.229      6.776
REMARK  Name = NuBBE_2059
REMARK  9 active torsions:
REMARK  status: ('A' for Active; 'I' for Inactive)
REMARK    1  A    between atoms: C_5  and  O_6
REMARK    2  A    between atoms: O_6  and  C_7
REMARK    3  A    between atoms: C_8  and  O_9
REMARK    4  A    between atoms: O_9  and  C_10
REMARK    5  A    between atoms: C_10  and  C_11
REMARK    6  A    between atoms: C_12  and  C_13
REMARK    7  A    between atoms: C_12  and  C_14
REMARK    8  A    between atoms: C_15  and  O_20
REMARK    9  A    between atoms: O_20  and  C_21
REMARK                            x       y       z     vdW  Elec       q    Type
REMARK                         _______ _______ _______ _____ _____    ______ ____
ROOT
ATOM      1  O   LIG A   1      -9.724  -3.526 126.077  0.00  0.00    -0.245 OA
ATOM      2  C   LIG A   1      -9.167  -2.445 126.146  0.00  0.00    +0.337 A 
ATOM      3  O   LIG A   1      -9.472  -1.401 125.297  0.00  0.00    -0.418 OA
ATOM      4  C   LIG A   1      -8.902  -0.112 125.411  0.00  0.00    +0.184 A 
ATOM      5  C   LIG A   1      -9.341   0.899 124.550  0.00  0.00    +0.209 A 
ATOM      6  C   LIG A   1      -8.672   2.140 124.563  0.00  0.00    +0.208 A 
ATOM      7  C   LIG A   1      -7.738   2.398 125.591  0.00  0.00    +0.166 A 
ATOM      8  C   LIG A   1      -7.338   1.372 126.463  0.00  0.00    +0.061 A 
ATOM      9  C   LIG A   1      -7.905   0.100 126.360  0.00  0.00    +0.025 A 
ATOM     10  C   LIG A   1      -7.517  -0.994 127.248  0.00  0.00    +0.019 A 
ATOM     11  C   LIG A   1      -8.121  -2.180 127.144  0.00  0.00    +0.092 A 
ENDROOT
BRANCH   5  12
ATOM     12  O   LIG A   1     -10.407   0.807 123.701  0.00  0.00    -0.488 OA
ATOM     13  C   LIG A   1     -10.248   0.294 122.392  0.00  0.00    +0.277 C 
ENDBRANCH   5  12
BRANCH   7  14
ATOM     14  O   LIG A   1      -7.144   3.610 125.849  0.00  0.00    -0.491 OA
ATOM     15  C   LIG A   1      -5.716   3.583 125.883  0.00  0.00    +0.277 C 
ENDBRANCH   7  14
BRANCH   6  16
ATOM     16  O   LIG A   1      -8.882   3.143 123.632  0.00  0.00    -0.481 OA
BRANCH  16  17
ATOM     17  C   LIG A   1      -7.946   3.218 122.548  0.00  0.00    +0.257 C 
BRANCH  17  18
ATOM     18  C   LIG A   1      -8.678   3.497 121.271  0.00  0.00    +0.012 C 
ATOM     19  C   LIG A   1      -8.186   3.981 120.112  0.00  0.00    -0.076 C 
ATOM     20  C   LIG A   1      -6.744   4.313 119.827  0.00  0.00    +0.038 C 
ATOM     21  C   LIG A   1      -9.122   4.266 118.968  0.00  0.00    +0.038 C 
ENDBRANCH  17  18
ENDBRANCH  16  17
ENDBRANCH   6  16
TORSDOF 5
ENDMDL
MODEL 4
REMARK VINA RESULT:      -6.1      3.337      7.386
REMARK  Name = NuBBE_2059
REMARK  9 active torsions:
REMARK  status: ('A' for Active; 'I' for Inactive)
REMARK    1  A    between atoms: C_5  and  O_6
REMARK    2  A    between atoms: O_6  and  C_7
REMARK    3  A    between atoms: C_8  and  O_9
REMARK    4  A    between atoms: O_9  and  C_10
REMARK    5  A    between atoms: C_10  and  C_11
REMARK    6  A    between atoms: C_12  and  C_13
REMARK    7  A    between atoms: C_12  and  C_14
REMARK    8  A    between atoms: C_15  and  O_20
REMARK    9  A    between atoms: O_20  and  C_21
REMARK                            x       y       z     vdW  Elec       q    Type
REMARK                         _______ _______ _______ _____ _____    ______ ____
ROOT
ATOM      1  O   LIG A   1      -5.383  -2.669 130.420  0.00  0.00    -0.245 OA
ATOM      2  C   LIG A   1      -6.221  -2.675 129.537  0.00  0.00    +0.337 A 
ATOM      3  O   LIG A   1      -6.042  -2.004 128.344  0.00  0.00    -0.418 OA
ATOM      4  C   LIG A   1      -6.960  -2.065 127.270  0.00  0.00    +0.184 A 
ATOM      5  C   LIG A   1      -6.644  -1.414 126.073  0.00  0.00    +0.209 A 
ATOM      6  C   LIG A   1      -7.619  -1.349 125.058  0.00  0.00    +0.208 A 
ATOM      7  C   LIG A   1      -8.789  -2.129 125.188  0.00  0.00    +0.166 A 
ATOM      8  C   LIG A   1      -9.067  -2.800 126.390  0.00  0.00    +0.061 A 
ATOM      9  C   LIG A   1      -8.160  -2.750 127.450  0.00  0.00    +0.025 A 
ATOM     10  C   LIG A   1      -8.410  -3.434 128.717  0.00  0.00    +0.019 A 
ATOM     11  C   LIG A   1      -7.491  -3.399 129.685  0.00  0.00    +0.092 A 
ENDROOT
BRANCH   5  12
ATOM     12  O   LIG A   1      -5.435  -0.851 125.775  0.00  0.00    -0.488 OA
ATOM     13  C   LIG A   1      -5.122   0.461 126.203  0.00  0.00    +0.277 C 
ENDBRANCH   5  12
BRANCH   7  14
ATOM     14  O   LIG A   1      -9.740  -2.318 124.214  0.00  0.00    -0.491 OA
ATOM     15  C   LIG A   1      -9.399  -3.287 123.222  0.00  0.00    +0.277 C 
ENDBRANCH   7  14
BRANCH   6  16
ATOM     16  O   LIG A   1      -7.499  -0.573 123.918  0.00  0.00    -0.481 OA
BRANCH  16  17
ATOM     17  C   LIG A   1      -8.066   0.743 123.974  0.00  0.00    +0.257 C 
BRANCH  17  18
ATOM     18  C   LIG A   1      -7.089   1.736 123.425  0.00  0.00    +0.012 C 
ATOM     19  C   LIG A   1      -7.310   2.725 122.535  0.00  0.00    -0.076 C 
ATOM     20  C   LIG A   1      -8.637   3.088 121.919  0.00  0.00    +0.038 C 
ATOM     21  C   LIG A   1      -6.157   3.563 122.052  0.00  0.00    +0.038 C 
ENDBRANCH  17  18
ENDBRANCH  16  17
ENDBRANCH   6  16
TORSDOF 5
ENDMDL
MODEL 5
REMARK VINA RESULT:      -6.1      1.579      3.171
REMARK  Name = NuBBE_2059
REMARK  9 active torsions:
REMARK  status: ('A' for Active; 'I' for Inactive)
REMARK    1  A    between atoms: C_5  and  O_6
REMARK    2  A    between atoms: O_6  and  C_7
REMARK    3  A    between atoms: C_8  and  O_9
REMARK    4  A    between atoms: O_9  and  C_10
REMARK    5  A    between atoms: C_10  and  C_11
REMARK    6  A    between atoms: C_12  and  C_13
REMARK    7  A    between atoms: C_12  and  C_14
REMARK    8  A    between atoms: C_15  and  O_20
REMARK    9  A    between atoms: O_20  and  C_21
REMARK                            x       y       z     vdW  Elec       q    Type
REMARK                         _______ _______ _______ _____ _____    ______ ____
ROOT
ATOM      1  O   LIG A   1      -7.684   4.182 119.080  0.00  0.00    -0.245 OA
ATOM      2  C   LIG A   1      -7.301   4.000 120.221  0.00  0.00    +0.337 A 
ATOM      3  O   LIG A   1      -8.116   3.462 121.197  0.00  0.00    -0.418 OA
ATOM      4  C   LIG A   1      -7.670   3.161 122.505  0.00  0.00    +0.184 A 
ATOM      5  C   LIG A   1      -8.554   2.542 123.394  0.00  0.00    +0.209 A 
ATOM      6  C   LIG A   1      -8.162   2.377 124.738  0.00  0.00    +0.208 A 
ATOM      7  C   LIG A   1      -6.818   2.631 125.090  0.00  0.00    +0.166 A 
ATOM      8  C   LIG A   1      -5.941   3.225 124.167  0.00  0.00    +0.061 A 
ATOM      9  C   LIG A   1      -6.373   3.515 122.872  0.00  0.00    +0.025 A 
ATOM     10  C   LIG A   1      -5.493   4.132 121.882  0.00  0.00    +0.019 A 
ATOM     11  C   LIG A   1      -5.936   4.346 120.641  0.00  0.00    +0.092 A 
ENDROOT
BRANCH   5  12
ATOM     12  O   LIG A   1      -9.781   2.038 123.066  0.00  0.00    -0.488 OA
ATOM     13  C   LIG A   1      -9.904   0.759 122.473  0.00  0.00    +0.277 C 
ENDBRANCH   5  12
BRANCH   7  14
ATOM     14  O   LIG A   1      -6.239   2.346 126.303  0.00  0.00    -0.491 OA
ATOM     15  C   LIG A   1      -4.923   1.795 126.224  0.00  0.00    +0.277 C 
ENDBRANCH   7  14
BRANCH   6  16
ATOM     16  O   LIG A   1      -9.013   1.962 125.748  0.00  0.00    -0.481 OA
BRANCH  16  17
ATOM     17  C   LIG A   1      -8.592   0.825 126.514  0.00  0.00    +0.257 C 
BRANCH  17  18
ATOM     18  C   LIG A   1      -9.046  -0.433 125.839  0.00  0.00    +0.012 C 
ATOM     19  C   LIG A   1      -8.330  -1.272 125.061  0.00  0.00    -0.076 C 
ATOM     20  C   LIG A   1      -6.864  -1.148 124.733  0.00  0.00    +0.038 C 
ATOM     21  C   LIG A   1      -9.011  -2.444 124.409  0.00  0.00    +0.038 C 
ENDBRANCH  17  18
ENDBRANCH  16  17
ENDBRANCH   6  16
TORSDOF 5
ENDMDL
MODEL 6
REMARK VINA RESULT:      -6.0      6.453      8.368
REMARK  Name = NuBBE_2059
REMARK  9 active torsions:
REMARK  status: ('A' for Active; 'I' for Inactive)
REMARK    1  A    between atoms: C_5  and  O_6
REMARK    2  A    between atoms: O_6  and  C_7
REMARK    3  A    between atoms: C_8  and  O_9
REMARK    4  A    between atoms: O_9  and  C_10
REMARK    5  A    between atoms: C_10  and  C_11
REMARK    6  A    between atoms: C_12  and  C_13
REMARK    7  A    between atoms: C_12  and  C_14
REMARK    8  A    between atoms: C_15  and  O_20
REMARK    9  A    between atoms: O_20  and  C_21
REMARK                            x       y       z     vdW  Elec       q    Type
REMARK                         _______ _______ _______ _____ _____    ______ ____
ROOT
ATOM      1  O   LIG A   1     -10.711   7.883 125.815  0.00  0.00    -0.245 OA
ATOM      2  C   LIG A   1     -10.689   7.626 127.005  0.00  0.00    +0.337 A 
ATOM      3  O   LIG A   1     -10.115   6.474 127.502  0.00  0.00    -0.418 OA
ATOM      4  C   LIG A   1     -10.000   6.194 128.883  0.00  0.00    +0.184 A 
ATOM      5  C   LIG A   1      -9.326   5.035 129.283  0.00  0.00    +0.209 A 
ATOM      6  C   LIG A   1      -9.339   4.678 130.646  0.00  0.00    +0.208 A 
ATOM      7  C   LIG A   1      -9.831   5.609 131.588  0.00  0.00    +0.166 A 
ATOM      8  C   LIG A   1     -10.476   6.781 131.159  0.00  0.00    +0.061 A 
ATOM      9  C   LIG A   1     -10.584   7.068 129.797  0.00  0.00    +0.025 A 
ATOM     10  C   LIG A   1     -11.245   8.276 129.310  0.00  0.00    +0.019 A 
ATOM     11  C   LIG A   1     -11.281   8.532 128.000  0.00  0.00    +0.092 A 
ENDROOT
BRANCH   5  12
ATOM     12  O   LIG A   1      -8.609   4.213 128.460  0.00  0.00    -0.488 OA
ATOM     13  C   LIG A   1      -7.197   4.283 128.419  0.00  0.00    +0.277 C 
ENDBRANCH   5  12
BRANCH   7  14
ATOM     14  O   LIG A   1      -9.745   5.490 132.954  0.00  0.00    -0.491 OA
ATOM     15  C   LIG A   1      -8.471   5.828 133.506  0.00  0.00    +0.277 C 
ENDBRANCH   7  14
BRANCH   6  16
ATOM     16  O   LIG A   1      -8.883   3.466 131.135  0.00  0.00    -0.481 OA
BRANCH  16  17
ATOM     17  C   LIG A   1      -9.851   2.415 131.252  0.00  0.00    +0.257 C 
BRANCH  17  18
ATOM     18  C   LIG A   1      -9.243   1.248 131.968  0.00  0.00    +0.012 C 
ATOM     19  C   LIG A   1      -8.498   0.247 131.456  0.00  0.00    -0.076 C 
ATOM     20  C   LIG A   1      -8.062   0.105 130.020  0.00  0.00    +0.038 C 
ATOM     21  C   LIG A   1      -8.053  -0.880 132.349  0.00  0.00    +0.038 C 
ENDBRANCH  17  18
ENDBRANCH  16  17
ENDBRANCH   6  16
TORSDOF 5
ENDMDL
MODEL 7
REMARK VINA RESULT:      -5.9      2.658      3.934
REMARK  Name = NuBBE_2059
REMARK  9 active torsions:
REMARK  status: ('A' for Active; 'I' for Inactive)
REMARK    1  A    between atoms: C_5  and  O_6
REMARK    2  A    between atoms: O_6  and  C_7
REMARK    3  A    between atoms: C_8  and  O_9
REMARK    4  A    between atoms: O_9  and  C_10
REMARK    5  A    between atoms: C_10  and  C_11
REMARK    6  A    between atoms: C_12  and  C_13
REMARK    7  A    between atoms: C_12  and  C_14
REMARK    8  A    between atoms: C_15  and  O_20
REMARK    9  A    between atoms: O_20  and  C_21
REMARK                            x       y       z     vdW  Elec       q    Type
REMARK                         _______ _______ _______ _____ _____    ______ ____
ROOT
ATOM      1  O   LIG A   1      -3.973   3.805 126.185  0.00  0.00    -0.245 OA
ATOM      2  C   LIG A   1      -4.887   3.252 125.601  0.00  0.00    +0.337 A 
ATOM      3  O   LIG A   1      -5.394   2.035 126.008  0.00  0.00    -0.418 OA
ATOM      4  C   LIG A   1      -6.510   1.413 125.400  0.00  0.00    +0.184 A 
ATOM      5  C   LIG A   1      -6.995   0.219 125.941  0.00  0.00    +0.209 A 
ATOM      6  C   LIG A   1      -8.008  -0.477 125.252  0.00  0.00    +0.208 A 
ATOM      7  C   LIG A   1      -8.654   0.159 124.169  0.00  0.00    +0.166 A 
ATOM      8  C   LIG A   1      -8.165   1.376 123.665  0.00  0.00    +0.061 A 
ATOM      9  C   LIG A   1      -7.070   1.998 124.267  0.00  0.00    +0.025 A 
ATOM     10  C   LIG A   1      -6.531   3.264 123.774  0.00  0.00    +0.019 A 
ATOM     11  C   LIG A   1      -5.513   3.847 124.412  0.00  0.00    +0.092 A 
ENDROOT
BRANCH   5  12
ATOM     12  O   LIG A   1      -6.593  -0.334 127.125  0.00  0.00    -0.488 OA
ATOM     13  C   LIG A   1      -5.476  -1.200 127.177  0.00  0.00    +0.277 C 
ENDBRANCH   5  12
BRANCH   7  14
ATOM     14  O   LIG A   1      -9.772  -0.303 123.517  0.00  0.00    -0.491 OA
ATOM     15  C   LIG A   1     -10.248   0.542 122.469  0.00  0.00    +0.277 C 
ENDBRANCH   7  14
BRANCH   6  16
ATOM     16  O   LIG A   1      -8.431  -1.754 125.577  0.00  0.00    -0.481 OA
BRANCH  16  17
ATOM     17  C   LIG A   1      -8.315  -2.750 124.552  0.00  0.00    +0.257 C 
BRANCH  17  18
ATOM     18  C   LIG A   1      -6.903  -3.244 124.487  0.00  0.00    +0.012 C 
ATOM     19  C   LIG A   1      -5.945  -2.930 123.589  0.00  0.00    -0.076 C 
ATOM     20  C   LIG A   1      -6.078  -1.949 122.453  0.00  0.00    +0.038 C 
ATOM     21  C   LIG A   1      -4.606  -3.612 123.662  0.00  0.00    +0.038 C 
ENDBRANCH  17  18
ENDBRANCH  16  17
ENDBRANCH   6  16
TORSDOF 5
ENDMDL
MODEL 8
REMARK VINA RESULT:      -5.7      3.294      5.840
REMARK  Name = NuBBE_2059
REMARK  9 active torsions:
REMARK  status: ('A' for Active; 'I' for Inactive)
REMARK    1  A    between atoms: C_5  and  O_6
REMARK    2  A    between atoms: O_6  and  C_7
REMARK    3  A    between atoms: C_8  and  O_9
REMARK    4  A    between atoms: O_9  and  C_10
REMARK    5  A    between atoms: C_10  and  C_11
REMARK    6  A    between atoms: C_12  and  C_13
REMARK    7  A    between atoms: C_12  and  C_14
REMARK    8  A    between atoms: C_15  and  O_20
REMARK    9  A    between atoms: O_20  and  C_21
REMARK                            x       y       z     vdW  Elec       q    Type
REMARK                         _______ _______ _______ _____ _____    ______ ____
ROOT
ATOM      1  O   LIG A   1     -10.998   0.337 122.464  0.00  0.00    -0.245 OA
ATOM      2  C   LIG A   1      -9.983   0.636 123.065  0.00  0.00    +0.337 A 
ATOM      3  O   LIG A   1      -9.298  -0.267 123.853  0.00  0.00    -0.418 OA
ATOM      4  C   LIG A   1      -8.072   0.029 124.492  0.00  0.00    +0.184 A 
ATOM      5  C   LIG A   1      -7.418  -0.984 125.202  0.00  0.00    +0.209 A 
ATOM      6  C   LIG A   1      -6.276  -0.654 125.959  0.00  0.00    +0.208 A 
ATOM      7  C   LIG A   1      -5.701   0.626 125.800  0.00  0.00    +0.166 A 
ATOM      8  C   LIG A   1      -6.364   1.616 125.055  0.00  0.00    +0.061 A 
ATOM      9  C   LIG A   1      -7.569   1.326 124.414  0.00  0.00    +0.025 A 
ATOM     10  C   LIG A   1      -8.290   2.326 123.630  0.00  0.00    +0.019 A 
ATOM     11  C   LIG A   1      -9.415   1.990 122.995  0.00  0.00    +0.092 A 
ENDROOT
BRANCH   5  12
ATOM     12  O   LIG A   1      -7.771  -2.304 125.201  0.00  0.00    -0.488 OA
ATOM     13  C   LIG A   1      -8.771  -2.786 126.077  0.00  0.00    +0.277 C 
ENDBRANCH   5  12
BRANCH   7  14
ATOM     14  O   LIG A   1      -4.497   1.035 126.320  0.00  0.00    -0.491 OA
ATOM     15  C   LIG A   1      -4.342   2.451 126.434  0.00  0.00    +0.277 C 
ENDBRANCH   7  14
BRANCH   6  16
ATOM     16  O   LIG A   1      -5.662  -1.516 126.851  0.00  0.00    -0.481 OA
BRANCH  16  17
ATOM     17  C   LIG A   1      -5.908  -1.281 128.244  0.00  0.00    +0.257 C 
BRANCH  17  18
ATOM     18  C   LIG A   1      -5.594  -2.519 129.027  0.00  0.00    +0.012 C 
ATOM     19  C   LIG A   1      -6.448  -3.349 129.660  0.00  0.00    -0.076 C 
ATOM     20  C   LIG A   1      -7.950  -3.235 129.679  0.00  0.00    +0.038 C 
ATOM     21  C   LIG A   1      -5.906  -4.500 130.465  0.00  0.00    +0.038 C 
ENDBRANCH  17  18
ENDBRANCH  16  17
ENDBRANCH   6  16
TORSDOF 5
ENDMDL
MODEL 9
REMARK VINA RESULT:      -5.6      6.829      9.697
REMARK  Name = NuBBE_2059
REMARK  9 active torsions:
REMARK  status: ('A' for Active; 'I' for Inactive)
REMARK    1  A    between atoms: C_5  and  O_6
REMARK    2  A    between atoms: O_6  and  C_7
REMARK    3  A    between atoms: C_8  and  O_9
REMARK    4  A    between atoms: O_9  and  C_10
REMARK    5  A    between atoms: C_10  and  C_11
REMARK    6  A    between atoms: C_12  and  C_13
REMARK    7  A    between atoms: C_12  and  C_14
REMARK    8  A    between atoms: C_15  and  O_20
REMARK    9  A    between atoms: O_20  and  C_21
REMARK                            x       y       z     vdW  Elec       q    Type
REMARK                         _______ _______ _______ _____ _____    ______ ____
ROOT
ATOM      1  O   LIG A   1     -12.707   6.596 128.033  0.00  0.00    -0.245 OA
ATOM      2  C   LIG A   1     -12.067   6.459 129.059  0.00  0.00    +0.337 A 
ATOM      3  O   LIG A   1     -10.794   5.924 129.071  0.00  0.00    -0.418 OA
ATOM      4  C   LIG A   1      -9.997   5.834 130.235  0.00  0.00    +0.184 A 
ATOM      5  C   LIG A   1      -8.689   5.351 130.123  0.00  0.00    +0.209 A 
ATOM      6  C   LIG A   1      -7.947   5.121 131.299  0.00  0.00    +0.208 A 
ATOM      7  C   LIG A   1      -8.457   5.593 132.528  0.00  0.00    +0.166 A 
ATOM      8  C   LIG A   1      -9.764   6.103 132.607  0.00  0.00    +0.061 A 
ATOM      9  C   LIG A   1     -10.551   6.204 131.459  0.00  0.00    +0.025 A 
ATOM     10  C   LIG A   1     -11.914   6.729 131.498  0.00  0.00    +0.019 A 
ATOM     11  C   LIG A   1     -12.612   6.852 130.366  0.00  0.00    +0.092 A 
ENDROOT
BRANCH   5  12
ATOM     12  O   LIG A   1      -8.034   5.108 128.949  0.00  0.00    -0.488 OA
ATOM     13  C   LIG A   1      -8.001   3.807 128.394  0.00  0.00    +0.277 C 
ENDBRANCH   5  12
BRANCH   7  14
ATOM     14  O   LIG A   1      -7.780   5.612 133.724  0.00  0.00    -0.491 OA
ATOM     15  C   LIG A   1      -8.097   4.537 134.610  0.00  0.00    +0.277 C 
ENDBRANCH   7  14
BRANCH   6  16
ATOM     16  O   LIG A   1      -6.728   4.467 131.330  0.00  0.00    -0.481 OA
BRANCH  16  17
ATOM     17  C   LIG A   1      -5.561   5.275 131.124  0.00  0.00    +0.257 C 
BRANCH  17  18
ATOM     18  C   LIG A   1      -4.721   4.678 130.036  0.00  0.00    +0.012 C 
ATOM     19  C   LIG A   1      -3.461   5.000 129.678  0.00  0.00    -0.076 C 
ATOM     20  C   LIG A   1      -2.581   6.026 130.345  0.00  0.00    +0.038 C 
ATOM     21  C   LIG A   1      -2.830   4.325 128.490  0.00  0.00    +0.038 C 
ENDBRANCH  17  18
ENDBRANCH  16  17
ENDBRANCH   6  16
TORSDOF 5
ENDMDL
