MODEL 1
REMARK VINA RESULT:      -8.0      0.000      0.000
REMARK  Name = NuBBE_2200
REMARK  8 active torsions:
REMARK  status: ('A' for Active; 'I' for Inactive)
REMARK    1  A    between atoms: C_1  and  C_2
REMARK    2  A    between atoms: C_8  and  C_9
REMARK    3  A    between atoms: C_8  and  C_11
REMARK    4  A    between atoms: C_12  and  O_14
REMARK    5  A    between atoms: O_14  and  C_15
REMARK    6  A    between atoms: C_15  and  C_16
REMARK    7  A    between atoms: C_23  and  C_24
REMARK    8  A    between atoms: C_23  and  C_25
REMARK                            x       y       z     vdW  Elec       q    Type
REMARK                         _______ _______ _______ _____ _____    ______ ____
ROOT
ATOM      1  C   LIG A   1      -4.776  -2.384 128.528  0.00  0.00    +0.016 C 
ATOM      2  C   LIG A   1      -6.153  -1.684 128.508  0.00  0.00    +0.000 C 
ATOM      3  C   LIG A   1      -7.062  -2.105 129.720  0.00  0.00    +0.012 C 
ATOM      4  C   LIG A   1      -7.564  -3.540 129.556  0.00  0.00    +0.084 C 
ATOM      5  C   LIG A   1      -8.430  -3.588 128.322  0.00  0.00    +0.160 C 
ATOM      6  C   LIG A   1      -7.985  -2.816 127.119  0.00  0.00    +0.003 C 
ATOM      7  C   LIG A   1      -8.851  -2.986 125.898  0.00  0.00    +0.053 C 
ATOM      8  C   LIG A   1      -8.503  -2.003 124.750  0.00  0.00    +0.034 C 
ATOM      9  C   LIG A   1      -9.218  -2.500 123.478  0.00  0.00    +0.020 C 
ATOM     10  C   LIG A   1      -6.968  -2.024 124.575  0.00  0.00    +0.256 C 
ATOM     11  C   LIG A   1      -6.869  -2.061 127.192  0.00  0.00    +0.011 C 
ATOM     12  C   LIG A   1      -6.302  -1.573 125.877  0.00  0.00    +0.201 C 
ATOM     13  O   LIG A   1      -5.274  -0.895 125.851  0.00  0.00    -0.288 OA
ATOM     14  O   LIG A   1      -9.432  -4.298 128.267  0.00  0.00    -0.292 OA
ATOM     15  C   LIG A   1      -6.511  -1.756 131.144  0.00  0.00    -0.031 C 
ATOM     16  C   LIG A   1      -7.711  -1.652 132.123  0.00  0.00    +0.011 C 
ATOM     17  C   LIG A   1      -5.564  -2.816 131.742  0.00  0.00    +0.011 C 
ATOM     18  C   LIG A   1      -5.786  -0.383 131.110  0.00  0.00    +0.007 C 
ATOM     19  C   LIG A   1      -6.253   0.494 129.954  0.00  0.00    +0.001 C 
ATOM     20  C   LIG A   1      -5.951  -0.134 128.588  0.00  0.00    +0.012 C 
ENDROOT
BRANCH   8  21
ATOM     21  C   LIG A   1      -9.036  -0.594 125.060  0.00  0.00    -0.024 C 
ATOM     22  C   LIG A   1      -8.987   0.475 124.250  0.00  0.00    +0.004 C 
ENDBRANCH   8  21
BRANCH  10  23
ATOM     23  O   LIG A   1      -6.479  -3.358 124.332  0.00  0.00    -0.453 OA
BRANCH  23  24
ATOM     24  C   LIG A   1      -5.404  -3.464 123.509  0.00  0.00    +0.305 C 
ATOM     25  C   LIG A   1      -4.621  -4.692 123.850  0.00  0.00    +0.136 C 
ATOM     26  O   LIG A   1      -5.112  -2.688 122.606  0.00  0.00    -0.251 OA
ENDBRANCH  23  24
ENDBRANCH  10  23
TORSDOF 3
ENDMDL
MODEL 2
REMARK VINA RESULT:      -7.8      2.295      6.463
REMARK  Name = NuBBE_2200
REMARK  8 active torsions:
REMARK  status: ('A' for Active; 'I' for Inactive)
REMARK    1  A    between atoms: C_1  and  C_2
REMARK    2  A    between atoms: C_8  and  C_9
REMARK    3  A    between atoms: C_8  and  C_11
REMARK    4  A    between atoms: C_12  and  O_14
REMARK    5  A    between atoms: O_14  and  C_15
REMARK    6  A    between atoms: C_15  and  C_16
REMARK    7  A    between atoms: C_23  and  C_24
REMARK    8  A    between atoms: C_23  and  C_25
REMARK                            x       y       z     vdW  Elec       q    Type
REMARK                         _______ _______ _______ _____ _____    ______ ____
ROOT
ATOM      1  C   LIG A   1      -8.092   0.236 126.696  0.00  0.00    +0.016 C 
ATOM      2  C   LIG A   1      -7.247  -1.046 126.868  0.00  0.00    +0.000 C 
ATOM      3  C   LIG A   1      -7.719  -2.212 125.924  0.00  0.00    +0.012 C 
ATOM      4  C   LIG A   1      -9.055  -2.789 126.392  0.00  0.00    +0.084 C 
ATOM      5  C   LIG A   1      -8.845  -3.391 127.759  0.00  0.00    +0.160 C 
ATOM      6  C   LIG A   1      -7.977  -2.650 128.727  0.00  0.00    +0.003 C 
ATOM      7  C   LIG A   1      -7.888  -3.265 130.100  0.00  0.00    +0.053 C 
ATOM      8  C   LIG A   1      -6.809  -2.613 131.003  0.00  0.00    +0.034 C 
ATOM      9  C   LIG A   1      -7.053  -3.098 132.446  0.00  0.00    +0.020 C 
ATOM     10  C   LIG A   1      -6.978  -1.082 130.889  0.00  0.00    +0.256 C 
ATOM     11  C   LIG A   1      -7.367  -1.513 128.335  0.00  0.00    +0.011 C 
ATOM     12  C   LIG A   1      -6.777  -0.654 129.433  0.00  0.00    +0.201 C 
ATOM     13  O   LIG A   1      -6.220   0.411 129.165  0.00  0.00    -0.288 OA
ATOM     14  O   LIG A   1      -9.426  -4.417 128.105  0.00  0.00    -0.292 OA
ATOM     15  C   LIG A   1      -7.622  -1.930 124.386  0.00  0.00    -0.031 C 
ATOM     16  C   LIG A   1      -7.515  -3.290 123.643  0.00  0.00    +0.011 C 
ATOM     17  C   LIG A   1      -8.850  -1.214 123.787  0.00  0.00    +0.011 C 
ATOM     18  C   LIG A   1      -6.346  -1.101 124.078  0.00  0.00    +0.007 C 
ATOM     19  C   LIG A   1      -5.279  -1.251 125.156  0.00  0.00    +0.001 C 
ATOM     20  C   LIG A   1      -5.753  -0.736 126.520  0.00  0.00    +0.012 C 
ENDROOT
BRANCH   8  21
ATOM     21  C   LIG A   1      -5.401  -3.078 130.590  0.00  0.00    -0.024 C 
ATOM     22  C   LIG A   1      -4.996  -4.346 130.424  0.00  0.00    +0.004 C 
ENDBRANCH   8  21
BRANCH  10  23
ATOM     23  O   LIG A   1      -8.314  -0.666 131.234  0.00  0.00    -0.453 OA
BRANCH  23  24
ATOM     24  C   LIG A   1      -8.417   0.344 132.135  0.00  0.00    +0.305 C 
ATOM     25  C   LIG A   1      -9.625   1.174 131.834  0.00  0.00    +0.136 C 
ATOM     26  O   LIG A   1      -7.653   0.551 133.072  0.00  0.00    -0.251 OA
ENDBRANCH  23  24
ENDBRANCH  10  23
TORSDOF 3
ENDMDL
MODEL 3
REMARK VINA RESULT:      -7.7      1.616      3.847
REMARK  Name = NuBBE_2200
REMARK  8 active torsions:
REMARK  status: ('A' for Active; 'I' for Inactive)
REMARK    1  A    between atoms: C_1  and  C_2
REMARK    2  A    between atoms: C_8  and  C_9
REMARK    3  A    between atoms: C_8  and  C_11
REMARK    4  A    between atoms: C_12  and  O_14
REMARK    5  A    between atoms: O_14  and  C_15
REMARK    6  A    between atoms: C_15  and  C_16
REMARK    7  A    between atoms: C_23  and  C_24
REMARK    8  A    between atoms: C_23  and  C_25
REMARK                            x       y       z     vdW  Elec       q    Type
REMARK                         _______ _______ _______ _____ _____    ______ ____
ROOT
ATOM      1  C   LIG A   1      -8.227  -1.570 128.882  0.00  0.00    +0.016 C 
ATOM      2  C   LIG A   1      -6.814  -2.020 128.449  0.00  0.00    +0.000 C 
ATOM      3  C   LIG A   1      -5.679  -1.130 129.074  0.00  0.00    +0.012 C 
ATOM      4  C   LIG A   1      -5.652   0.257 128.430  0.00  0.00    +0.084 C 
ATOM      5  C   LIG A   1      -5.318   0.081 126.970  0.00  0.00    +0.160 C 
ATOM      6  C   LIG A   1      -5.942  -1.065 126.238  0.00  0.00    +0.003 C 
ATOM      7  C   LIG A   1      -5.634  -1.121 124.764  0.00  0.00    +0.053 C 
ATOM      8  C   LIG A   1      -6.097  -2.435 124.084  0.00  0.00    +0.034 C 
ATOM      9  C   LIG A   1      -6.026  -2.220 122.558  0.00  0.00    +0.020 C 
ATOM     10  C   LIG A   1      -7.546  -2.706 124.545  0.00  0.00    +0.256 C 
ATOM     11  C   LIG A   1      -6.727  -1.932 126.910  0.00  0.00    +0.011 C 
ATOM     12  C   LIG A   1      -7.574  -2.862 126.068  0.00  0.00    +0.201 C 
ATOM     13  O   LIG A   1      -8.335  -3.671 126.600  0.00  0.00    -0.288 OA
ATOM     14  O   LIG A   1      -4.616   0.894 126.371  0.00  0.00    -0.292 OA
ATOM     15  C   LIG A   1      -5.586  -1.136 130.638  0.00  0.00    -0.031 C 
ATOM     16  C   LIG A   1      -4.135  -0.762 131.046  0.00  0.00    +0.011 C 
ATOM     17  C   LIG A   1      -6.502  -0.110 131.337  0.00  0.00    +0.011 C 
ATOM     18  C   LIG A   1      -5.898  -2.556 131.183  0.00  0.00    +0.007 C 
ATOM     19  C   LIG A   1      -5.658  -3.644 130.144  0.00  0.00    +0.001 C 
ATOM     20  C   LIG A   1      -6.569  -3.493 128.920  0.00  0.00    +0.012 C 
ENDROOT
BRANCH   8  21
ATOM     21  C   LIG A   1      -5.145  -3.593 124.433  0.00  0.00    -0.024 C 
ATOM     22  C   LIG A   1      -4.291  -4.205 123.597  0.00  0.00    +0.004 C 
ENDBRANCH   8  21
BRANCH  10  23
ATOM     23  O   LIG A   1      -8.415  -1.594 124.253  0.00  0.00    -0.453 OA
BRANCH  23  24
ATOM     24  C   LIG A   1      -9.394  -1.819 123.341  0.00  0.00    +0.305 C 
ATOM     25  C   LIG A   1      -9.652  -3.287 123.223  0.00  0.00    +0.136 C 
ATOM     26  O   LIG A   1      -9.999  -0.958 122.710  0.00  0.00    -0.251 OA
ENDBRANCH  23  24
ENDBRANCH  10  23
TORSDOF 3
ENDMDL
MODEL 4
REMARK VINA RESULT:      -7.4      3.765      5.703
REMARK  Name = NuBBE_2200
REMARK  8 active torsions:
REMARK  status: ('A' for Active; 'I' for Inactive)
REMARK    1  A    between atoms: C_1  and  C_2
REMARK    2  A    between atoms: C_8  and  C_9
REMARK    3  A    between atoms: C_8  and  C_11
REMARK    4  A    between atoms: C_12  and  O_14
REMARK    5  A    between atoms: O_14  and  C_15
REMARK    6  A    between atoms: C_15  and  C_16
REMARK    7  A    between atoms: C_23  and  C_24
REMARK    8  A    between atoms: C_23  and  C_25
REMARK                            x       y       z     vdW  Elec       q    Type
REMARK                         _______ _______ _______ _____ _____    ______ ____
ROOT
ATOM      1  C   LIG A   1      -4.891   1.573 128.410  0.00  0.00    +0.016 C 
ATOM      2  C   LIG A   1      -4.937   2.493 127.169  0.00  0.00    +0.000 C 
ATOM      3  C   LIG A   1      -5.021   4.016 127.549  0.00  0.00    +0.012 C 
ATOM      4  C   LIG A   1      -6.400   4.366 128.108  0.00  0.00    +0.084 C 
ATOM      5  C   LIG A   1      -7.414   4.131 127.016  0.00  0.00    +0.160 C 
ATOM      6  C   LIG A   1      -7.249   2.920 126.152  0.00  0.00    +0.003 C 
ATOM      7  C   LIG A   1      -8.349   2.702 125.146  0.00  0.00    +0.053 C 
ATOM      8  C   LIG A   1      -8.037   1.583 124.119  0.00  0.00    +0.034 C 
ATOM      9  C   LIG A   1      -9.349   1.246 123.383  0.00  0.00    +0.020 C 
ATOM     10  C   LIG A   1      -7.509   0.366 124.910  0.00  0.00    +0.256 C 
ATOM     11  C   LIG A   1      -6.180   2.117 126.333  0.00  0.00    +0.011 C 
ATOM     12  C   LIG A   1      -6.237   0.761 125.663  0.00  0.00    +0.201 C 
ATOM     13  O   LIG A   1      -5.312  -0.042 125.793  0.00  0.00    -0.288 OA
ATOM     14  O   LIG A   1      -8.393   4.861 126.880  0.00  0.00    -0.292 OA
ATOM     15  C   LIG A   1      -3.811   4.587 128.366  0.00  0.00    -0.031 C 
ATOM     16  C   LIG A   1      -3.734   6.118 128.123  0.00  0.00    +0.011 C 
ATOM     17  C   LIG A   1      -3.927   4.403 129.892  0.00  0.00    +0.011 C 
ATOM     18  C   LIG A   1      -2.487   3.944 127.871  0.00  0.00    +0.007 C 
ATOM     19  C   LIG A   1      -2.595   3.410 126.448  0.00  0.00    +0.001 C 
ATOM     20  C   LIG A   1      -3.635   2.291 126.323  0.00  0.00    +0.012 C 
ENDROOT
BRANCH   8  21
ATOM     21  C   LIG A   1      -7.029   2.076 123.066  0.00  0.00    -0.024 C 
ATOM     22  C   LIG A   1      -7.015   3.283 122.478  0.00  0.00    +0.004 C 
ENDBRANCH   8  21
BRANCH  10  23
ATOM     23  O   LIG A   1      -8.444  -0.056 125.924  0.00  0.00    -0.453 OA
BRANCH  23  24
ATOM     24  C   LIG A   1      -8.808  -1.364 125.900  0.00  0.00    +0.305 C 
ATOM     25  C   LIG A   1      -8.191  -2.084 127.057  0.00  0.00    +0.136 C 
ATOM     26  O   LIG A   1      -9.544  -1.889 125.073  0.00  0.00    -0.251 OA
ENDBRANCH  23  24
ENDBRANCH  10  23
TORSDOF 3
ENDMDL
MODEL 5
REMARK VINA RESULT:      -7.2      2.890      5.627
REMARK  Name = NuBBE_2200
REMARK  8 active torsions:
REMARK  status: ('A' for Active; 'I' for Inactive)
REMARK    1  A    between atoms: C_1  and  C_2
REMARK    2  A    between atoms: C_8  and  C_9
REMARK    3  A    between atoms: C_8  and  C_11
REMARK    4  A    between atoms: C_12  and  O_14
REMARK    5  A    between atoms: O_14  and  C_15
REMARK    6  A    between atoms: C_15  and  C_16
REMARK    7  A    between atoms: C_23  and  C_24
REMARK    8  A    between atoms: C_23  and  C_25
REMARK                            x       y       z     vdW  Elec       q    Type
REMARK                         _______ _______ _______ _____ _____    ______ ____
ROOT
ATOM      1  C   LIG A   1      -6.703   2.024 127.595  0.00  0.00    +0.016 C 
ATOM      2  C   LIG A   1      -6.029   1.535 126.293  0.00  0.00    +0.000 C 
ATOM      3  C   LIG A   1      -6.304   2.491 125.075  0.00  0.00    +0.012 C 
ATOM      4  C   LIG A   1      -7.754   2.376 124.605  0.00  0.00    +0.084 C 
ATOM      5  C   LIG A   1      -7.970   0.967 124.113  0.00  0.00    +0.160 C 
ATOM      6  C   LIG A   1      -7.352  -0.152 124.890  0.00  0.00    +0.003 C 
ATOM      7  C   LIG A   1      -7.686  -1.534 124.392  0.00  0.00    +0.053 C 
ATOM      8  C   LIG A   1      -6.853  -2.655 125.065  0.00  0.00    +0.034 C 
ATOM      9  C   LIG A   1      -7.518  -4.002 124.718  0.00  0.00    +0.020 C 
ATOM     10  C   LIG A   1      -6.877  -2.394 126.588  0.00  0.00    +0.256 C 
ATOM     11  C   LIG A   1      -6.579   0.131 125.960  0.00  0.00    +0.011 C 
ATOM     12  C   LIG A   1      -6.255  -1.026 126.879  0.00  0.00    +0.201 C 
ATOM     13  O   LIG A   1      -5.572  -0.852 127.890  0.00  0.00    -0.288 OA
ATOM     14  O   LIG A   1      -8.694   0.728 123.149  0.00  0.00    -0.292 OA
ATOM     15  C   LIG A   1      -5.769   3.957 125.220  0.00  0.00    -0.031 C 
ATOM     16  C   LIG A   1      -5.557   4.544 123.799  0.00  0.00    +0.011 C 
ATOM     17  C   LIG A   1      -6.732   4.922 125.940  0.00  0.00    +0.011 C 
ATOM     18  C   LIG A   1      -4.402   3.952 125.957  0.00  0.00    +0.007 C 
ATOM     19  C   LIG A   1      -3.686   2.611 125.848  0.00  0.00    +0.001 C 
ATOM     20  C   LIG A   1      -4.479   1.473 126.500  0.00  0.00    +0.012 C 
ENDROOT
BRANCH   8  21
ATOM     21  C   LIG A   1      -5.423  -2.685 124.499  0.00  0.00    -0.024 C 
ATOM     22  C   LIG A   1      -4.819  -3.727 123.908  0.00  0.00    +0.004 C 
ENDBRANCH   8  21
BRANCH  10  23
ATOM     23  O   LIG A   1      -8.225  -2.323 127.095  0.00  0.00    -0.453 OA
BRANCH  23  24
ATOM     24  C   LIG A   1      -8.577  -3.270 128.001  0.00  0.00    +0.305 C 
ATOM     25  C   LIG A   1      -8.023  -2.920 129.345  0.00  0.00    +0.136 C 
ATOM     26  O   LIG A   1      -9.261  -4.262 127.773  0.00  0.00    -0.251 OA
ENDBRANCH  23  24
ENDBRANCH  10  23
TORSDOF 3
ENDMDL
MODEL 6
REMARK VINA RESULT:      -7.1      3.083      4.902
REMARK  Name = NuBBE_2200
REMARK  8 active torsions:
REMARK  status: ('A' for Active; 'I' for Inactive)
REMARK    1  A    between atoms: C_1  and  C_2
REMARK    2  A    between atoms: C_8  and  C_9
REMARK    3  A    between atoms: C_8  and  C_11
REMARK    4  A    between atoms: C_12  and  O_14
REMARK    5  A    between atoms: O_14  and  C_15
REMARK    6  A    between atoms: C_15  and  C_16
REMARK    7  A    between atoms: C_23  and  C_24
REMARK    8  A    between atoms: C_23  and  C_25
REMARK                            x       y       z     vdW  Elec       q    Type
REMARK                         _______ _______ _______ _____ _____    ______ ____
ROOT
ATOM      1  C   LIG A   1      -4.643  -0.816 129.649  0.00  0.00    +0.016 C 
ATOM      2  C   LIG A   1      -5.970  -0.349 129.010  0.00  0.00    +0.000 C 
ATOM      3  C   LIG A   1      -6.821  -1.544 128.443  0.00  0.00    +0.012 C 
ATOM      4  C   LIG A   1      -6.182  -2.120 127.179  0.00  0.00    +0.084 C 
ATOM      5  C   LIG A   1      -6.188  -1.040 126.126  0.00  0.00    +0.160 C 
ATOM      6  C   LIG A   1      -5.863   0.358 126.550  0.00  0.00    +0.003 C 
ATOM      7  C   LIG A   1      -5.798   1.363 125.430  0.00  0.00    +0.053 C 
ATOM      8  C   LIG A   1      -5.692   2.831 125.919  0.00  0.00    +0.034 C 
ATOM      9  C   LIG A   1      -5.303   3.700 124.706  0.00  0.00    +0.020 C 
ATOM     10  C   LIG A   1      -4.602   2.873 127.013  0.00  0.00    +0.256 C 
ATOM     11  C   LIG A   1      -5.638   0.619 127.854  0.00  0.00    +0.011 C 
ATOM     12  C   LIG A   1      -5.008   1.958 128.171  0.00  0.00    +0.201 C 
ATOM     13  O   LIG A   1      -4.749   2.270 129.334  0.00  0.00    -0.288 OA
ATOM     14  O   LIG A   1      -6.375  -1.301 124.940  0.00  0.00    -0.292 OA
ATOM     15  C   LIG A   1      -7.291  -2.609 129.492  0.00  0.00    -0.031 C 
ATOM     16  C   LIG A   1      -8.559  -3.315 128.940  0.00  0.00    +0.011 C 
ATOM     17  C   LIG A   1      -6.267  -3.729 129.769  0.00  0.00    +0.011 C 
ATOM     18  C   LIG A   1      -7.660  -1.911 130.828  0.00  0.00    +0.007 C 
ATOM     19  C   LIG A   1      -8.016  -0.441 130.639  0.00  0.00    +0.001 C 
ATOM     20  C   LIG A   1      -6.841   0.377 130.089  0.00  0.00    +0.012 C 
ENDROOT
BRANCH   8  21
ATOM     21  C   LIG A   1      -7.053   3.333 126.430  0.00  0.00    -0.024 C 
ATOM     22  C   LIG A   1      -8.102   3.703 125.679  0.00  0.00    +0.004 C 
ENDBRANCH   8  21
BRANCH  10  23
ATOM     23  O   LIG A   1      -3.345   2.356 126.533  0.00  0.00    -0.453 OA
BRANCH  23  24
ATOM     24  C   LIG A   1      -2.237   3.067 126.862  0.00  0.00    +0.305 C 
ATOM     25  C   LIG A   1      -2.632   4.404 127.402  0.00  0.00    +0.136 C 
ATOM     26  O   LIG A   1      -1.078   2.680 126.756  0.00  0.00    -0.251 OA
ENDBRANCH  23  24
ENDBRANCH  10  23
TORSDOF 3
ENDMDL
MODEL 7
REMARK VINA RESULT:      -7.1      3.147      6.052
REMARK  Name = NuBBE_2200
REMARK  8 active torsions:
REMARK  status: ('A' for Active; 'I' for Inactive)
REMARK    1  A    between atoms: C_1  and  C_2
REMARK    2  A    between atoms: C_8  and  C_9
REMARK    3  A    between atoms: C_8  and  C_11
REMARK    4  A    between atoms: C_12  and  O_14
REMARK    5  A    between atoms: O_14  and  C_15
REMARK    6  A    between atoms: C_15  and  C_16
REMARK    7  A    between atoms: C_23  and  C_24
REMARK    8  A    between atoms: C_23  and  C_25
REMARK                            x       y       z     vdW  Elec       q    Type
REMARK                         _______ _______ _______ _____ _____    ______ ____
ROOT
ATOM      1  C   LIG A   1      -5.201  -1.812 126.199  0.00  0.00    +0.016 C 
ATOM      2  C   LIG A   1      -6.500  -0.974 126.221  0.00  0.00    +0.000 C 
ATOM      3  C   LIG A   1      -7.482  -1.354 125.054  0.00  0.00    +0.012 C 
ATOM      4  C   LIG A   1      -6.950  -0.863 123.707  0.00  0.00    +0.084 C 
ATOM      5  C   LIG A   1      -6.890   0.644 123.757  0.00  0.00    +0.160 C 
ATOM      6  C   LIG A   1      -6.415   1.288 125.021  0.00  0.00    +0.003 C 
ATOM      7  C   LIG A   1      -6.294   2.789 124.964  0.00  0.00    +0.053 C 
ATOM      8  C   LIG A   1      -6.028   3.443 126.345  0.00  0.00    +0.034 C 
ATOM      9  C   LIG A   1      -5.601   4.903 126.095  0.00  0.00    +0.020 C 
ATOM     10  C   LIG A   1      -4.900   2.637 127.025  0.00  0.00    +0.256 C 
ATOM     11  C   LIG A   1      -6.117   0.516 126.087  0.00  0.00    +0.011 C 
ATOM     12  C   LIG A   1      -5.349   1.185 127.206  0.00  0.00    +0.201 C 
ATOM     13  O   LIG A   1      -5.018   0.548 128.208  0.00  0.00    -0.288 OA
ATOM     14  O   LIG A   1      -7.145   1.329 122.769  0.00  0.00    -0.292 OA
ATOM     15  C   LIG A   1      -8.014  -2.828 125.058  0.00  0.00    -0.031 C 
ATOM     16  C   LIG A   1      -9.365  -2.864 124.292  0.00  0.00    +0.011 C 
ATOM     17  C   LIG A   1      -7.095  -3.842 124.347  0.00  0.00    +0.011 C 
ATOM     18  C   LIG A   1      -8.265  -3.297 126.516  0.00  0.00    +0.007 C 
ATOM     19  C   LIG A   1      -8.483  -2.132 127.475  0.00  0.00    +0.001 C 
ATOM     20  C   LIG A   1      -7.255  -1.219 127.570  0.00  0.00    +0.012 C 
ENDROOT
BRANCH   8  21
ATOM     21  C   LIG A   1      -7.314   3.474 127.189  0.00  0.00    -0.024 C 
ATOM     22  C   LIG A   1      -7.458   4.021 128.406  0.00  0.00    +0.004 C 
ENDBRANCH   8  21
BRANCH  10  23
ATOM     23  O   LIG A   1      -3.718   2.576 126.202  0.00  0.00    -0.453 OA
BRANCH  23  24
ATOM     24  C   LIG A   1      -2.551   2.930 126.799  0.00  0.00    +0.305 C 
ATOM     25  C   LIG A   1      -2.831   3.708 128.045  0.00  0.00    +0.136 C 
ATOM     26  O   LIG A   1      -1.426   2.648 126.399  0.00  0.00    -0.251 OA
ENDBRANCH  23  24
ENDBRANCH  10  23
TORSDOF 3
ENDMDL
MODEL 8
REMARK VINA RESULT:      -7.1      5.917      8.275
REMARK  Name = NuBBE_2200
REMARK  8 active torsions:
REMARK  status: ('A' for Active; 'I' for Inactive)
REMARK    1  A    between atoms: C_1  and  C_2
REMARK    2  A    between atoms: C_8  and  C_9
REMARK    3  A    between atoms: C_8  and  C_11
REMARK    4  A    between atoms: C_12  and  O_14
REMARK    5  A    between atoms: O_14  and  C_15
REMARK    6  A    between atoms: C_15  and  C_16
REMARK    7  A    between atoms: C_23  and  C_24
REMARK    8  A    between atoms: C_23  and  C_25
REMARK                            x       y       z     vdW  Elec       q    Type
REMARK                         _______ _______ _______ _____ _____    ______ ____
ROOT
ATOM      1  C   LIG A   1      -7.211   2.259 129.725  0.00  0.00    +0.016 C 
ATOM      2  C   LIG A   1      -6.511   2.981 130.898  0.00  0.00    +0.000 C 
ATOM      3  C   LIG A   1      -7.509   3.832 131.765  0.00  0.00    +0.012 C 
ATOM      4  C   LIG A   1      -7.967   5.079 131.008  0.00  0.00    +0.084 C 
ATOM      5  C   LIG A   1      -6.754   5.941 130.763  0.00  0.00    +0.160 C 
ATOM      6  C   LIG A   1      -5.477   5.266 130.375  0.00  0.00    +0.003 C 
ATOM      7  C   LIG A   1      -4.336   6.197 130.058  0.00  0.00    +0.053 C 
ATOM      8  C   LIG A   1      -2.974   5.474 129.888  0.00  0.00    +0.034 C 
ATOM      9  C   LIG A   1      -1.991   6.476 129.250  0.00  0.00    +0.020 C 
ATOM     10  C   LIG A   1      -3.212   4.257 128.967  0.00  0.00    +0.256 C 
ATOM     11  C   LIG A   1      -5.431   3.919 130.315  0.00  0.00    +0.011 C 
ATOM     12  C   LIG A   1      -4.231   3.318 129.617  0.00  0.00    +0.201 C 
ATOM     13  O   LIG A   1      -4.119   2.097 129.499  0.00  0.00    -0.288 OA
ATOM     14  O   LIG A   1      -6.821   7.168 130.802  0.00  0.00    -0.292 OA
ATOM     15  C   LIG A   1      -8.653   3.032 132.476  0.00  0.00    -0.031 C 
ATOM     16  C   LIG A   1      -9.125   3.844 133.712  0.00  0.00    +0.011 C 
ATOM     17  C   LIG A   1      -9.909   2.805 131.611  0.00  0.00    +0.011 C 
ATOM     18  C   LIG A   1      -8.115   1.661 132.968  0.00  0.00    +0.007 C 
ATOM     19  C   LIG A   1      -6.603   1.661 133.156  0.00  0.00    +0.001 C 
ATOM     20  C   LIG A   1      -5.853   1.921 131.844  0.00  0.00    +0.012 C 
ENDROOT
BRANCH   8  21
ATOM     21  C   LIG A   1      -2.399   5.068 131.256  0.00  0.00    -0.024 C 
ATOM     22  C   LIG A   1      -1.509   5.759 131.985  0.00  0.00    +0.004 C 
ENDBRANCH   8  21
BRANCH  10  23
ATOM     23  O   LIG A   1      -3.793   4.648 127.707  0.00  0.00    -0.453 OA
BRANCH  23  24
ATOM     24  C   LIG A   1      -3.453   3.898 126.628  0.00  0.00    +0.305 C 
ATOM     25  C   LIG A   1      -2.038   3.431 126.759  0.00  0.00    +0.136 C 
ATOM     26  O   LIG A   1      -4.188   3.620 125.686  0.00  0.00    -0.251 OA
ENDBRANCH  23  24
ENDBRANCH  10  23
TORSDOF 3
ENDMDL
MODEL 9
REMARK VINA RESULT:      -7.1      6.745      9.382
REMARK  Name = NuBBE_2200
REMARK  8 active torsions:
REMARK  status: ('A' for Active; 'I' for Inactive)
REMARK    1  A    between atoms: C_1  and  C_2
REMARK    2  A    between atoms: C_8  and  C_9
REMARK    3  A    between atoms: C_8  and  C_11
REMARK    4  A    between atoms: C_12  and  O_14
REMARK    5  A    between atoms: O_14  and  C_15
REMARK    6  A    between atoms: C_15  and  C_16
REMARK    7  A    between atoms: C_23  and  C_24
REMARK    8  A    between atoms: C_23  and  C_25
REMARK                            x       y       z     vdW  Elec       q    Type
REMARK                         _______ _______ _______ _____ _____    ______ ____
ROOT
ATOM      1  C   LIG A   1      -4.143   4.462 131.205  0.00  0.00    +0.016 C 
ATOM      2  C   LIG A   1      -4.892   5.788 131.465  0.00  0.00    +0.000 C 
ATOM      3  C   LIG A   1      -4.522   6.429 132.853  0.00  0.00    +0.012 C 
ATOM      4  C   LIG A   1      -5.128   5.628 134.005  0.00  0.00    +0.084 C 
ATOM      5  C   LIG A   1      -6.629   5.698 133.877  0.00  0.00    +0.160 C 
ATOM      6  C   LIG A   1      -7.224   5.593 132.508  0.00  0.00    +0.003 C 
ATOM      7  C   LIG A   1      -8.730   5.579 132.468  0.00  0.00    +0.053 C 
ATOM      8  C   LIG A   1      -9.315   5.705 131.037  0.00  0.00    +0.034 C 
ATOM      9  C   LIG A   1     -10.812   5.344 131.112  0.00  0.00    +0.020 C 
ATOM     10  C   LIG A   1      -8.543   4.714 130.137  0.00  0.00    +0.256 C 
ATOM     11  C   LIG A   1      -6.409   5.502 131.436  0.00  0.00    +0.011 C 
ATOM     12  C   LIG A   1      -7.057   5.080 130.135  0.00  0.00    +0.201 C 
ATOM     13  O   LIG A   1      -6.383   4.952 129.112  0.00  0.00    -0.288 OA
ATOM     14  O   LIG A   1      -7.356   5.760 134.867  0.00  0.00    -0.292 OA
ATOM     15  C   LIG A   1      -3.020   6.830 133.043  0.00  0.00    -0.031 C 
ATOM     16  C   LIG A   1      -2.943   7.949 134.117  0.00  0.00    +0.011 C 
ATOM     17  C   LIG A   1      -2.113   5.691 133.551  0.00  0.00    +0.011 C 
ATOM     18  C   LIG A   1      -2.447   7.388 131.712  0.00  0.00    +0.007 C 
ATOM     19  C   LIG A   1      -3.534   7.920 130.787  0.00  0.00    +0.001 C 
ATOM     20  C   LIG A   1      -4.517   6.825 130.354  0.00  0.00    +0.012 C 
ENDROOT
BRANCH   8  21
ATOM     21  C   LIG A   1      -9.212   7.154 130.533  0.00  0.00    -0.024 C 
ATOM     22  C   LIG A   1      -9.889   7.693 129.508  0.00  0.00    +0.004 C 
ENDBRANCH   8  21
BRANCH  10  23
ATOM     23  O   LIG A   1      -8.610   3.368 130.648  0.00  0.00    -0.453 OA
BRANCH  23  24
ATOM     24  C   LIG A   1      -8.768   2.382 129.727  0.00  0.00    +0.305 C 
ATOM     25  C   LIG A   1      -8.372   1.066 130.317  0.00  0.00    +0.136 C 
ATOM     26  O   LIG A   1      -9.188   2.528 128.585  0.00  0.00    -0.251 OA
ENDBRANCH  23  24
ENDBRANCH  10  23
TORSDOF 3
ENDMDL
