MODEL 1
REMARK VINA RESULT:      -7.0      0.000      0.000
REMARK  Name = NuBBE_4
REMARK  11 active torsions:
REMARK  status: ('A' for Active; 'I' for Inactive)
REMARK    1  A    between atoms: O_1  and  C_2
REMARK    2  A    between atoms: C_5  and  C_6
REMARK    3  A    between atoms: C_6  and  O_7
REMARK    4  A    between atoms: O_7  and  C_8
REMARK    5  A    between atoms: C_8  and  C_9
REMARK    6  A    between atoms: C_10  and  C_11
REMARK    7  A    between atoms: C_10  and  C_12
REMARK    8  A    between atoms: C_12  and  C_13
REMARK    9  A    between atoms: C_13  and  C_14
REMARK   10  A    between atoms: C_15  and  C_16
REMARK   11  A    between atoms: C_15  and  C_17
REMARK                            x       y       z     vdW  Elec       q    Type
REMARK                         _______ _______ _______ _____ _____    ______ ____
ROOT
ATOM      1  O   LIG A   1     -10.215   1.086 122.671  0.00  0.00    -0.457 OA
ENDROOT
BRANCH   1   2
ATOM      2  C   LIG A   1      -9.497   1.997 123.373  0.00  0.00    +0.340 C 
ATOM      3  O   LIG A   1      -9.622   2.277 124.554  0.00  0.00    -0.245 OA
BRANCH   2   7
ATOM      4  C   LIG A   1      -6.598   3.856 120.853  0.00  0.00    +0.117 A 
ATOM      5  C   LIG A   1      -6.173   3.230 122.013  0.00  0.00    +0.046 A 
ATOM      6  C   LIG A   1      -7.105   2.608 122.843  0.00  0.00    +0.018 A 
ATOM      7  C   LIG A   1      -8.467   2.624 122.507  0.00  0.00    +0.059 A 
ATOM      8  C   LIG A   1      -8.881   3.283 121.340  0.00  0.00    +0.018 A 
ATOM      9  C   LIG A   1      -7.947   3.898 120.508  0.00  0.00    +0.046 A 
BRANCH   4  10
ATOM     10  O   LIG A   1      -5.710   4.458 120.006  0.00  0.00    -0.507 OA
ATOM     11  H   LIG A   1      -4.834   4.461 120.429  0.00  0.00    +0.292 HD
ENDBRANCH   4  10
ENDBRANCH   2   7
ENDBRANCH   1   2
BRANCH   1  12
ATOM     12  C   LIG A   1      -9.667  -0.245 122.538  0.00  0.00    +0.260 C 
BRANCH  12  13
ATOM     13  C   LIG A   1      -8.986  -0.703 123.784  0.00  0.00    +0.012 C 
ATOM     14  C   LIG A   1      -8.824  -1.940 124.288  0.00  0.00    -0.073 C 
ATOM     15  C   LIG A   1      -9.355  -3.168 123.604  0.00  0.00    +0.038 C 
BRANCH  14  16
ATOM     16  C   LIG A   1      -8.059  -2.205 125.584  0.00  0.00    +0.034 C 
BRANCH  16  17
ATOM     17  C   LIG A   1      -6.541  -1.898 125.630  0.00  0.00    +0.031 C 
BRANCH  17  18
ATOM     18  C   LIG A   1      -5.694  -3.017 125.074  0.00  0.00    -0.028 C 
ATOM     19  C   LIG A   1      -5.261  -3.174 123.808  0.00  0.00    -0.080 C 
ATOM     20  C   LIG A   1      -5.623  -2.297 122.639  0.00  0.00    +0.038 C 
ATOM     21  C   LIG A   1      -4.244  -4.236 123.465  0.00  0.00    +0.038 C 
ENDBRANCH  17  18
ENDBRANCH  16  17
ENDBRANCH  14  16
ENDBRANCH  12  13
ENDBRANCH   1  12
TORSDOF 8
ENDMDL
MODEL 2
REMARK VINA RESULT:      -6.7      1.444      2.407
REMARK  Name = NuBBE_4
REMARK  11 active torsions:
REMARK  status: ('A' for Active; 'I' for Inactive)
REMARK    1  A    between atoms: O_1  and  C_2
REMARK    2  A    between atoms: C_5  and  C_6
REMARK    3  A    between atoms: C_6  and  O_7
REMARK    4  A    between atoms: O_7  and  C_8
REMARK    5  A    between atoms: C_8  and  C_9
REMARK    6  A    between atoms: C_10  and  C_11
REMARK    7  A    between atoms: C_10  and  C_12
REMARK    8  A    between atoms: C_12  and  C_13
REMARK    9  A    between atoms: C_13  and  C_14
REMARK   10  A    between atoms: C_15  and  C_16
REMARK   11  A    between atoms: C_15  and  C_17
REMARK                            x       y       z     vdW  Elec       q    Type
REMARK                         _______ _______ _______ _____ _____    ______ ____
ROOT
ATOM      1  O   LIG A   1      -7.184   1.949 123.468  0.00  0.00    -0.457 OA
ENDROOT
BRANCH   1   2
ATOM      2  C   LIG A   1      -8.043   2.615 122.659  0.00  0.00    +0.340 C 
ATOM      3  O   LIG A   1      -9.261   2.614 122.722  0.00  0.00    -0.245 OA
BRANCH   2   7
ATOM      4  C   LIG A   1      -5.817   4.879 119.806  0.00  0.00    +0.117 A 
ATOM      5  C   LIG A   1      -7.125   4.529 119.510  0.00  0.00    +0.046 A 
ATOM      6  C   LIG A   1      -7.871   3.799 120.435  0.00  0.00    +0.018 A 
ATOM      7  C   LIG A   1      -7.295   3.414 121.655  0.00  0.00    +0.059 A 
ATOM      8  C   LIG A   1      -5.962   3.757 121.927  0.00  0.00    +0.018 A 
ATOM      9  C   LIG A   1      -5.221   4.493 121.004  0.00  0.00    +0.046 A 
BRANCH   4  10
ATOM     10  O   LIG A   1      -5.064   5.611 118.932  0.00  0.00    -0.507 OA
ATOM     11  H   LIG A   1      -4.477   5.005 118.447  0.00  0.00    +0.292 HD
ENDBRANCH   4  10
ENDBRANCH   2   7
ENDBRANCH   1   2
BRANCH   1  12
ATOM     12  C   LIG A   1      -7.566   1.768 124.851  0.00  0.00    +0.260 C 
BRANCH  12  13
ATOM     13  C   LIG A   1      -8.017   0.374 125.136  0.00  0.00    +0.012 C 
ATOM     14  C   LIG A   1      -7.380  -0.645 125.740  0.00  0.00    -0.073 C 
ATOM     15  C   LIG A   1      -5.980  -0.521 126.274  0.00  0.00    +0.038 C 
BRANCH  14  16
ATOM     16  C   LIG A   1      -8.036  -2.007 125.963  0.00  0.00    +0.034 C 
BRANCH  16  17
ATOM     17  C   LIG A   1      -8.091  -3.010 124.784  0.00  0.00    +0.031 C 
BRANCH  17  18
ATOM     18  C   LIG A   1      -6.742  -3.597 124.442  0.00  0.00    -0.028 C 
ATOM     19  C   LIG A   1      -5.846  -3.138 123.548  0.00  0.00    -0.080 C 
ATOM     20  C   LIG A   1      -6.050  -1.973 122.615  0.00  0.00    +0.038 C 
ATOM     21  C   LIG A   1      -4.454  -3.719 123.481  0.00  0.00    +0.038 C 
ENDBRANCH  17  18
ENDBRANCH  16  17
ENDBRANCH  14  16
ENDBRANCH  12  13
ENDBRANCH   1  12
TORSDOF 8
ENDMDL
MODEL 3
REMARK VINA RESULT:      -6.7      1.554      2.876
REMARK  Name = NuBBE_4
REMARK  11 active torsions:
REMARK  status: ('A' for Active; 'I' for Inactive)
REMARK    1  A    between atoms: O_1  and  C_2
REMARK    2  A    between atoms: C_5  and  C_6
REMARK    3  A    between atoms: C_6  and  O_7
REMARK    4  A    between atoms: O_7  and  C_8
REMARK    5  A    between atoms: C_8  and  C_9
REMARK    6  A    between atoms: C_10  and  C_11
REMARK    7  A    between atoms: C_10  and  C_12
REMARK    8  A    between atoms: C_12  and  C_13
REMARK    9  A    between atoms: C_13  and  C_14
REMARK   10  A    between atoms: C_15  and  C_16
REMARK   11  A    between atoms: C_15  and  C_17
REMARK                            x       y       z     vdW  Elec       q    Type
REMARK                         _______ _______ _______ _____ _____    ______ ____
ROOT
ATOM      1  O   LIG A   1      -8.136   1.603 122.661  0.00  0.00    -0.457 OA
ENDROOT
BRANCH   1   2
ATOM      2  C   LIG A   1      -8.064   2.944 122.846  0.00  0.00    +0.340 C 
ATOM      3  O   LIG A   1      -8.437   3.571 123.825  0.00  0.00    -0.245 OA
BRANCH   2   7
ATOM      4  C   LIG A   1      -6.127   4.784 119.518  0.00  0.00    +0.117 A 
ATOM      5  C   LIG A   1      -7.466   4.444 119.409  0.00  0.00    +0.046 A 
ATOM      6  C   LIG A   1      -8.118   3.852 120.490  0.00  0.00    +0.018 A 
ATOM      7  C   LIG A   1      -7.417   3.596 121.679  0.00  0.00    +0.059 A 
ATOM      8  C   LIG A   1      -6.056   3.926 121.762  0.00  0.00    +0.018 A 
ATOM      9  C   LIG A   1      -5.409   4.524 120.683  0.00  0.00    +0.046 A 
BRANCH   4  10
ATOM     10  O   LIG A   1      -5.462   5.384 118.486  0.00  0.00    -0.507 OA
ATOM     11  H   LIG A   1      -4.520   5.149 118.547  0.00  0.00    +0.292 HD
ENDBRANCH   4  10
ENDBRANCH   2   7
ENDBRANCH   1   2
BRANCH   1  12
ATOM     12  C   LIG A   1      -7.461   0.755 123.618  0.00  0.00    +0.260 C 
BRANCH  12  13
ATOM     13  C   LIG A   1      -8.134  -0.568 123.774  0.00  0.00    +0.012 C 
ATOM     14  C   LIG A   1      -7.775  -1.789 123.338  0.00  0.00    -0.073 C 
ATOM     15  C   LIG A   1      -6.518  -2.029 122.551  0.00  0.00    +0.038 C 
BRANCH  14  16
ATOM     16  C   LIG A   1      -8.600  -3.041 123.632  0.00  0.00    +0.034 C 
BRANCH  16  17
ATOM     17  C   LIG A   1      -8.141  -3.986 124.771  0.00  0.00    +0.031 C 
BRANCH  17  18
ATOM     18  C   LIG A   1      -8.362  -3.405 126.147  0.00  0.00    -0.028 C 
ATOM     19  C   LIG A   1      -7.510  -2.654 126.872  0.00  0.00    -0.080 C 
ATOM     20  C   LIG A   1      -6.093  -2.314 126.490  0.00  0.00    +0.038 C 
ATOM     21  C   LIG A   1      -7.967  -1.974 128.139  0.00  0.00    +0.038 C 
ENDBRANCH  17  18
ENDBRANCH  16  17
ENDBRANCH  14  16
ENDBRANCH  12  13
ENDBRANCH   1  12
TORSDOF 8
ENDMDL
MODEL 4
REMARK VINA RESULT:      -6.6      4.136      7.136
REMARK  Name = NuBBE_4
REMARK  11 active torsions:
REMARK  status: ('A' for Active; 'I' for Inactive)
REMARK    1  A    between atoms: O_1  and  C_2
REMARK    2  A    between atoms: C_5  and  C_6
REMARK    3  A    between atoms: C_6  and  O_7
REMARK    4  A    between atoms: O_7  and  C_8
REMARK    5  A    between atoms: C_8  and  C_9
REMARK    6  A    between atoms: C_10  and  C_11
REMARK    7  A    between atoms: C_10  and  C_12
REMARK    8  A    between atoms: C_12  and  C_13
REMARK    9  A    between atoms: C_13  and  C_14
REMARK   10  A    between atoms: C_15  and  C_16
REMARK   11  A    between atoms: C_15  and  C_17
REMARK                            x       y       z     vdW  Elec       q    Type
REMARK                         _______ _______ _______ _____ _____    ______ ____
ROOT
ATOM      1  O   LIG A   1      -8.064  -1.551 127.296  0.00  0.00    -0.457 OA
ENDROOT
BRANCH   1   2
ATOM      2  C   LIG A   1      -8.042  -2.766 127.897  0.00  0.00    +0.340 C 
ATOM      3  O   LIG A   1      -8.874  -3.651 127.793  0.00  0.00    -0.245 OA
BRANCH   2   7
ATOM      4  C   LIG A   1      -4.525  -3.288 130.259  0.00  0.00    +0.117 A 
ATOM      5  C   LIG A   1      -4.510  -2.357 129.233  0.00  0.00    +0.046 A 
ATOM      6  C   LIG A   1      -5.653  -2.165 128.458  0.00  0.00    +0.018 A 
ATOM      7  C   LIG A   1      -6.809  -2.918 128.713  0.00  0.00    +0.059 A 
ATOM      8  C   LIG A   1      -6.798  -3.873 129.741  0.00  0.00    +0.018 A 
ATOM      9  C   LIG A   1      -5.657  -4.057 130.519  0.00  0.00    +0.046 A 
BRANCH   4  10
ATOM     10  O   LIG A   1      -3.430  -3.487 131.051  0.00  0.00    -0.507 OA
ATOM     11  H   LIG A   1      -2.846  -4.132 130.615  0.00  0.00    +0.292 HD
ENDBRANCH   4  10
ENDBRANCH   2   7
ENDBRANCH   1   2
BRANCH   1  12
ATOM     12  C   LIG A   1      -9.040  -1.335 126.251  0.00  0.00    +0.260 C 
BRANCH  12  13
ATOM     13  C   LIG A   1      -8.423  -1.336 124.893  0.00  0.00    +0.012 C 
ATOM     14  C   LIG A   1      -8.574  -2.190 123.864  0.00  0.00    -0.073 C 
ATOM     15  C   LIG A   1      -9.477  -3.389 123.934  0.00  0.00    +0.038 C 
BRANCH  14  16
ATOM     16  C   LIG A   1      -7.864  -1.996 122.525  0.00  0.00    +0.034 C 
BRANCH  16  17
ATOM     17  C   LIG A   1      -6.380  -1.554 122.525  0.00  0.00    +0.031 C 
BRANCH  17  18
ATOM     18  C   LIG A   1      -5.416  -2.717 122.563  0.00  0.00    -0.028 C 
ATOM     19  C   LIG A   1      -4.970  -3.383 123.645  0.00  0.00    -0.080 C 
ATOM     20  C   LIG A   1      -5.272  -3.036 125.080  0.00  0.00    +0.038 C 
ATOM     21  C   LIG A   1      -4.177  -4.658 123.495  0.00  0.00    +0.038 C 
ENDBRANCH  17  18
ENDBRANCH  16  17
ENDBRANCH  14  16
ENDBRANCH  12  13
ENDBRANCH   1  12
TORSDOF 8
ENDMDL
MODEL 5
REMARK VINA RESULT:      -6.6      8.986     10.273
REMARK  Name = NuBBE_4
REMARK  11 active torsions:
REMARK  status: ('A' for Active; 'I' for Inactive)
REMARK    1  A    between atoms: O_1  and  C_2
REMARK    2  A    between atoms: C_5  and  C_6
REMARK    3  A    between atoms: C_6  and  O_7
REMARK    4  A    between atoms: O_7  and  C_8
REMARK    5  A    between atoms: C_8  and  C_9
REMARK    6  A    between atoms: C_10  and  C_11
REMARK    7  A    between atoms: C_10  and  C_12
REMARK    8  A    between atoms: C_12  and  C_13
REMARK    9  A    between atoms: C_13  and  C_14
REMARK   10  A    between atoms: C_15  and  C_16
REMARK   11  A    between atoms: C_15  and  C_17
REMARK                            x       y       z     vdW  Elec       q    Type
REMARK                         _______ _______ _______ _____ _____    ______ ____
ROOT
ATOM      1  O   LIG A   1     -11.557   5.687 131.194  0.00  0.00    -0.457 OA
ENDROOT
BRANCH   1   2
ATOM      2  C   LIG A   1     -12.304   6.749 130.806  0.00  0.00    +0.340 C 
ATOM      3  O   LIG A   1     -13.097   7.377 131.488  0.00  0.00    -0.245 OA
BRANCH   2   7
ATOM      4  C   LIG A   1     -11.372   7.765 126.767  0.00  0.00    +0.117 A 
ATOM      5  C   LIG A   1     -12.532   7.054 127.028  0.00  0.00    +0.046 A 
ATOM      6  C   LIG A   1     -12.858   6.723 128.342  0.00  0.00    +0.018 A 
ATOM      7  C   LIG A   1     -12.010   7.102 129.394  0.00  0.00    +0.059 A 
ATOM      8  C   LIG A   1     -10.828   7.802 129.108  0.00  0.00    +0.018 A 
ATOM      9  C   LIG A   1     -10.508   8.138 127.794  0.00  0.00    +0.046 A 
BRANCH   4  10
ATOM     10  O   LIG A   1     -11.032   8.124 125.493  0.00  0.00    -0.507 OA
ATOM     11  H   LIG A   1     -11.828   8.457 125.043  0.00  0.00    +0.292 HD
ENDBRANCH   4  10
ENDBRANCH   2   7
ENDBRANCH   1   2
BRANCH   1  12
ATOM     12  C   LIG A   1     -10.665   5.867 132.318  0.00  0.00    +0.260 C 
BRANCH  12  13
ATOM     13  C   LIG A   1      -9.386   6.527 131.925  0.00  0.00    +0.012 C 
ATOM     14  C   LIG A   1      -8.249   6.006 131.429  0.00  0.00    -0.073 C 
ATOM     15  C   LIG A   1      -8.079   4.536 131.169  0.00  0.00    +0.038 C 
BRANCH  14  16
ATOM     16  C   LIG A   1      -7.043   6.869 131.059  0.00  0.00    +0.034 C 
BRANCH  16  17
ATOM     17  C   LIG A   1      -5.669   6.543 131.695  0.00  0.00    +0.031 C 
BRANCH  17  18
ATOM     18  C   LIG A   1      -4.606   6.218 130.674  0.00  0.00    -0.028 C 
ATOM     19  C   LIG A   1      -3.872   7.081 129.944  0.00  0.00    -0.080 C 
ATOM     20  C   LIG A   1      -4.034   8.578 129.926  0.00  0.00    +0.038 C 
ATOM     21  C   LIG A   1      -2.701   6.597 129.124  0.00  0.00    +0.038 C 
ENDBRANCH  17  18
ENDBRANCH  16  17
ENDBRANCH  14  16
ENDBRANCH  12  13
ENDBRANCH   1  12
TORSDOF 8
ENDMDL
MODEL 6
REMARK VINA RESULT:      -6.5      2.890      5.402
REMARK  Name = NuBBE_4
REMARK  11 active torsions:
REMARK  status: ('A' for Active; 'I' for Inactive)
REMARK    1  A    between atoms: O_1  and  C_2
REMARK    2  A    between atoms: C_5  and  C_6
REMARK    3  A    between atoms: C_6  and  O_7
REMARK    4  A    between atoms: O_7  and  C_8
REMARK    5  A    between atoms: C_8  and  C_9
REMARK    6  A    between atoms: C_10  and  C_11
REMARK    7  A    between atoms: C_10  and  C_12
REMARK    8  A    between atoms: C_12  and  C_13
REMARK    9  A    between atoms: C_13  and  C_14
REMARK   10  A    between atoms: C_15  and  C_16
REMARK   11  A    between atoms: C_15  and  C_17
REMARK                            x       y       z     vdW  Elec       q    Type
REMARK                         _______ _______ _______ _____ _____    ______ ____
ROOT
ATOM      1  O   LIG A   1      -8.694   0.586 123.501  0.00  0.00    -0.457 OA
ENDROOT
BRANCH   1   2
ATOM      2  C   LIG A   1      -9.077  -0.669 123.162  0.00  0.00    +0.340 C 
ATOM      3  O   LIG A   1     -10.154  -1.007 122.697  0.00  0.00    -0.245 OA
BRANCH   2   7
ATOM      4  C   LIG A   1      -5.958  -3.500 123.849  0.00  0.00    +0.117 A 
ATOM      5  C   LIG A   1      -5.664  -2.333 123.163  0.00  0.00    +0.046 A 
ATOM      6  C   LIG A   1      -6.668  -1.392 122.939  0.00  0.00    +0.018 A 
ATOM      7  C   LIG A   1      -7.971  -1.631 123.399  0.00  0.00    +0.059 A 
ATOM      8  C   LIG A   1      -8.256  -2.829 124.072  0.00  0.00    +0.018 A 
ATOM      9  C   LIG A   1      -7.249  -3.765 124.301  0.00  0.00    +0.046 A 
BRANCH   4  10
ATOM     10  O   LIG A   1      -4.995  -4.434 124.105  0.00  0.00    -0.507 OA
ATOM     11  H   LIG A   1      -5.359  -5.315 123.910  0.00  0.00    +0.292 HD
ENDBRANCH   4  10
ENDBRANCH   2   7
ENDBRANCH   1   2
BRANCH   1  12
ATOM     12  C   LIG A   1      -9.303   1.182 124.669  0.00  0.00    +0.260 C 
BRANCH  12  13
ATOM     13  C   LIG A   1      -8.680   0.704 125.938  0.00  0.00    +0.012 C 
ATOM     14  C   LIG A   1      -7.399   0.727 126.347  0.00  0.00    -0.073 C 
ATOM     15  C   LIG A   1      -6.292   1.296 125.506  0.00  0.00    +0.038 C 
BRANCH  14  16
ATOM     16  C   LIG A   1      -6.964   0.204 127.716  0.00  0.00    +0.034 C 
BRANCH  16  17
ATOM     17  C   LIG A   1      -6.240  -1.163 127.796  0.00  0.00    +0.031 C 
BRANCH  17  18
ATOM     18  C   LIG A   1      -7.147  -2.331 127.493  0.00  0.00    -0.028 C 
ATOM     19  C   LIG A   1      -7.940  -3.003 128.349  0.00  0.00    -0.080 C 
ATOM     20  C   LIG A   1      -8.015  -2.784 129.838  0.00  0.00    +0.038 C 
ATOM     21  C   LIG A   1      -8.946  -4.009 127.843  0.00  0.00    +0.038 C 
ENDBRANCH  17  18
ENDBRANCH  16  17
ENDBRANCH  14  16
ENDBRANCH  12  13
ENDBRANCH   1  12
TORSDOF 8
ENDMDL
MODEL 7
REMARK VINA RESULT:      -6.5      4.943      7.152
REMARK  Name = NuBBE_4
REMARK  11 active torsions:
REMARK  status: ('A' for Active; 'I' for Inactive)
REMARK    1  A    between atoms: O_1  and  C_2
REMARK    2  A    between atoms: C_5  and  C_6
REMARK    3  A    between atoms: C_6  and  O_7
REMARK    4  A    between atoms: O_7  and  C_8
REMARK    5  A    between atoms: C_8  and  C_9
REMARK    6  A    between atoms: C_10  and  C_11
REMARK    7  A    between atoms: C_10  and  C_12
REMARK    8  A    between atoms: C_12  and  C_13
REMARK    9  A    between atoms: C_13  and  C_14
REMARK   10  A    between atoms: C_15  and  C_16
REMARK   11  A    between atoms: C_15  and  C_17
REMARK                            x       y       z     vdW  Elec       q    Type
REMARK                         _______ _______ _______ _____ _____    ______ ____
ROOT
ATOM      1  O   LIG A   1      -6.819  -0.835 129.458  0.00  0.00    -0.457 OA
ENDROOT
BRANCH   1   2
ATOM      2  C   LIG A   1      -7.595  -0.876 130.569  0.00  0.00    +0.340 C 
ATOM      3  O   LIG A   1      -7.655  -1.777 131.390  0.00  0.00    -0.245 OA
BRANCH   2   7
ATOM      4  C   LIG A   1      -9.859   2.713 131.027  0.00  0.00    +0.117 A 
ATOM      5  C   LIG A   1      -9.032   2.580 129.924  0.00  0.00    +0.046 A 
ATOM      6  C   LIG A   1      -8.293   1.410 129.752  0.00  0.00    +0.018 A 
ATOM      7  C   LIG A   1      -8.383   0.377 130.698  0.00  0.00    +0.059 A 
ATOM      8  C   LIG A   1      -9.208   0.539 131.821  0.00  0.00    +0.018 A 
ATOM      9  C   LIG A   1      -9.951   1.706 131.986  0.00  0.00    +0.046 A 
BRANCH   4  10
ATOM     10  O   LIG A   1     -10.612   3.837 131.217  0.00  0.00    -0.507 OA
ATOM     11  H   LIG A   1     -11.302   3.640 131.874  0.00  0.00    +0.292 HD
ENDBRANCH   4  10
ENDBRANCH   2   7
ENDBRANCH   1   2
BRANCH   1  12
ATOM     12  C   LIG A   1      -6.707  -2.042 128.671  0.00  0.00    +0.260 C 
BRANCH  12  13
ATOM     13  C   LIG A   1      -7.552  -1.996 127.442  0.00  0.00    +0.012 C 
ATOM     14  C   LIG A   1      -8.538  -2.812 127.027  0.00  0.00    -0.073 C 
ATOM     15  C   LIG A   1      -8.983  -4.010 127.818  0.00  0.00    +0.038 C 
BRANCH  14  16
ATOM     16  C   LIG A   1      -9.313  -2.572 125.732  0.00  0.00    +0.034 C 
BRANCH  16  17
ATOM     17  C   LIG A   1      -8.952  -3.412 124.481  0.00  0.00    +0.031 C 
BRANCH  17  18
ATOM     18  C   LIG A   1      -7.491  -3.789 124.422  0.00  0.00    -0.028 C 
ATOM     19  C   LIG A   1      -6.479  -3.084 123.881  0.00  0.00    -0.080 C 
ATOM     20  C   LIG A   1      -6.614  -1.791 123.121  0.00  0.00    +0.038 C 
ATOM     21  C   LIG A   1      -5.045  -3.503 124.096  0.00  0.00    +0.038 C 
ENDBRANCH  17  18
ENDBRANCH  16  17
ENDBRANCH  14  16
ENDBRANCH  12  13
ENDBRANCH   1  12
TORSDOF 8
ENDMDL
MODEL 8
REMARK VINA RESULT:      -6.4      3.125      4.647
REMARK  Name = NuBBE_4
REMARK  11 active torsions:
REMARK  status: ('A' for Active; 'I' for Inactive)
REMARK    1  A    between atoms: O_1  and  C_2
REMARK    2  A    between atoms: C_5  and  C_6
REMARK    3  A    between atoms: C_6  and  O_7
REMARK    4  A    between atoms: O_7  and  C_8
REMARK    5  A    between atoms: C_8  and  C_9
REMARK    6  A    between atoms: C_10  and  C_11
REMARK    7  A    between atoms: C_10  and  C_12
REMARK    8  A    between atoms: C_12  and  C_13
REMARK    9  A    between atoms: C_13  and  C_14
REMARK   10  A    between atoms: C_15  and  C_16
REMARK   11  A    between atoms: C_15  and  C_17
REMARK                            x       y       z     vdW  Elec       q    Type
REMARK                         _______ _______ _______ _____ _____    ______ ____
ROOT
ATOM      1  O   LIG A   1      -8.713  -2.222 123.688  0.00  0.00    -0.457 OA
ENDROOT
BRANCH   1   2
ATOM      2  C   LIG A   1      -7.781  -1.373 123.191  0.00  0.00    +0.340 C 
ATOM      3  O   LIG A   1      -6.847  -1.655 122.458  0.00  0.00    -0.245 OA
BRANCH   2   7
ATOM      4  C   LIG A   1      -8.638   2.592 124.519  0.00  0.00    +0.117 A 
ATOM      5  C   LIG A   1      -7.363   2.300 124.063  0.00  0.00    +0.046 A 
ATOM      6  C   LIG A   1      -7.068   1.013 123.615  0.00  0.00    +0.018 A 
ATOM      7  C   LIG A   1      -8.057   0.018 123.635  0.00  0.00    +0.059 A 
ATOM      8  C   LIG A   1      -9.336   0.326 124.122  0.00  0.00    +0.018 A 
ATOM      9  C   LIG A   1      -9.630   1.615 124.562  0.00  0.00    +0.046 A 
BRANCH   4  10
ATOM     10  O   LIG A   1      -8.968   3.847 124.947  0.00  0.00    -0.507 OA
ATOM     11  H   LIG A   1      -8.973   4.444 124.178  0.00  0.00    +0.292 HD
ENDBRANCH   4  10
ENDBRANCH   2   7
ENDBRANCH   1   2
BRANCH   1  12
ATOM     12  C   LIG A   1      -8.252  -3.474 124.247  0.00  0.00    +0.260 C 
BRANCH  12  13
ATOM     13  C   LIG A   1      -8.572  -3.597 125.699  0.00  0.00    +0.012 C 
ATOM     14  C   LIG A   1      -8.022  -2.997 126.770  0.00  0.00    -0.073 C 
ATOM     15  C   LIG A   1      -6.892  -2.013 126.654  0.00  0.00    +0.038 C 
BRANCH  14  16
ATOM     16  C   LIG A   1      -8.520  -3.240 128.194  0.00  0.00    +0.034 C 
BRANCH  16  17
ATOM     17  C   LIG A   1      -7.757  -2.587 129.373  0.00  0.00    +0.031 C 
BRANCH  17  18
ATOM     18  C   LIG A   1      -7.105  -3.596 130.288  0.00  0.00    -0.028 C 
ATOM     19  C   LIG A   1      -5.807  -3.952 130.332  0.00  0.00    -0.080 C 
ATOM     20  C   LIG A   1      -4.731  -3.478 129.390  0.00  0.00    +0.038 C 
ATOM     21  C   LIG A   1      -5.281  -4.819 131.450  0.00  0.00    +0.038 C 
ENDBRANCH  17  18
ENDBRANCH  16  17
ENDBRANCH  14  16
ENDBRANCH  12  13
ENDBRANCH   1  12
TORSDOF 8
ENDMDL
MODEL 9
REMARK VINA RESULT:      -6.3      8.999     10.715
REMARK  Name = NuBBE_4
REMARK  11 active torsions:
REMARK  status: ('A' for Active; 'I' for Inactive)
REMARK    1  A    between atoms: O_1  and  C_2
REMARK    2  A    between atoms: C_5  and  C_6
REMARK    3  A    between atoms: C_6  and  O_7
REMARK    4  A    between atoms: O_7  and  C_8
REMARK    5  A    between atoms: C_8  and  C_9
REMARK    6  A    between atoms: C_10  and  C_11
REMARK    7  A    between atoms: C_10  and  C_12
REMARK    8  A    between atoms: C_12  and  C_13
REMARK    9  A    between atoms: C_13  and  C_14
REMARK   10  A    between atoms: C_15  and  C_16
REMARK   11  A    between atoms: C_15  and  C_17
REMARK                            x       y       z     vdW  Elec       q    Type
REMARK                         _______ _______ _______ _____ _____    ______ ____
ROOT
ATOM      1  O   LIG A   1      -8.242   7.028 130.922  0.00  0.00    -0.457 OA
ENDROOT
BRANCH   1   2
ATOM      2  C   LIG A   1      -9.460   6.434 130.975  0.00  0.00    +0.340 C 
ATOM      3  O   LIG A   1      -9.748   5.401 131.556  0.00  0.00    -0.245 OA
BRANCH   2   7
ATOM      4  C   LIG A   1     -12.384   8.769 128.922  0.00  0.00    +0.117 A 
ATOM      5  C   LIG A   1     -11.116   8.655 128.377  0.00  0.00    +0.046 A 
ATOM      6  C   LIG A   1     -10.151   7.887 129.028  0.00  0.00    +0.018 A 
ATOM      7  C   LIG A   1     -10.463   7.241 130.234  0.00  0.00    +0.059 A 
ATOM      8  C   LIG A   1     -11.746   7.387 130.783  0.00  0.00    +0.018 A 
ATOM      9  C   LIG A   1     -12.710   8.149 130.126  0.00  0.00    +0.046 A 
BRANCH   4  10
ATOM     10  O   LIG A   1     -13.360   9.496 128.301  0.00  0.00    -0.507 OA
ATOM     11  H   LIG A   1     -14.170   9.448 128.837  0.00  0.00    +0.292 HD
ENDBRANCH   4  10
ENDBRANCH   2   7
ENDBRANCH   1   2
BRANCH   1  12
ATOM     12  C   LIG A   1      -7.117   6.305 131.471  0.00  0.00    +0.260 C 
BRANCH  12  13
ATOM     13  C   LIG A   1      -5.810   6.906 131.074  0.00  0.00    +0.012 C 
ATOM     14  C   LIG A   1      -4.620   6.905 131.702  0.00  0.00    -0.073 C 
ATOM     15  C   LIG A   1      -4.405   6.230 133.027  0.00  0.00    +0.038 C 
BRANCH  14  16
ATOM     16  C   LIG A   1      -3.377   7.564 131.105  0.00  0.00    +0.034 C 
BRANCH  16  17
ATOM     17  C   LIG A   1      -2.158   6.674 130.753  0.00  0.00    +0.031 C 
BRANCH  17  18
ATOM     18  C   LIG A   1      -2.214   6.123 129.349  0.00  0.00    -0.028 C 
ATOM     19  C   LIG A   1      -2.815   4.992 128.930  0.00  0.00    -0.080 C 
ATOM     20  C   LIG A   1      -3.486   3.972 129.812  0.00  0.00    +0.038 C 
ATOM     21  C   LIG A   1      -2.961   4.695 127.457  0.00  0.00    +0.038 C 
ENDBRANCH  17  18
ENDBRANCH  16  17
ENDBRANCH  14  16
ENDBRANCH  12  13
ENDBRANCH   1  12
TORSDOF 8
ENDMDL
