MODEL 1
REMARK VINA RESULT:      -8.3      0.000      0.000
REMARK  Name = NuBBE_1090
REMARK  7 active torsions:
REMARK  status: ('A' for Active; 'I' for Inactive)
REMARK    1  A    between atoms: O_1  and  C_2
REMARK    2  A    between atoms: C_7  and  C_24
REMARK    3  A    between atoms: N_9  and  C_23
REMARK    4  A    between atoms: C_24  and  C_25
REMARK    5  A    between atoms: C_25  and  C_26
REMARK    6  A    between atoms: C_28  and  O_29
REMARK    7  A    between atoms: O_29  and  C_30
REMARK                            x       y       z     vdW  Elec       q    Type
REMARK                         _______ _______ _______ _____ _____    ______ ____
ROOT
ATOM      1  C   LIG A   1      -9.707   0.091 123.654  0.00  0.00    +0.159 A 
ATOM      2  C   LIG A   1      -9.789   1.082 124.631  0.00  0.00    +0.050 A 
ATOM      3  C   LIG A   1      -9.196   0.895 125.879  0.00  0.00    +0.012 A 
ATOM      4  C   LIG A   1      -8.472  -0.270 126.170  0.00  0.00    -0.007 A 
ATOM      5  C   LIG A   1      -8.371  -1.256 125.162  0.00  0.00    +0.026 A 
ATOM      6  C   LIG A   1      -7.484  -2.462 125.450  0.00  0.00    +0.115 C 
ATOM      7  N   LIG A   1      -7.671  -2.924 126.862  0.00  0.00    -0.324 N 
ATOM      8  C   LIG A   1      -7.514  -1.882 127.833  0.00  0.00    +0.046 A 
ATOM      9  C   LIG A   1      -7.867  -0.544 127.494  0.00  0.00    +0.004 A 
ATOM     10  C   LIG A   1      -7.655   0.462 128.448  0.00  0.00    +0.011 A 
ATOM     11  C   LIG A   1      -7.163   0.169 129.721  0.00  0.00    +0.009 A 
ATOM     12  C   LIG A   1      -6.849  -1.141 130.086  0.00  0.00    -0.012 A 
ATOM     13  C   LIG A   1      -7.003  -2.194 129.134  0.00  0.00    +0.007 A 
ATOM     14  C   LIG A   1      -6.627  -3.501 129.528  0.00  0.00    +0.060 A 
ATOM     15  C   LIG A   1      -6.183  -3.722 130.816  0.00  0.00    +0.167 A 
ATOM     16  O   LIG A   1      -5.824  -4.924 131.342  0.00  0.00    -0.453 OA
ATOM     17  C   LIG A   1      -5.493  -4.541 132.693  0.00  0.00    +0.466 C 
ATOM     18  O   LIG A   1      -5.621  -3.124 132.933  0.00  0.00    -0.453 OA
ATOM     19  C   LIG A   1      -6.067  -2.701 131.721  0.00  0.00    +0.167 A 
ATOM     20  C   LIG A   1      -6.378  -1.403 131.385  0.00  0.00    +0.058 A 
ATOM     21  C   LIG A   1      -8.925  -3.662 127.082  0.00  0.00    +0.130 C 
ATOM     22  C   LIG A   1      -9.022  -1.102 123.913  0.00  0.00    +0.167 A 
ENDROOT
BRANCH   1  23
ATOM     23  O   LIG A   1     -10.299   0.332 122.447  0.00  0.00    -0.503 OA
ATOM     24  H   LIG A   1     -10.628  -0.502 122.075  0.00  0.00    +0.292 HD
ENDBRANCH   1  23
BRANCH  22  25
ATOM     25  O   LIG A   1      -8.892  -2.176 123.074  0.00  0.00    -0.491 OA
ATOM     26  C   LIG A   1      -9.762  -3.288 123.222  0.00  0.00    +0.277 C 
ENDBRANCH  22  25
BRANCH   6  27
ATOM     27  C   LIG A   1      -5.990  -2.179 125.206  0.00  0.00    +0.101 C 
BRANCH  27  28
ATOM     28  C   LIG A   1      -5.475  -2.758 123.905  0.00  0.00    +0.132 C 
ATOM     29  C   LIG A   1      -4.676  -4.040 123.972  0.00  0.00    +0.086 C 
ATOM     30  O   LIG A   1      -5.670  -2.196 122.831  0.00  0.00    -0.298 OA
ENDBRANCH  27  28
ENDBRANCH   6  27
TORSDOF 4
ENDMDL
MODEL 2
REMARK VINA RESULT:      -7.9      2.822      4.671
REMARK  Name = NuBBE_1090
REMARK  7 active torsions:
REMARK  status: ('A' for Active; 'I' for Inactive)
REMARK    1  A    between atoms: O_1  and  C_2
REMARK    2  A    between atoms: C_7  and  C_24
REMARK    3  A    between atoms: N_9  and  C_23
REMARK    4  A    between atoms: C_24  and  C_25
REMARK    5  A    between atoms: C_25  and  C_26
REMARK    6  A    between atoms: C_28  and  O_29
REMARK    7  A    between atoms: O_29  and  C_30
REMARK                            x       y       z     vdW  Elec       q    Type
REMARK                         _______ _______ _______ _____ _____    ______ ____
ROOT
ATOM      1  C   LIG A   1      -8.541   2.784 122.933  0.00  0.00    +0.159 A 
ATOM      2  C   LIG A   1      -9.223   1.586 122.726  0.00  0.00    +0.050 A 
ATOM      3  C   LIG A   1      -9.150   0.561 123.669  0.00  0.00    +0.012 A 
ATOM      4  C   LIG A   1      -8.428   0.721 124.860  0.00  0.00    -0.007 A 
ATOM      5  C   LIG A   1      -7.764   1.951 125.072  0.00  0.00    +0.026 A 
ATOM      6  C   LIG A   1      -7.082   2.155 126.420  0.00  0.00    +0.115 C 
ATOM      7  N   LIG A   1      -6.383   0.902 126.847  0.00  0.00    -0.324 N 
ATOM      8  C   LIG A   1      -7.221  -0.261 126.825  0.00  0.00    +0.046 A 
ATOM      9  C   LIG A   1      -8.274  -0.352 125.870  0.00  0.00    +0.004 A 
ATOM     10  C   LIG A   1      -9.109  -1.478 125.905  0.00  0.00    +0.011 A 
ATOM     11  C   LIG A   1      -8.894  -2.518 126.812  0.00  0.00    +0.009 A 
ATOM     12  C   LIG A   1      -7.843  -2.466 127.729  0.00  0.00    -0.012 A 
ATOM     13  C   LIG A   1      -6.994  -1.318 127.764  0.00  0.00    +0.007 A 
ATOM     14  C   LIG A   1      -5.970  -1.283 128.742  0.00  0.00    +0.060 A 
ATOM     15  C   LIG A   1      -5.793  -2.365 129.580  0.00  0.00    +0.167 A 
ATOM     16  O   LIG A   1      -4.833  -2.485 130.537  0.00  0.00    -0.453 OA
ATOM     17  C   LIG A   1      -5.121  -3.804 131.045  0.00  0.00    +0.466 C 
ATOM     18  O   LIG A   1      -6.262  -4.423 130.415  0.00  0.00    -0.453 OA
ATOM     19  C   LIG A   1      -6.603  -3.466 129.512  0.00  0.00    +0.167 A 
ATOM     20  C   LIG A   1      -7.640  -3.542 128.611  0.00  0.00    +0.058 A 
ATOM     21  C   LIG A   1      -5.122   0.654 126.130  0.00  0.00    +0.130 C 
ATOM     22  C   LIG A   1      -7.781   2.975 124.093  0.00  0.00    +0.167 A 
ENDROOT
BRANCH   1  23
ATOM     23  O   LIG A   1      -8.655   3.757 121.980  0.00  0.00    -0.503 OA
ATOM     24  H   LIG A   1      -9.067   4.545 122.369  0.00  0.00    +0.292 HD
ENDBRANCH   1  23
BRANCH  22  25
ATOM     25  O   LIG A   1      -7.029   4.073 124.414  0.00  0.00    -0.491 OA
ATOM     26  C   LIG A   1      -5.749   4.240 123.823  0.00  0.00    +0.277 C 
ENDBRANCH  22  25
BRANCH   6  27
ATOM     27  C   LIG A   1      -8.061   2.588 127.527  0.00  0.00    +0.101 C 
BRANCH  27  28
ATOM     28  C   LIG A   1      -7.834   4.006 128.007  0.00  0.00    +0.132 C 
ATOM     29  C   LIG A   1      -6.792   4.228 129.080  0.00  0.00    +0.086 C 
ATOM     30  O   LIG A   1      -8.490   4.946 127.566  0.00  0.00    -0.298 OA
ENDBRANCH  27  28
ENDBRANCH   6  27
TORSDOF 4
ENDMDL
MODEL 3
REMARK VINA RESULT:      -7.8      3.772      7.496
REMARK  Name = NuBBE_1090
REMARK  7 active torsions:
REMARK  status: ('A' for Active; 'I' for Inactive)
REMARK    1  A    between atoms: O_1  and  C_2
REMARK    2  A    between atoms: C_7  and  C_24
REMARK    3  A    between atoms: N_9  and  C_23
REMARK    4  A    between atoms: C_24  and  C_25
REMARK    5  A    between atoms: C_25  and  C_26
REMARK    6  A    between atoms: C_28  and  O_29
REMARK    7  A    between atoms: O_29  and  C_30
REMARK                            x       y       z     vdW  Elec       q    Type
REMARK                         _______ _______ _______ _____ _____    ______ ____
ROOT
ATOM      1  C   LIG A   1      -8.007  -2.402 127.894  0.00  0.00    +0.159 A 
ATOM      2  C   LIG A   1      -7.218  -1.478 128.577  0.00  0.00    +0.050 A 
ATOM      3  C   LIG A   1      -6.798  -0.307 127.946  0.00  0.00    +0.012 A 
ATOM      4  C   LIG A   1      -7.186  -0.010 126.632  0.00  0.00    -0.007 A 
ATOM      5  C   LIG A   1      -8.010  -0.942 125.960  0.00  0.00    +0.026 A 
ATOM      6  C   LIG A   1      -8.520  -0.553 124.577  0.00  0.00    +0.115 C 
ATOM      7  N   LIG A   1      -7.439   0.118 123.789  0.00  0.00    -0.324 N 
ATOM      8  C   LIG A   1      -6.823   1.215 124.476  0.00  0.00    +0.046 A 
ATOM      9  C   LIG A   1      -6.726   1.191 125.897  0.00  0.00    +0.004 A 
ATOM     10  C   LIG A   1      -6.164   2.300 126.545  0.00  0.00    +0.011 A 
ATOM     11  C   LIG A   1      -5.660   3.386 125.827  0.00  0.00    +0.009 A 
ATOM     12  C   LIG A   1      -5.709   3.412 124.433  0.00  0.00    -0.012 A 
ATOM     13  C   LIG A   1      -6.314   2.326 123.730  0.00  0.00    +0.007 A 
ATOM     14  C   LIG A   1      -6.388   2.413 122.318  0.00  0.00    +0.060 A 
ATOM     15  C   LIG A   1      -5.834   3.500 121.673  0.00  0.00    +0.167 A 
ATOM     16  O   LIG A   1      -5.799   3.698 120.328  0.00  0.00    -0.453 OA
ATOM     17  C   LIG A   1      -5.085   4.950 120.257  0.00  0.00    +0.466 C 
ATOM     18  O   LIG A   1      -4.746   5.489 121.552  0.00  0.00    -0.453 OA
ATOM     19  C   LIG A   1      -5.236   4.518 122.367  0.00  0.00    +0.167 A 
ATOM     20  C   LIG A   1      -5.169   4.510 123.741  0.00  0.00    +0.058 A 
ATOM     21  C   LIG A   1      -6.423  -0.810 123.267  0.00  0.00    +0.130 C 
ATOM     22  C   LIG A   1      -8.392  -2.163 126.570  0.00  0.00    +0.167 A 
ENDROOT
BRANCH   1  23
ATOM     23  O   LIG A   1      -8.398  -3.527 128.564  0.00  0.00    -0.503 OA
ATOM     24  H   LIG A   1      -9.020  -3.284 129.269  0.00  0.00    +0.292 HD
ENDBRANCH   1  23
BRANCH  22  25
ATOM     25  O   LIG A   1      -9.125  -2.990 125.762  0.00  0.00    -0.491 OA
ATOM     26  C   LIG A   1      -8.461  -3.976 124.985  0.00  0.00    +0.277 C 
ENDBRANCH  22  25
BRANCH   6  27
ATOM     27  C   LIG A   1      -9.752   0.370 124.631  0.00  0.00    +0.101 C 
BRANCH  27  28
ATOM     28  C   LIG A   1     -10.228   0.816 123.264  0.00  0.00    +0.132 C 
ATOM     29  C   LIG A   1      -9.759   2.161 122.759  0.00  0.00    +0.086 C 
ATOM     30  O   LIG A   1     -10.993   0.126 122.595  0.00  0.00    -0.298 OA
ENDBRANCH  27  28
ENDBRANCH   6  27
TORSDOF 4
ENDMDL
MODEL 4
REMARK VINA RESULT:      -7.7      4.013      5.310
REMARK  Name = NuBBE_1090
REMARK  7 active torsions:
REMARK  status: ('A' for Active; 'I' for Inactive)
REMARK    1  A    between atoms: O_1  and  C_2
REMARK    2  A    between atoms: C_7  and  C_24
REMARK    3  A    between atoms: N_9  and  C_23
REMARK    4  A    between atoms: C_24  and  C_25
REMARK    5  A    between atoms: C_25  and  C_26
REMARK    6  A    between atoms: C_28  and  O_29
REMARK    7  A    between atoms: O_29  and  C_30
REMARK                            x       y       z     vdW  Elec       q    Type
REMARK                         _______ _______ _______ _____ _____    ______ ____
ROOT
ATOM      1  C   LIG A   1      -9.725   0.677 122.902  0.00  0.00    +0.159 A 
ATOM      2  C   LIG A   1      -9.399   1.963 122.473  0.00  0.00    +0.050 A 
ATOM      3  C   LIG A   1      -8.429   2.705 123.146  0.00  0.00    +0.012 A 
ATOM      4  C   LIG A   1      -7.733   2.170 124.239  0.00  0.00    -0.007 A 
ATOM      5  C   LIG A   1      -8.053   0.854 124.646  0.00  0.00    +0.026 A 
ATOM      6  C   LIG A   1      -7.208   0.242 125.759  0.00  0.00    +0.115 C 
ATOM      7  N   LIG A   1      -6.933   1.256 126.825  0.00  0.00    -0.324 N 
ATOM      8  C   LIG A   1      -6.380   2.481 126.326  0.00  0.00    +0.046 A 
ATOM      9  C   LIG A   1      -6.733   2.932 125.022  0.00  0.00    +0.004 A 
ATOM     10  C   LIG A   1      -6.138   4.108 124.541  0.00  0.00    +0.011 A 
ATOM     11  C   LIG A   1      -5.261   4.856 125.328  0.00  0.00    +0.009 A 
ATOM     12  C   LIG A   1      -4.934   4.452 126.623  0.00  0.00    -0.012 A 
ATOM     13  C   LIG A   1      -5.478   3.238 127.140  0.00  0.00    +0.007 A 
ATOM     14  C   LIG A   1      -5.083   2.838 128.441  0.00  0.00    +0.060 A 
ATOM     15  C   LIG A   1      -4.243   3.648 129.176  0.00  0.00    +0.167 A 
ATOM     16  O   LIG A   1      -3.811   3.411 130.444  0.00  0.00    -0.453 OA
ATOM     17  C   LIG A   1      -3.012   4.588 130.683  0.00  0.00    +0.466 C 
ATOM     18  O   LIG A   1      -2.951   5.478 129.549  0.00  0.00    -0.453 OA
ATOM     19  C   LIG A   1      -3.753   4.822 128.669  0.00  0.00    +0.167 A 
ATOM     20  C   LIG A   1      -4.068   5.244 127.398  0.00  0.00    +0.058 A 
ATOM     21  C   LIG A   1      -8.085   1.519 127.703  0.00  0.00    +0.130 C 
ATOM     22  C   LIG A   1      -9.079   0.114 124.008  0.00  0.00    +0.167 A 
ENDROOT
BRANCH   1  23
ATOM     23  O   LIG A   1     -10.676  -0.008 122.199  0.00  0.00    -0.503 OA
ATOM     24  H   LIG A   1     -10.453  -0.954 122.190  0.00  0.00    +0.292 HD
ENDBRANCH   1  23
BRANCH  22  25
ATOM     25  O   LIG A   1      -9.320  -1.112 124.567  0.00  0.00    -0.491 OA
ATOM     26  C   LIG A   1      -9.012  -2.287 123.832  0.00  0.00    +0.277 C 
ENDBRANCH  22  25
BRANCH   6  27
ATOM     27  C   LIG A   1      -5.872  -0.330 125.250  0.00  0.00    +0.101 C 
BRANCH  27  28
ATOM     28  C   LIG A   1      -5.777  -1.836 125.374  0.00  0.00    +0.132 C 
ATOM     29  C   LIG A   1      -5.268  -2.610 124.180  0.00  0.00    +0.086 C 
ATOM     30  O   LIG A   1      -6.129  -2.419 126.397  0.00  0.00    -0.298 OA
ENDBRANCH  27  28
ENDBRANCH   6  27
TORSDOF 4
ENDMDL
MODEL 5
REMARK VINA RESULT:      -7.6      1.852      3.750
REMARK  Name = NuBBE_1090
REMARK  7 active torsions:
REMARK  status: ('A' for Active; 'I' for Inactive)
REMARK    1  A    between atoms: O_1  and  C_2
REMARK    2  A    between atoms: C_7  and  C_24
REMARK    3  A    between atoms: N_9  and  C_23
REMARK    4  A    between atoms: C_24  and  C_25
REMARK    5  A    between atoms: C_25  and  C_26
REMARK    6  A    between atoms: C_28  and  O_29
REMARK    7  A    between atoms: O_29  and  C_30
REMARK                            x       y       z     vdW  Elec       q    Type
REMARK                         _______ _______ _______ _____ _____    ______ ____
ROOT
ATOM      1  C   LIG A   1      -9.079  -1.644 123.059  0.00  0.00    +0.159 A 
ATOM      2  C   LIG A   1      -9.361  -2.899 123.596  0.00  0.00    +0.050 A 
ATOM      3  C   LIG A   1      -9.075  -3.174 124.934  0.00  0.00    +0.012 A 
ATOM      4  C   LIG A   1      -8.539  -2.192 125.778  0.00  0.00    -0.007 A 
ATOM      5  C   LIG A   1      -8.284  -0.914 125.228  0.00  0.00    +0.026 A 
ATOM      6  C   LIG A   1      -7.811   0.176 126.184  0.00  0.00    +0.115 C 
ATOM      7  N   LIG A   1      -6.818  -0.375 127.157  0.00  0.00    -0.324 N 
ATOM      8  C   LIG A   1      -7.275  -1.547 127.844  0.00  0.00    +0.046 A 
ATOM      9  C   LIG A   1      -8.168  -2.444 127.190  0.00  0.00    +0.004 A 
ATOM     10  C   LIG A   1      -8.638  -3.555 127.904  0.00  0.00    +0.011 A 
ATOM     11  C   LIG A   1      -8.209  -3.820 129.206  0.00  0.00    +0.009 A 
ATOM     12  C   LIG A   1      -7.304  -2.976 129.851  0.00  0.00    -0.012 A 
ATOM     13  C   LIG A   1      -6.833  -1.806 129.182  0.00  0.00    +0.007 A 
ATOM     14  C   LIG A   1      -5.953  -0.949 129.888  0.00  0.00    +0.060 A 
ATOM     15  C   LIG A   1      -5.542  -1.295 131.159  0.00  0.00    +0.167 A 
ATOM     16  O   LIG A   1      -4.677  -0.591 131.938  0.00  0.00    -0.453 OA
ATOM     17  C   LIG A   1      -4.611  -1.438 133.104  0.00  0.00    +0.466 C 
ATOM     18  O   LIG A   1      -5.463  -2.601 133.015  0.00  0.00    -0.453 OA
ATOM     19  C   LIG A   1      -5.987  -2.436 131.772  0.00  0.00    +0.167 A 
ATOM     20  C   LIG A   1      -6.874  -3.286 131.153  0.00  0.00    +0.058 A 
ATOM     21  C   LIG A   1      -5.481  -0.594 126.580  0.00  0.00    +0.130 C 
ATOM     22  C   LIG A   1      -8.512  -0.644 123.856  0.00  0.00    +0.167 A 
ENDROOT
BRANCH   1  23
ATOM     23  O   LIG A   1      -9.388  -1.428 121.745  0.00  0.00    -0.503 OA
ATOM     24  H   LIG A   1     -10.320  -1.651 121.591  0.00  0.00    +0.292 HD
ENDBRANCH   1  23
BRANCH  22  25
ATOM     25  O   LIG A   1      -8.144   0.615 123.462  0.00  0.00    -0.491 OA
ATOM     26  C   LIG A   1      -9.146   1.593 123.225  0.00  0.00    +0.277 C 
ENDBRANCH  22  25
BRANCH   6  27
ATOM     27  C   LIG A   1      -8.967   0.834 126.961  0.00  0.00    +0.101 C 
BRANCH  27  28
ATOM     28  C   LIG A   1      -8.531   2.017 127.798  0.00  0.00    +0.132 C 
ATOM     29  C   LIG A   1      -8.469   1.834 129.297  0.00  0.00    +0.086 C 
ATOM     30  O   LIG A   1      -8.262   3.101 127.287  0.00  0.00    -0.298 OA
ENDBRANCH  27  28
ENDBRANCH   6  27
TORSDOF 4
ENDMDL
MODEL 6
REMARK VINA RESULT:      -7.5      2.700      4.338
REMARK  Name = NuBBE_1090
REMARK  7 active torsions:
REMARK  status: ('A' for Active; 'I' for Inactive)
REMARK    1  A    between atoms: O_1  and  C_2
REMARK    2  A    between atoms: C_7  and  C_24
REMARK    3  A    between atoms: N_9  and  C_23
REMARK    4  A    between atoms: C_24  and  C_25
REMARK    5  A    between atoms: C_25  and  C_26
REMARK    6  A    between atoms: C_28  and  O_29
REMARK    7  A    between atoms: O_29  and  C_30
REMARK                            x       y       z     vdW  Elec       q    Type
REMARK                         _______ _______ _______ _____ _____    ______ ____
ROOT
ATOM      1  C   LIG A   1      -8.399  -3.220 126.250  0.00  0.00    +0.159 A 
ATOM      2  C   LIG A   1      -9.095  -3.724 127.347  0.00  0.00    +0.050 A 
ATOM      3  C   LIG A   1      -8.591  -3.561 128.637  0.00  0.00    +0.012 A 
ATOM      4  C   LIG A   1      -7.400  -2.858 128.868  0.00  0.00    -0.007 A 
ATOM      5  C   LIG A   1      -6.718  -2.327 127.749  0.00  0.00    +0.026 A 
ATOM      6  C   LIG A   1      -5.490  -1.465 128.023  0.00  0.00    +0.115 C 
ATOM      7  N   LIG A   1      -4.669  -2.060 129.124  0.00  0.00    -0.324 N 
ATOM      8  C   LIG A   1      -5.418  -2.343 130.313  0.00  0.00    +0.046 A 
ATOM      9  C   LIG A   1      -6.793  -2.701 130.210  0.00  0.00    +0.004 A 
ATOM     10  C   LIG A   1      -7.513  -2.923 131.393  0.00  0.00    +0.011 A 
ATOM     11  C   LIG A   1      -6.899  -2.851 132.645  0.00  0.00    +0.009 A 
ATOM     12  C   LIG A   1      -5.544  -2.542 132.764  0.00  0.00    -0.012 A 
ATOM     13  C   LIG A   1      -4.779  -2.262 131.592  0.00  0.00    +0.007 A 
ATOM     14  C   LIG A   1      -3.419  -1.904 131.760  0.00  0.00    +0.060 A 
ATOM     15  C   LIG A   1      -2.870  -1.891 133.026  0.00  0.00    +0.167 A 
ATOM     16  O   LIG A   1      -1.577  -1.604 133.333  0.00  0.00    -0.453 OA
ATOM     17  C   LIG A   1      -1.592  -1.781 134.765  0.00  0.00    +0.466 C 
ATOM     18  O   LIG A   1      -2.893  -2.128 135.284  0.00  0.00    -0.453 OA
ATOM     19  C   LIG A   1      -3.617  -2.188 134.135  0.00  0.00    +0.167 A 
ATOM     20  C   LIG A   1      -4.953  -2.504 134.040  0.00  0.00    +0.058 A 
ATOM     21  C   LIG A   1      -3.882  -3.233 128.708  0.00  0.00    +0.130 C 
ATOM     22  C   LIG A   1      -7.189  -2.540 126.430  0.00  0.00    +0.167 A 
ENDROOT
BRANCH   1  23
ATOM     23  O   LIG A   1      -8.944  -3.401 125.010  0.00  0.00    -0.503 OA
ATOM     24  H   LIG A   1      -8.424  -2.911 124.352  0.00  0.00    +0.292 HD
ENDBRANCH   1  23
BRANCH  22  25
ATOM     25  O   LIG A   1      -6.378  -2.029 125.453  0.00  0.00    -0.491 OA
ATOM     26  C   LIG A   1      -5.586  -2.910 124.671  0.00  0.00    +0.277 C 
ENDBRANCH  22  25
BRANCH   6  27
ATOM     27  C   LIG A   1      -5.847  -0.013 128.389  0.00  0.00    +0.101 C 
BRANCH  27  28
ATOM     28  C   LIG A   1      -6.127   0.859 127.183  0.00  0.00    +0.132 C 
ATOM     29  C   LIG A   1      -4.948   1.301 126.346  0.00  0.00    +0.086 C 
ATOM     30  O   LIG A   1      -7.266   1.222 126.903  0.00  0.00    -0.298 OA
ENDBRANCH  27  28
ENDBRANCH   6  27
TORSDOF 4
ENDMDL
MODEL 7
REMARK VINA RESULT:      -7.4      6.107     10.303
REMARK  Name = NuBBE_1090
REMARK  7 active torsions:
REMARK  status: ('A' for Active; 'I' for Inactive)
REMARK    1  A    between atoms: O_1  and  C_2
REMARK    2  A    between atoms: C_7  and  C_24
REMARK    3  A    between atoms: N_9  and  C_23
REMARK    4  A    between atoms: C_24  and  C_25
REMARK    5  A    between atoms: C_25  and  C_26
REMARK    6  A    between atoms: C_28  and  O_29
REMARK    7  A    between atoms: O_29  and  C_30
REMARK                            x       y       z     vdW  Elec       q    Type
REMARK                         _______ _______ _______ _____ _____    ______ ____
ROOT
ATOM      1  C   LIG A   1      -3.214   4.739 133.862  0.00  0.00    +0.159 A 
ATOM      2  C   LIG A   1      -2.174   4.665 132.936  0.00  0.00    +0.050 A 
ATOM      3  C   LIG A   1      -2.448   4.640 131.569  0.00  0.00    +0.012 A 
ATOM      4  C   LIG A   1      -3.763   4.729 131.090  0.00  0.00    -0.007 A 
ATOM      5  C   LIG A   1      -4.807   4.832 132.038  0.00  0.00    +0.026 A 
ATOM      6  C   LIG A   1      -6.218   5.046 131.503  0.00  0.00    +0.115 C 
ATOM      7  N   LIG A   1      -6.455   4.194 130.295  0.00  0.00    -0.324 N 
ATOM      8  C   LIG A   1      -5.454   4.345 129.280  0.00  0.00    +0.046 A 
ATOM      9  C   LIG A   1      -4.114   4.654 129.653  0.00  0.00    +0.004 A 
ATOM     10  C   LIG A   1      -3.168   4.845 128.636  0.00  0.00    +0.011 A 
ATOM     11  C   LIG A   1      -3.502   4.687 127.289  0.00  0.00    +0.009 A 
ATOM     12  C   LIG A   1      -4.799   4.345 126.906  0.00  0.00    -0.012 A 
ATOM     13  C   LIG A   1      -5.809   4.186 127.902  0.00  0.00    +0.007 A 
ATOM     14  C   LIG A   1      -7.124   3.886 127.468  0.00  0.00    +0.060 A 
ATOM     15  C   LIG A   1      -7.372   3.707 126.123  0.00  0.00    +0.167 A 
ATOM     16  O   LIG A   1      -8.570   3.382 125.567  0.00  0.00    -0.453 OA
ATOM     17  C   LIG A   1      -8.211   3.302 124.173  0.00  0.00    +0.466 C 
ATOM     18  O   LIG A   1      -6.825   3.617 123.921  0.00  0.00    -0.453 OA
ATOM     19  C   LIG A   1      -6.382   3.840 125.186  0.00  0.00    +0.167 A 
ATOM     20  C   LIG A   1      -5.094   4.169 125.542  0.00  0.00    +0.058 A 
ATOM     21  C   LIG A   1      -6.676   2.773 130.607  0.00  0.00    +0.130 C 
ATOM     22  C   LIG A   1      -4.544   4.796 133.430  0.00  0.00    +0.167 A 
ENDROOT
BRANCH   1  23
ATOM     23  O   LIG A   1      -2.886   4.769 135.188  0.00  0.00    -0.503 OA
ATOM     24  H   LIG A   1      -2.742   5.688 135.465  0.00  0.00    +0.292 HD
ENDBRANCH   1  23
BRANCH  22  25
ATOM     25  O   LIG A   1      -5.664   4.829 134.216  0.00  0.00    -0.491 OA
ATOM     26  C   LIG A   1      -6.139   3.629 134.807  0.00  0.00    +0.277 C 
ENDBRANCH  22  25
BRANCH   6  27
ATOM     27  C   LIG A   1      -6.508   6.516 131.148  0.00  0.00    +0.101 C 
BRANCH  27  28
ATOM     28  C   LIG A   1      -7.986   6.827 131.042  0.00  0.00    +0.132 C 
ATOM     29  C   LIG A   1      -8.915   6.183 132.046  0.00  0.00    +0.086 C 
ATOM     30  O   LIG A   1      -8.427   7.554 130.156  0.00  0.00    -0.298 OA
ENDBRANCH  27  28
ENDBRANCH   6  27
TORSDOF 4
ENDMDL
MODEL 8
REMARK VINA RESULT:      -7.4      2.250      6.815
REMARK  Name = NuBBE_1090
REMARK  7 active torsions:
REMARK  status: ('A' for Active; 'I' for Inactive)
REMARK    1  A    between atoms: O_1  and  C_2
REMARK    2  A    between atoms: C_7  and  C_24
REMARK    3  A    between atoms: N_9  and  C_23
REMARK    4  A    between atoms: C_24  and  C_25
REMARK    5  A    between atoms: C_25  and  C_26
REMARK    6  A    between atoms: C_28  and  O_29
REMARK    7  A    between atoms: O_29  and  C_30
REMARK                            x       y       z     vdW  Elec       q    Type
REMARK                         _______ _______ _______ _____ _____    ______ ____
ROOT
ATOM      1  C   LIG A   1      -8.277   2.070 132.443  0.00  0.00    +0.159 A 
ATOM      2  C   LIG A   1      -8.815   2.851 131.421  0.00  0.00    +0.050 A 
ATOM      3  C   LIG A   1      -8.742   2.425 130.095  0.00  0.00    +0.012 A 
ATOM      4  C   LIG A   1      -8.166   1.191 129.760  0.00  0.00    -0.007 A 
ATOM      5  C   LIG A   1      -7.649   0.395 130.808  0.00  0.00    +0.026 A 
ATOM      6  C   LIG A   1      -7.133  -0.992 130.443  0.00  0.00    +0.115 C 
ATOM      7  N   LIG A   1      -6.364  -0.944 129.160  0.00  0.00    -0.324 N 
ATOM      8  C   LIG A   1      -7.079  -0.323 128.084  0.00  0.00    +0.046 A 
ATOM      9  C   LIG A   1      -8.014   0.715 128.365  0.00  0.00    +0.004 A 
ATOM     10  C   LIG A   1      -8.735   1.268 127.298  0.00  0.00    +0.011 A 
ATOM     11  C   LIG A   1      -8.515   0.862 125.980  0.00  0.00    +0.009 A 
ATOM     12  C   LIG A   1      -7.575  -0.124 125.680  0.00  0.00    -0.012 A 
ATOM     13  C   LIG A   1      -6.849  -0.751 126.737  0.00  0.00    +0.007 A 
ATOM     14  C   LIG A   1      -5.940  -1.782 126.394  0.00  0.00    +0.060 A 
ATOM     15  C   LIG A   1      -5.746  -2.104 125.066  0.00  0.00    +0.167 A 
ATOM     16  O   LIG A   1      -4.884  -3.041 124.589  0.00  0.00    -0.453 OA
ATOM     17  C   LIG A   1      -5.094  -2.905 123.169  0.00  0.00    +0.466 C 
ATOM     18  O   LIG A   1      -6.099  -1.926 122.830  0.00  0.00    -0.453 OA
ATOM     19  C   LIG A   1      -6.436  -1.472 124.066  0.00  0.00    +0.167 A 
ATOM     20  C   LIG A   1      -7.362  -0.491 124.339  0.00  0.00    +0.058 A 
ATOM     21  C   LIG A   1      -5.018  -0.365 129.298  0.00  0.00    +0.130 C 
ATOM     22  C   LIG A   1      -7.664   0.847 132.151  0.00  0.00    +0.167 A 
ENDROOT
BRANCH   1  23
ATOM     23  O   LIG A   1      -8.386   2.533 133.724  0.00  0.00    -0.503 OA
ATOM     24  H   LIG A   1      -8.552   1.787 134.325  0.00  0.00    +0.292 HD
ENDBRANCH   1  23
BRANCH  22  25
ATOM     25  O   LIG A   1      -7.058  -0.003 133.037  0.00  0.00    -0.491 OA
ATOM     26  C   LIG A   1      -5.767   0.311 133.536  0.00  0.00    +0.277 C 
ENDBRANCH  22  25
BRANCH   6  27
ATOM     27  C   LIG A   1      -8.258  -2.036 130.317  0.00  0.00    +0.101 C 
BRANCH  27  28
ATOM     28  C   LIG A   1      -7.831  -3.294 129.591  0.00  0.00    +0.132 C 
ATOM     29  C   LIG A   1      -8.630  -3.711 128.377  0.00  0.00    +0.086 C 
ATOM     30  O   LIG A   1      -6.888  -3.974 129.985  0.00  0.00    -0.298 OA
ENDBRANCH  27  28
ENDBRANCH   6  27
TORSDOF 4
ENDMDL
MODEL 9
REMARK VINA RESULT:      -7.4      3.434      5.517
REMARK  Name = NuBBE_1090
REMARK  7 active torsions:
REMARK  status: ('A' for Active; 'I' for Inactive)
REMARK    1  A    between atoms: O_1  and  C_2
REMARK    2  A    between atoms: C_7  and  C_24
REMARK    3  A    between atoms: N_9  and  C_23
REMARK    4  A    between atoms: C_24  and  C_25
REMARK    5  A    between atoms: C_25  and  C_26
REMARK    6  A    between atoms: C_28  and  O_29
REMARK    7  A    between atoms: O_29  and  C_30
REMARK                            x       y       z     vdW  Elec       q    Type
REMARK                         _______ _______ _______ _____ _____    ______ ____
ROOT
ATOM      1  C   LIG A   1      -8.295  -3.017 125.347  0.00  0.00    +0.159 A 
ATOM      2  C   LIG A   1      -8.344  -3.315 126.708  0.00  0.00    +0.050 A 
ATOM      3  C   LIG A   1      -8.130  -2.315 127.657  0.00  0.00    +0.012 A 
ATOM      4  C   LIG A   1      -7.902  -0.986 127.272  0.00  0.00    -0.007 A 
ATOM      5  C   LIG A   1      -7.883  -0.691 125.890  0.00  0.00    +0.026 A 
ATOM      6  C   LIG A   1      -7.751   0.774 125.489  0.00  0.00    +0.115 C 
ATOM      7  N   LIG A   1      -6.755   1.468 126.364  0.00  0.00    -0.324 N 
ATOM      8  C   LIG A   1      -7.005   1.302 127.766  0.00  0.00    +0.046 A 
ATOM      9  C   LIG A   1      -7.616   0.103 128.235  0.00  0.00    +0.004 A 
ATOM     10  C   LIG A   1      -7.895  -0.010 129.604  0.00  0.00    +0.011 A 
ATOM     11  C   LIG A   1      -7.540   0.995 130.506  0.00  0.00    +0.009 A 
ATOM     12  C   LIG A   1      -6.905   2.159 130.073  0.00  0.00    -0.012 A 
ATOM     13  C   LIG A   1      -6.642   2.341 128.681  0.00  0.00    +0.007 A 
ATOM     14  C   LIG A   1      -6.040   3.558 128.276  0.00  0.00    +0.060 A 
ATOM     15  C   LIG A   1      -5.683   4.490 129.229  0.00  0.00    +0.167 A 
ATOM     16  O   LIG A   1      -5.068   5.680 128.991  0.00  0.00    -0.453 OA
ATOM     17  C   LIG A   1      -4.926   6.185 130.334  0.00  0.00    +0.466 C 
ATOM     18  O   LIG A   1      -5.490   5.313 131.336  0.00  0.00    -0.453 OA
ATOM     19  C   LIG A   1      -5.922   4.283 130.561  0.00  0.00    +0.167 A 
ATOM     20  C   LIG A   1      -6.540   3.139 131.012  0.00  0.00    +0.058 A 
ATOM     21  C   LIG A   1      -5.355   1.145 126.040  0.00  0.00    +0.130 C 
ATOM     22  C   LIG A   1      -8.038  -1.710 124.917  0.00  0.00    +0.167 A 
ENDROOT
BRANCH   1  23
ATOM     23  O   LIG A   1      -8.522  -4.033 124.462  0.00  0.00    -0.503 OA
ATOM     24  H   LIG A   1      -9.477  -4.130 124.318  0.00  0.00    +0.292 HD
ENDBRANCH   1  23
BRANCH  22  25
ATOM     25  O   LIG A   1      -7.919  -1.276 123.624  0.00  0.00    -0.491 OA
ATOM     26  C   LIG A   1      -6.717  -1.526 122.911  0.00  0.00    +0.277 C 
ENDBRANCH  22  25
BRANCH   6  27
ATOM     27  C   LIG A   1      -9.089   1.534 125.548  0.00  0.00    +0.101 C 
BRANCH  27  28
ATOM     28  C   LIG A   1      -9.812   1.579 124.218  0.00  0.00    +0.132 C 
ATOM     29  C   LIG A   1      -9.082   2.184 123.041  0.00  0.00    +0.086 C 
ATOM     30  O   LIG A   1     -10.963   1.168 124.099  0.00  0.00    -0.298 OA
ENDBRANCH  27  28
ENDBRANCH   6  27
TORSDOF 4
ENDMDL
