MODEL 1
REMARK VINA RESULT:      -7.8      0.000      0.000
REMARK  Name = NuBBE_2360
REMARK  8 active torsions:
REMARK  status: ('A' for Active; 'I' for Inactive)
REMARK    1  A    between atoms: C_1  and  C_2
REMARK    2  A    between atoms: C_2  and  C_3
REMARK    3  A    between atoms: C_3  and  O_4
REMARK    4  A    between atoms: C_9  and  C_10
REMARK    5  A    between atoms: C_18  and  O_19
REMARK    6  A    between atoms: C_20  and  C_21
REMARK    7  A    between atoms: C_21  and  C_22
REMARK    8  A    between atoms: C_21  and  C_23
REMARK                            x       y       z     vdW  Elec       q    Type
REMARK                         _______ _______ _______ _____ _____    ______ ____
ROOT
ATOM      1  C   LIG A   1      -9.762  -3.064 122.847  0.00  0.00    +0.023 C 
ATOM      2  C   LIG A   1      -8.806  -2.116 123.624  0.00  0.00    +0.068 C 
ATOM      3  C   LIG A   1      -7.648  -1.807 122.649  0.00  0.00    +0.018 C 
ATOM      4  C   LIG A   1      -6.486  -1.035 123.265  0.00  0.00    +0.002 C 
ATOM      5  C   LIG A   1      -6.354  -1.173 124.780  0.00  0.00    +0.012 C 
ATOM      6  C   LIG A   1      -6.782  -2.549 125.345  0.00  0.00    -0.003 C 
ATOM      7  C   LIG A   1      -5.851  -3.650 124.760  0.00  0.00    +0.016 C 
ATOM      8  C   LIG A   1      -8.276  -2.869 124.904  0.00  0.00    +0.016 C 
ATOM      9  C   LIG A   1      -9.280  -2.782 126.068  0.00  0.00    +0.010 C 
ATOM     10  C   LIG A   1      -8.823  -3.637 127.236  0.00  0.00    +0.036 C 
ATOM     11  C   LIG A   1      -7.514  -3.123 127.754  0.00  0.00    -0.043 A 
ATOM     12  C   LIG A   1      -6.551  -2.597 126.877  0.00  0.00    -0.035 A 
ATOM     13  C   LIG A   1      -5.334  -2.162 127.440  0.00  0.00    +0.050 A 
ATOM     14  C   LIG A   1      -5.100  -2.223 128.818  0.00  0.00    +0.121 A 
ATOM     15  C   LIG A   1      -6.055  -2.739 129.694  0.00  0.00    -0.003 A 
ATOM     16  C   LIG A   1      -7.257  -3.201 129.138  0.00  0.00    +0.011 A 
ENDROOT
BRANCH  15  17
ATOM     17  C   LIG A   1      -5.818  -2.778 131.195  0.00  0.00    +0.016 C 
ATOM     18  C   LIG A   1      -5.262  -4.127 131.658  0.00  0.00    +0.012 C 
ATOM     19  C   LIG A   1      -7.094  -2.423 131.966  0.00  0.00    +0.012 C 
ENDBRANCH  15  17
BRANCH   2  20
ATOM     20  C   LIG A   1      -9.525  -0.772 123.931  0.00  0.00    +0.311 C 
ATOM     21  O   LIG A   1      -9.576  -0.254 125.035  0.00  0.00    -0.250 OA
BRANCH  20  22
ATOM     22  O   LIG A   1     -10.137  -0.172 122.886  0.00  0.00    -0.480 OA
ATOM     23  H   LIG A   1      -9.914   0.755 122.709  0.00  0.00    +0.295 HD
ENDBRANCH  20  22
ENDBRANCH   2  20
BRANCH  14  24
ATOM     24  O   LIG A   1      -3.910  -1.772 129.318  0.00  0.00    -0.506 OA
ATOM     25  H   LIG A   1      -3.276  -1.687 128.588  0.00  0.00    +0.292 HD
ENDBRANCH  14  24
TORSDOF 4
ENDMDL
MODEL 2
REMARK VINA RESULT:      -7.5      1.980      6.803
REMARK  Name = NuBBE_2360
REMARK  8 active torsions:
REMARK  status: ('A' for Active; 'I' for Inactive)
REMARK    1  A    between atoms: C_1  and  C_2
REMARK    2  A    between atoms: C_2  and  C_3
REMARK    3  A    between atoms: C_3  and  O_4
REMARK    4  A    between atoms: C_9  and  C_10
REMARK    5  A    between atoms: C_18  and  O_19
REMARK    6  A    between atoms: C_20  and  C_21
REMARK    7  A    between atoms: C_21  and  C_22
REMARK    8  A    between atoms: C_21  and  C_23
REMARK                            x       y       z     vdW  Elec       q    Type
REMARK                         _______ _______ _______ _____ _____    ______ ____
ROOT
ATOM      1  C   LIG A   1      -6.353  -2.602 132.726  0.00  0.00    +0.023 C 
ATOM      2  C   LIG A   1      -5.647  -3.096 131.432  0.00  0.00    +0.068 C 
ATOM      3  C   LIG A   1      -4.209  -2.538 131.508  0.00  0.00    +0.018 C 
ATOM      4  C   LIG A   1      -3.379  -2.743 130.244  0.00  0.00    +0.002 C 
ATOM      5  C   LIG A   1      -4.192  -2.924 128.964  0.00  0.00    +0.012 C 
ATOM      6  C   LIG A   1      -5.520  -2.131 128.922  0.00  0.00    -0.003 C 
ATOM      7  C   LIG A   1      -5.204  -0.608 128.985  0.00  0.00    +0.016 C 
ATOM      8  C   LIG A   1      -6.412  -2.509 130.183  0.00  0.00    +0.016 C 
ATOM      9  C   LIG A   1      -7.640  -3.363 129.819  0.00  0.00    +0.010 C 
ATOM     10  C   LIG A   1      -8.445  -2.702 128.716  0.00  0.00    +0.036 C 
ATOM     11  C   LIG A   1      -7.609  -2.596 127.476  0.00  0.00    -0.043 A 
ATOM     12  C   LIG A   1      -6.230  -2.340 127.560  0.00  0.00    -0.035 A 
ATOM     13  C   LIG A   1      -5.520  -2.225 126.349  0.00  0.00    +0.050 A 
ATOM     14  C   LIG A   1      -6.151  -2.386 125.110  0.00  0.00    +0.121 A 
ATOM     15  C   LIG A   1      -7.519  -2.646 125.021  0.00  0.00    -0.003 A 
ATOM     16  C   LIG A   1      -8.238  -2.732 126.222  0.00  0.00    +0.011 A 
ENDROOT
BRANCH  15  17
ATOM     17  C   LIG A   1      -8.203  -2.853 123.679  0.00  0.00    +0.016 C 
ATOM     18  C   LIG A   1      -8.428  -1.534 122.935  0.00  0.00    +0.012 C 
ATOM     19  C   LIG A   1      -9.522  -3.615 123.844  0.00  0.00    +0.012 C 
ENDBRANCH  15  17
BRANCH   2  20
ATOM     20  C   LIG A   1      -5.545  -4.647 131.442  0.00  0.00    +0.311 C 
ATOM     21  O   LIG A   1      -5.628  -5.349 130.447  0.00  0.00    -0.250 OA
BRANCH  20  22
ATOM     22  O   LIG A   1      -5.369  -5.225 132.651  0.00  0.00    -0.480 OA
ATOM     23  H   LIG A   1      -4.585  -4.967 133.160  0.00  0.00    +0.295 HD
ENDBRANCH  20  22
ENDBRANCH   2  20
BRANCH  14  24
ATOM     24  O   LIG A   1      -5.415  -2.283 123.962  0.00  0.00    -0.506 OA
ATOM     25  H   LIG A   1      -4.987  -1.412 123.942  0.00  0.00    +0.292 HD
ENDBRANCH  14  24
TORSDOF 4
ENDMDL
MODEL 3
REMARK VINA RESULT:      -7.4      3.196      3.878
REMARK  Name = NuBBE_2360
REMARK  8 active torsions:
REMARK  status: ('A' for Active; 'I' for Inactive)
REMARK    1  A    between atoms: C_1  and  C_2
REMARK    2  A    between atoms: C_2  and  C_3
REMARK    3  A    between atoms: C_3  and  O_4
REMARK    4  A    between atoms: C_9  and  C_10
REMARK    5  A    between atoms: C_18  and  O_19
REMARK    6  A    between atoms: C_20  and  C_21
REMARK    7  A    between atoms: C_21  and  C_22
REMARK    8  A    between atoms: C_21  and  C_23
REMARK                            x       y       z     vdW  Elec       q    Type
REMARK                         _______ _______ _______ _____ _____    ______ ____
ROOT
ATOM      1  C   LIG A   1      -7.016  -3.593 124.255  0.00  0.00    +0.023 C 
ATOM      2  C   LIG A   1      -7.998  -2.444 124.618  0.00  0.00    +0.068 C 
ATOM      3  C   LIG A   1      -7.974  -1.483 123.408  0.00  0.00    +0.018 C 
ATOM      4  C   LIG A   1      -8.729  -0.174 123.620  0.00  0.00    +0.002 C 
ATOM      5  C   LIG A   1      -8.894   0.243 125.079  0.00  0.00    +0.012 C 
ATOM      6  C   LIG A   1      -7.719  -0.153 126.004  0.00  0.00    -0.003 C 
ATOM      7  C   LIG A   1      -6.427   0.571 125.523  0.00  0.00    +0.016 C 
ATOM      8  C   LIG A   1      -7.474  -1.722 125.919  0.00  0.00    +0.016 C 
ATOM      9  C   LIG A   1      -7.905  -2.470 127.193  0.00  0.00    +0.010 C 
ATOM     10  C   LIG A   1      -7.267  -1.849 128.422  0.00  0.00    +0.036 C 
ATOM     11  C   LIG A   1      -7.736  -0.433 128.572  0.00  0.00    -0.043 A 
ATOM     12  C   LIG A   1      -7.964   0.371 127.442  0.00  0.00    -0.035 A 
ATOM     13  C   LIG A   1      -8.374   1.700 127.668  0.00  0.00    +0.050 A 
ATOM     14  C   LIG A   1      -8.576   2.196 128.960  0.00  0.00    +0.121 A 
ATOM     15  C   LIG A   1      -8.357   1.400 130.085  0.00  0.00    -0.003 A 
ATOM     16  C   LIG A   1      -7.919   0.086 129.869  0.00  0.00    +0.011 A 
ENDROOT
BRANCH  15  17
ATOM     17  C   LIG A   1      -8.604   1.925 131.491  0.00  0.00    +0.016 C 
ATOM     18  C   LIG A   1      -7.593   1.375 132.500  0.00  0.00    +0.012 C 
ATOM     19  C   LIG A   1     -10.038   1.635 131.944  0.00  0.00    +0.012 C 
ENDBRANCH  15  17
BRANCH   2  20
ATOM     20  C   LIG A   1      -9.445  -3.000 124.740  0.00  0.00    +0.311 C 
ATOM     21  O   LIG A   1     -10.086  -3.030 125.778  0.00  0.00    -0.250 OA
BRANCH  20  22
ATOM     22  O   LIG A   1      -9.992  -3.489 123.606  0.00  0.00    -0.480 OA
ATOM     23  H   LIG A   1     -10.726  -2.993 123.213  0.00  0.00    +0.295 HD
ENDBRANCH  20  22
ENDBRANCH   2  20
BRANCH  14  24
ATOM     24  O   LIG A   1      -8.992   3.488 129.128  0.00  0.00    -0.506 OA
ATOM     25  H   LIG A   1      -8.272   3.999 129.530  0.00  0.00    +0.292 HD
ENDBRANCH  14  24
TORSDOF 4
ENDMDL
MODEL 4
REMARK VINA RESULT:      -7.2      5.427      7.609
REMARK  Name = NuBBE_2360
REMARK  8 active torsions:
REMARK  status: ('A' for Active; 'I' for Inactive)
REMARK    1  A    between atoms: C_1  and  C_2
REMARK    2  A    between atoms: C_2  and  C_3
REMARK    3  A    between atoms: C_3  and  O_4
REMARK    4  A    between atoms: C_9  and  C_10
REMARK    5  A    between atoms: C_18  and  O_19
REMARK    6  A    between atoms: C_20  and  C_21
REMARK    7  A    between atoms: C_21  and  C_22
REMARK    8  A    between atoms: C_21  and  C_23
REMARK                            x       y       z     vdW  Elec       q    Type
REMARK                         _______ _______ _______ _____ _____    ______ ____
ROOT
ATOM      1  C   LIG A   1      -8.686   5.945 130.322  0.00  0.00    +0.023 C 
ATOM      2  C   LIG A   1      -9.219   4.715 131.110  0.00  0.00    +0.068 C 
ATOM      3  C   LIG A   1      -9.042   5.071 132.602  0.00  0.00    +0.018 C 
ATOM      4  C   LIG A   1      -9.328   3.926 133.569  0.00  0.00    +0.002 C 
ATOM      5  C   LIG A   1      -9.186   2.529 132.969  0.00  0.00    +0.012 C 
ATOM      6  C   LIG A   1      -8.089   2.397 131.885  0.00  0.00    -0.003 C 
ATOM      7  C   LIG A   1      -6.704   2.703 132.525  0.00  0.00    +0.016 C 
ATOM      8  C   LIG A   1      -8.350   3.455 130.727  0.00  0.00    +0.016 C 
ATOM      9  C   LIG A   1      -8.839   2.808 129.418  0.00  0.00    +0.010 C 
ATOM     10  C   LIG A   1      -7.902   1.695 128.988  0.00  0.00    +0.036 C 
ATOM     11  C   LIG A   1      -7.892   0.614 130.027  0.00  0.00    -0.043 A 
ATOM     12  C   LIG A   1      -7.993   0.931 131.392  0.00  0.00    -0.035 A 
ATOM     13  C   LIG A   1      -7.945  -0.139 132.308  0.00  0.00    +0.050 A 
ATOM     14  C   LIG A   1      -7.832  -1.466 131.881  0.00  0.00    +0.121 A 
ATOM     15  C   LIG A   1      -7.739  -1.787 130.526  0.00  0.00    -0.003 A 
ATOM     16  C   LIG A   1      -7.754  -0.725 129.610  0.00  0.00    +0.011 A 
ENDROOT
BRANCH  15  17
ATOM     17  C   LIG A   1      -7.647  -3.229 130.055  0.00  0.00    +0.016 C 
ATOM     18  C   LIG A   1      -6.198  -3.705 129.924  0.00  0.00    +0.012 C 
ATOM     19  C   LIG A   1      -8.405  -3.430 128.739  0.00  0.00    +0.012 C 
ENDBRANCH  15  17
BRANCH   2  20
ATOM     20  C   LIG A   1     -10.742   4.538 130.852  0.00  0.00    +0.311 C 
ATOM     21  O   LIG A   1     -11.230   3.618 130.215  0.00  0.00    -0.250 OA
BRANCH  20  22
ATOM     22  O   LIG A   1     -11.548   5.491 131.368  0.00  0.00    -0.480 OA
ATOM     23  H   LIG A   1     -11.261   5.926 132.186  0.00  0.00    +0.295 HD
ENDBRANCH  20  22
ENDBRANCH   2  20
BRANCH  14  24
ATOM     24  O   LIG A   1      -7.809  -2.471 132.807  0.00  0.00    -0.506 OA
ATOM     25  H   LIG A   1      -7.669  -3.316 132.350  0.00  0.00    +0.292 HD
ENDBRANCH  14  24
TORSDOF 4
ENDMDL
MODEL 5
REMARK VINA RESULT:      -6.9      1.739      6.804
REMARK  Name = NuBBE_2360
REMARK  8 active torsions:
REMARK  status: ('A' for Active; 'I' for Inactive)
REMARK    1  A    between atoms: C_1  and  C_2
REMARK    2  A    between atoms: C_2  and  C_3
REMARK    3  A    between atoms: C_3  and  O_4
REMARK    4  A    between atoms: C_9  and  C_10
REMARK    5  A    between atoms: C_18  and  O_19
REMARK    6  A    between atoms: C_20  and  C_21
REMARK    7  A    between atoms: C_21  and  C_22
REMARK    8  A    between atoms: C_21  and  C_23
REMARK                            x       y       z     vdW  Elec       q    Type
REMARK                         _______ _______ _______ _____ _____    ______ ____
ROOT
ATOM      1  C   LIG A   1      -6.975  -3.178 132.668  0.00  0.00    +0.023 C 
ATOM      2  C   LIG A   1      -6.243  -2.605 131.422  0.00  0.00    +0.068 C 
ATOM      3  C   LIG A   1      -5.678  -1.237 131.867  0.00  0.00    +0.018 C 
ATOM      4  C   LIG A   1      -5.073  -0.402 130.743  0.00  0.00    +0.002 C 
ATOM      5  C   LIG A   1      -5.593  -0.733 129.346  0.00  0.00    +0.012 C 
ATOM      6  C   LIG A   1      -7.073  -1.181 129.294  0.00  0.00    -0.003 C 
ATOM      7  C   LIG A   1      -7.975  -0.013 129.791  0.00  0.00    +0.016 C 
ATOM      8  C   LIG A   1      -7.291  -2.427 130.257  0.00  0.00    +0.016 C 
ATOM      9  C   LIG A   1      -7.520  -3.746 129.496  0.00  0.00    +0.010 C 
ATOM     10  C   LIG A   1      -8.638  -3.593 128.482  0.00  0.00    +0.036 C 
ATOM     11  C   LIG A   1      -8.255  -2.564 127.461  0.00  0.00    -0.043 A 
ATOM     12  C   LIG A   1      -7.508  -1.432 127.827  0.00  0.00    -0.035 A 
ATOM     13  C   LIG A   1      -7.215  -0.497 126.815  0.00  0.00    +0.050 A 
ATOM     14  C   LIG A   1      -7.623  -0.695 125.491  0.00  0.00    +0.121 A 
ATOM     15  C   LIG A   1      -8.359  -1.821 125.121  0.00  0.00    -0.003 A 
ATOM     16  C   LIG A   1      -8.681  -2.741 126.129  0.00  0.00    +0.011 A 
ENDROOT
BRANCH  15  17
ATOM     17  C   LIG A   1      -8.778  -2.057 123.679  0.00  0.00    +0.016 C 
ATOM     18  C   LIG A   1      -9.677  -3.288 123.531  0.00  0.00    +0.012 C 
ATOM     19  C   LIG A   1      -7.558  -2.163 122.759  0.00  0.00    +0.012 C 
ENDBRANCH  15  17
BRANCH   2  20
ATOM     20  C   LIG A   1      -5.033  -3.509 131.055  0.00  0.00    +0.311 C 
ATOM     21  O   LIG A   1      -4.726  -3.819 129.914  0.00  0.00    -0.250 OA
BRANCH  20  22
ATOM     22  O   LIG A   1      -4.303  -3.977 132.091  0.00  0.00    -0.480 OA
ATOM     23  H   LIG A   1      -3.669  -3.370 132.502  0.00  0.00    +0.295 HD
ENDBRANCH  20  22
ENDBRANCH   2  20
BRANCH  14  24
ATOM     24  O   LIG A   1      -7.298   0.232 124.541  0.00  0.00    -0.506 OA
ATOM     25  H   LIG A   1      -6.693   0.882 124.932  0.00  0.00    +0.292 HD
ENDBRANCH  14  24
TORSDOF 4
ENDMDL
MODEL 6
REMARK VINA RESULT:      -6.7      2.471      7.438
REMARK  Name = NuBBE_2360
REMARK  8 active torsions:
REMARK  status: ('A' for Active; 'I' for Inactive)
REMARK    1  A    between atoms: C_1  and  C_2
REMARK    2  A    between atoms: C_2  and  C_3
REMARK    3  A    between atoms: C_3  and  O_4
REMARK    4  A    between atoms: C_9  and  C_10
REMARK    5  A    between atoms: C_18  and  O_19
REMARK    6  A    between atoms: C_20  and  C_21
REMARK    7  A    between atoms: C_21  and  C_22
REMARK    8  A    between atoms: C_21  and  C_23
REMARK                            x       y       z     vdW  Elec       q    Type
REMARK                         _______ _______ _______ _____ _____    ______ ____
ROOT
ATOM      1  C   LIG A   1      -2.957  -1.520 132.661  0.00  0.00    +0.023 C 
ATOM      2  C   LIG A   1      -4.498  -1.631 132.487  0.00  0.00    +0.068 C 
ATOM      3  C   LIG A   1      -4.968  -2.612 133.584  0.00  0.00    +0.018 C 
ATOM      4  C   LIG A   1      -6.435  -3.021 133.487  0.00  0.00    +0.002 C 
ATOM      5  C   LIG A   1      -7.047  -2.892 132.094  0.00  0.00    +0.012 C 
ATOM      6  C   LIG A   1      -6.067  -3.166 130.928  0.00  0.00    -0.003 C 
ATOM      7  C   LIG A   1      -5.574  -4.640 131.014  0.00  0.00    +0.016 C 
ATOM      8  C   LIG A   1      -4.805  -2.207 131.051  0.00  0.00    +0.016 C 
ATOM      9  C   LIG A   1      -4.781  -1.101 129.981  0.00  0.00    +0.010 C 
ATOM     10  C   LIG A   1      -4.926  -1.694 128.592  0.00  0.00    +0.036 C 
ATOM     11  C   LIG A   1      -6.254  -2.381 128.474  0.00  0.00    -0.043 A 
ATOM     12  C   LIG A   1      -6.807  -3.066 129.569  0.00  0.00    -0.035 A 
ATOM     13  C   LIG A   1      -8.043  -3.711 129.369  0.00  0.00    +0.050 A 
ATOM     14  C   LIG A   1      -8.712  -3.652 128.141  0.00  0.00    +0.121 A 
ATOM     15  C   LIG A   1      -8.169  -2.969 127.052  0.00  0.00    -0.003 A 
ATOM     16  C   LIG A   1      -6.925  -2.349 127.235  0.00  0.00    +0.011 A 
ENDROOT
BRANCH  15  17
ATOM     17  C   LIG A   1      -8.906  -2.876 125.725  0.00  0.00    +0.016 C 
ATOM     18  C   LIG A   1      -8.305  -3.801 124.664  0.00  0.00    +0.012 C 
ATOM     19  C   LIG A   1      -8.955  -1.430 125.221  0.00  0.00    +0.012 C 
ENDBRANCH  15  17
BRANCH   2  20
ATOM     20  C   LIG A   1      -5.166  -0.257 132.775  0.00  0.00    +0.311 C 
ATOM     21  O   LIG A   1      -6.227   0.107 132.294  0.00  0.00    -0.250 OA
BRANCH  20  22
ATOM     22  O   LIG A   1      -4.494   0.569 133.606  0.00  0.00    -0.480 OA
ATOM     23  H   LIG A   1      -3.528   0.595 133.527  0.00  0.00    +0.295 HD
ENDBRANCH  20  22
ENDBRANCH   2  20
BRANCH  14  24
ATOM     24  O   LIG A   1      -9.918  -4.280 128.001  0.00  0.00    -0.506 OA
ATOM     25  H   LIG A   1     -10.524  -3.950 128.684  0.00  0.00    +0.292 HD
ENDBRANCH  14  24
TORSDOF 4
ENDMDL
MODEL 7
REMARK VINA RESULT:      -6.6      9.887     12.577
REMARK  Name = NuBBE_2360
REMARK  8 active torsions:
REMARK  status: ('A' for Active; 'I' for Inactive)
REMARK    1  A    between atoms: C_1  and  C_2
REMARK    2  A    between atoms: C_2  and  C_3
REMARK    3  A    between atoms: C_3  and  O_4
REMARK    4  A    between atoms: C_9  and  C_10
REMARK    5  A    between atoms: C_18  and  O_19
REMARK    6  A    between atoms: C_20  and  C_21
REMARK    7  A    between atoms: C_21  and  C_22
REMARK    8  A    between atoms: C_21  and  C_23
REMARK                            x       y       z     vdW  Elec       q    Type
REMARK                         _______ _______ _______ _____ _____    ______ ____
ROOT
ATOM      1  C   LIG A   1      -0.823   7.111 132.317  0.00  0.00    +0.023 C 
ATOM      2  C   LIG A   1      -2.106   7.271 133.180  0.00  0.00    +0.068 C 
ATOM      3  C   LIG A   1      -1.850   6.442 134.459  0.00  0.00    +0.018 C 
ATOM      4  C   LIG A   1      -3.059   6.300 135.378  0.00  0.00    +0.002 C 
ATOM      5  C   LIG A   1      -4.412   6.474 134.692  0.00  0.00    +0.012 C 
ATOM      6  C   LIG A   1      -4.465   5.974 133.228  0.00  0.00    -0.003 C 
ATOM      7  C   LIG A   1      -4.196   4.441 133.204  0.00  0.00    +0.016 C 
ATOM      8  C   LIG A   1      -3.333   6.694 132.374  0.00  0.00    +0.016 C 
ATOM      9  C   LIG A   1      -3.893   7.728 131.380  0.00  0.00    +0.010 C 
ATOM     10  C   LIG A   1      -4.970   7.107 130.510  0.00  0.00    +0.036 C 
ATOM     11  C   LIG A   1      -6.118   6.666 131.368  0.00  0.00    -0.043 A 
ATOM     12  C   LIG A   1      -5.894   6.143 132.653  0.00  0.00    -0.035 A 
ATOM     13  C   LIG A   1      -7.023   5.722 133.384  0.00  0.00    +0.050 A 
ATOM     14  C   LIG A   1      -8.318   5.844 132.869  0.00  0.00    +0.121 A 
ATOM     15  C   LIG A   1      -8.546   6.368 131.596  0.00  0.00    -0.003 A 
ATOM     16  C   LIG A   1      -7.425   6.761 130.850  0.00  0.00    +0.011 A 
ENDROOT
BRANCH  15  17
ATOM     17  C   LIG A   1      -9.953   6.531 131.044  0.00  0.00    +0.016 C 
ATOM     18  C   LIG A   1     -10.583   5.190 130.657  0.00  0.00    +0.012 C 
ATOM     19  C   LIG A   1      -9.973   7.502 129.859  0.00  0.00    +0.012 C 
ENDBRANCH  15  17
BRANCH   2  20
ATOM     20  C   LIG A   1      -2.273   8.755 133.614  0.00  0.00    +0.311 C 
ATOM     21  O   LIG A   1      -2.741   9.111 134.684  0.00  0.00    -0.250 OA
BRANCH  20  22
ATOM     22  O   LIG A   1      -1.878   9.685 132.718  0.00  0.00    -0.480 OA
ATOM     23  H   LIG A   1      -0.947   9.957 132.735  0.00  0.00    +0.295 HD
ENDBRANCH  20  22
ENDBRANCH   2  20
BRANCH  14  24
ATOM     24  O   LIG A   1      -9.383   5.439 133.624  0.00  0.00    -0.506 OA
ATOM     25  H   LIG A   1      -9.075   4.792 134.279  0.00  0.00    +0.292 HD
ENDBRANCH  14  24
TORSDOF 4
ENDMDL
MODEL 8
REMARK VINA RESULT:      -6.5      6.110      8.224
REMARK  Name = NuBBE_2360
REMARK  8 active torsions:
REMARK  status: ('A' for Active; 'I' for Inactive)
REMARK    1  A    between atoms: C_1  and  C_2
REMARK    2  A    between atoms: C_2  and  C_3
REMARK    3  A    between atoms: C_3  and  O_4
REMARK    4  A    between atoms: C_9  and  C_10
REMARK    5  A    between atoms: C_18  and  O_19
REMARK    6  A    between atoms: C_20  and  C_21
REMARK    7  A    between atoms: C_21  and  C_22
REMARK    8  A    between atoms: C_21  and  C_23
REMARK                            x       y       z     vdW  Elec       q    Type
REMARK                         _______ _______ _______ _____ _____    ______ ____
ROOT
ATOM      1  C   LIG A   1     -10.282   6.069 132.542  0.00  0.00    +0.023 C 
ATOM      2  C   LIG A   1      -8.904   5.375 132.349  0.00  0.00    +0.068 C 
ATOM      3  C   LIG A   1      -8.088   6.322 131.441  0.00  0.00    +0.018 C 
ATOM      4  C   LIG A   1      -6.756   5.754 130.962  0.00  0.00    +0.002 C 
ATOM      5  C   LIG A   1      -6.676   4.229 130.950  0.00  0.00    +0.012 C 
ATOM      6  C   LIG A   1      -8.008   3.512 130.624  0.00  0.00    -0.003 C 
ATOM      7  C   LIG A   1      -8.456   3.902 129.185  0.00  0.00    +0.016 C 
ATOM      8  C   LIG A   1      -9.133   3.982 131.644  0.00  0.00    +0.016 C 
ATOM      9  C   LIG A   1      -9.521   2.892 132.659  0.00  0.00    +0.010 C 
ATOM     10  C   LIG A   1      -9.885   1.602 131.948  0.00  0.00    +0.036 C 
ATOM     11  C   LIG A   1      -8.693   1.089 131.196  0.00  0.00    -0.043 A 
ATOM     12  C   LIG A   1      -7.796   1.977 130.580  0.00  0.00    -0.035 A 
ATOM     13  C   LIG A   1      -6.719   1.415 129.866  0.00  0.00    +0.050 A 
ATOM     14  C   LIG A   1      -6.528   0.031 129.795  0.00  0.00    +0.121 A 
ATOM     15  C   LIG A   1      -7.413  -0.855 130.410  0.00  0.00    -0.003 A 
ATOM     16  C   LIG A   1      -8.504  -0.305 131.097  0.00  0.00    +0.011 A 
ENDROOT
BRANCH  15  17
ATOM     17  C   LIG A   1      -7.193  -2.359 130.362  0.00  0.00    +0.016 C 
ATOM     18  C   LIG A   1      -8.151  -3.053 129.390  0.00  0.00    +0.012 C 
ATOM     19  C   LIG A   1      -7.295  -2.978 131.759  0.00  0.00    +0.012 C 
ENDBRANCH  15  17
BRANCH   2  20
ATOM     20  C   LIG A   1      -8.161   5.282 133.711  0.00  0.00    +0.311 C 
ATOM     21  O   LIG A   1      -7.270   4.484 133.956  0.00  0.00    -0.250 OA
BRANCH  20  22
ATOM     22  O   LIG A   1      -8.563   6.145 134.669  0.00  0.00    -0.480 OA
ATOM     23  H   LIG A   1      -7.950   6.320 135.400  0.00  0.00    +0.295 HD
ENDBRANCH  20  22
ENDBRANCH   2  20
BRANCH  14  24
ATOM     24  O   LIG A   1      -5.457  -0.466 129.106  0.00  0.00    -0.506 OA
ATOM     25  H   LIG A   1      -5.463  -0.096 128.208  0.00  0.00    +0.292 HD
ENDBRANCH  14  24
TORSDOF 4
ENDMDL
MODEL 9
REMARK VINA RESULT:      -6.5      3.296      5.988
REMARK  Name = NuBBE_2360
REMARK  8 active torsions:
REMARK  status: ('A' for Active; 'I' for Inactive)
REMARK    1  A    between atoms: C_1  and  C_2
REMARK    2  A    between atoms: C_2  and  C_3
REMARK    3  A    between atoms: C_3  and  O_4
REMARK    4  A    between atoms: C_9  and  C_10
REMARK    5  A    between atoms: C_18  and  O_19
REMARK    6  A    between atoms: C_20  and  C_21
REMARK    7  A    between atoms: C_21  and  C_22
REMARK    8  A    between atoms: C_21  and  C_23
REMARK                            x       y       z     vdW  Elec       q    Type
REMARK                         _______ _______ _______ _____ _____    ______ ____
ROOT
ATOM      1  C   LIG A   1      -5.441  -2.218 127.593  0.00  0.00    +0.023 C 
ATOM      2  C   LIG A   1      -6.556  -2.170 128.675  0.00  0.00    +0.068 C 
ATOM      3  C   LIG A   1      -6.935  -0.678 128.812  0.00  0.00    +0.018 C 
ATOM      4  C   LIG A   1      -7.889  -0.367 129.961  0.00  0.00    +0.002 C 
ATOM      5  C   LIG A   1      -7.880  -1.386 131.098  0.00  0.00    +0.012 C 
ATOM      6  C   LIG A   1      -6.507  -2.048 131.364  0.00  0.00    -0.003 C 
ATOM      7  C   LIG A   1      -5.490  -0.952 131.799  0.00  0.00    +0.016 C 
ATOM      8  C   LIG A   1      -5.971  -2.727 130.030  0.00  0.00    +0.016 C 
ATOM      9  C   LIG A   1      -6.017  -4.265 130.076  0.00  0.00    +0.010 C 
ATOM     10  C   LIG A   1      -5.313  -4.786 131.315  0.00  0.00    +0.036 C 
ATOM     11  C   LIG A   1      -6.024  -4.296 132.541  0.00  0.00    -0.043 A 
ATOM     12  C   LIG A   1      -6.601  -3.015 132.572  0.00  0.00    -0.035 A 
ATOM     13  C   LIG A   1      -7.224  -2.617 133.772  0.00  0.00    +0.050 A 
ATOM     14  C   LIG A   1      -7.294  -3.468 134.880  0.00  0.00    +0.121 A 
ATOM     15  C   LIG A   1      -6.729  -4.743 134.852  0.00  0.00    -0.003 A 
ATOM     16  C   LIG A   1      -6.080  -5.135 133.672  0.00  0.00    +0.011 A 
ENDROOT
BRANCH  15  17
ATOM     17  C   LIG A   1      -6.829  -5.683 136.043  0.00  0.00    +0.016 C 
ATOM     18  C   LIG A   1      -5.593  -6.575 136.182  0.00  0.00    +0.012 C 
ATOM     19  C   LIG A   1      -8.104  -6.529 135.972  0.00  0.00    +0.012 C 
ENDBRANCH  15  17
BRANCH   2  20
ATOM     20  C   LIG A   1      -7.819  -2.925 128.171  0.00  0.00    +0.311 C 
ATOM     21  O   LIG A   1      -8.589  -3.537 128.894  0.00  0.00    -0.250 OA
BRANCH  20  22
ATOM     22  O   LIG A   1      -8.039  -2.894 126.839  0.00  0.00    -0.480 OA
ATOM     23  H   LIG A   1      -7.636  -2.171 126.335  0.00  0.00    +0.295 HD
ENDBRANCH  20  22
ENDBRANCH   2  20
BRANCH  14  24
ATOM     24  O   LIG A   1      -7.926  -3.042 136.015  0.00  0.00    -0.506 OA
ATOM     25  H   LIG A   1      -8.877  -3.216 135.929  0.00  0.00    +0.292 HD
ENDBRANCH  14  24
TORSDOF 4
ENDMDL
