MODEL 1
REMARK VINA RESULT:      -8.7      0.000      0.000
REMARK  Name = NuBBE_146
REMARK  10 active torsions:
REMARK  status: ('A' for Active; 'I' for Inactive)
REMARK    1  A    between atoms: C_1  and  C_2
REMARK    2  A    between atoms: C_2  and  C_39
REMARK    3  A    between atoms: C_3  and  O_38
REMARK    4  A    between atoms: C_7  and  C_37
REMARK    5  A    between atoms: C_12  and  C_36
REMARK    6  A    between atoms: C_18  and  C_34
REMARK    7  A    between atoms: C_21  and  C_31
REMARK    8  A    between atoms: C_24  and  C_28
REMARK    9  A    between atoms: C_28  and  C_29
REMARK   10  A    between atoms: C_31  and  O_32
REMARK                            x       y       z     vdW  Elec       q    Type
REMARK                         _______ _______ _______ _____ _____    ______ ____
ROOT
ATOM      1  C   LIG A   1      -2.985  -1.686 132.747  0.00  0.00    +0.014 C 
ATOM      2  C   LIG A   1      -4.499  -2.014 132.621  0.00  0.00    -0.006 C 
ATOM      3  C   LIG A   1      -4.657  -3.557 132.784  0.00  0.00    +0.120 C 
ATOM      4  C   LIG A   1      -6.042  -4.078 132.423  0.00  0.00    +0.032 C 
ATOM      5  C   LIG A   1      -6.489  -3.649 131.027  0.00  0.00    +0.010 C 
ATOM      6  C   LIG A   1      -6.449  -2.108 130.789  0.00  0.00    -0.025 C 
ATOM      7  C   LIG A   1      -5.007  -1.606 131.184  0.00  0.00    +0.003 C 
ATOM      8  C   LIG A   1      -4.817  -0.116 130.828  0.00  0.00    +0.005 C 
ATOM      9  C   LIG A   1      -5.004   0.129 129.327  0.00  0.00    +0.008 C 
ATOM     10  C   LIG A   1      -6.378  -0.321 128.760  0.00  0.00    -0.023 C 
ATOM     11  C   LIG A   1      -6.642  -1.815 129.229  0.00  0.00    +0.002 C 
ATOM     12  C   LIG A   1      -7.950  -2.378 128.629  0.00  0.00    +0.005 C 
ATOM     13  C   LIG A   1      -7.984  -2.292 127.101  0.00  0.00    +0.005 C 
ATOM     14  C   LIG A   1      -7.765  -0.862 126.607  0.00  0.00    +0.000 C 
ATOM     15  C   LIG A   1      -6.399  -0.252 127.128  0.00  0.00    -0.023 C 
ATOM     16  C   LIG A   1      -6.245   1.220 126.591  0.00  0.00    +0.008 C 
ATOM     17  C   LIG A   1      -6.588   1.432 125.101  0.00  0.00    +0.019 C 
ATOM     18  C   LIG A   1      -7.963   0.837 124.746  0.00  0.00    +0.071 C 
ATOM     19  C   LIG A   1      -7.904  -0.669 125.078  0.00  0.00    +0.017 C 
ATOM     20  C   LIG A   1      -9.054  -1.321 124.273  0.00  0.00    +0.018 C 
ATOM     21  C   LIG A   1      -9.257  -0.345 123.078  0.00  0.00    +0.009 C 
ATOM     22  C   LIG A   1      -8.262   0.811 123.249  0.00  0.00    +0.019 C 
ATOM     23  C   LIG A   1      -5.193  -1.049 126.529  0.00  0.00    +0.012 C 
ATOM     24  C   LIG A   1      -7.445   0.657 129.335  0.00  0.00    +0.012 C 
ATOM     25  C   LIG A   1      -7.581  -1.483 131.642  0.00  0.00    +0.012 C 
ATOM     26  C   LIG A   1      -5.196  -1.255 133.767  0.00  0.00    +0.014 C 
ENDROOT
BRANCH  20  27
ATOM     27  C   LIG A   1      -8.855  -2.751 123.757  0.00  0.00    -0.076 C 
ATOM     28  C   LIG A   1      -7.428  -3.246 123.751  0.00  0.00    +0.038 C 
ATOM     29  C   LIG A   1      -9.830  -3.574 123.332  0.00  0.00    +0.007 C 
ENDBRANCH  20  27
BRANCH  18  30
ATOM     30  C   LIG A   1      -9.059   1.676 125.420  0.00  0.00    +0.311 C 
ATOM     31  O   LIG A   1      -9.683   1.367 126.427  0.00  0.00    -0.250 OA
BRANCH  30  32
ATOM     32  O   LIG A   1      -9.280   2.878 124.863  0.00  0.00    -0.480 OA
ATOM     33  H   LIG A   1      -8.473   3.047 124.333  0.00  0.00    +0.295 HD
ENDBRANCH  30  32
ENDBRANCH  18  30
BRANCH   3  34
ATOM     34  O   LIG A   1      -4.390  -3.979 134.122  0.00  0.00    -0.391 OA
ATOM     35  H   LIG A   1      -3.656  -3.445 134.467  0.00  0.00    +0.210 HD
ENDBRANCH   3  34
TORSDOF 4
ENDMDL
MODEL 2
REMARK VINA RESULT:      -8.7      3.832      5.179
REMARK  Name = NuBBE_146
REMARK  10 active torsions:
REMARK  status: ('A' for Active; 'I' for Inactive)
REMARK    1  A    between atoms: C_1  and  C_2
REMARK    2  A    between atoms: C_2  and  C_39
REMARK    3  A    between atoms: C_3  and  O_38
REMARK    4  A    between atoms: C_7  and  C_37
REMARK    5  A    between atoms: C_12  and  C_36
REMARK    6  A    between atoms: C_18  and  C_34
REMARK    7  A    between atoms: C_21  and  C_31
REMARK    8  A    between atoms: C_24  and  C_28
REMARK    9  A    between atoms: C_28  and  C_29
REMARK   10  A    between atoms: C_31  and  O_32
REMARK                            x       y       z     vdW  Elec       q    Type
REMARK                         _______ _______ _______ _____ _____    ______ ____
ROOT
ATOM      1  C   LIG A   1      -1.554   6.534 131.255  0.00  0.00    +0.014 C 
ATOM      2  C   LIG A   1      -2.698   5.577 131.696  0.00  0.00    -0.006 C 
ATOM      3  C   LIG A   1      -2.065   4.484 132.610  0.00  0.00    +0.120 C 
ATOM      4  C   LIG A   1      -2.995   3.317 132.911  0.00  0.00    +0.032 C 
ATOM      5  C   LIG A   1      -3.570   2.678 131.649  0.00  0.00    +0.010 C 
ATOM      6  C   LIG A   1      -4.303   3.679 130.704  0.00  0.00    -0.025 C 
ATOM      7  C   LIG A   1      -3.314   4.875 130.425  0.00  0.00    +0.003 C 
ATOM      8  C   LIG A   1      -3.889   5.840 129.366  0.00  0.00    +0.005 C 
ATOM      9  C   LIG A   1      -4.144   5.123 128.035  0.00  0.00    +0.008 C 
ATOM     10  C   LIG A   1      -5.098   3.900 128.127  0.00  0.00    -0.023 C 
ATOM     11  C   LIG A   1      -4.587   2.962 129.303  0.00  0.00    +0.002 C 
ATOM     12  C   LIG A   1      -5.425   1.667 129.404  0.00  0.00    +0.005 C 
ATOM     13  C   LIG A   1      -5.468   0.887 128.088  0.00  0.00    +0.005 C 
ATOM     14  C   LIG A   1      -5.985   1.746 126.934  0.00  0.00    +0.000 C 
ATOM     15  C   LIG A   1      -5.119   3.056 126.729  0.00  0.00    -0.023 C 
ATOM     16  C   LIG A   1      -5.713   3.894 125.536  0.00  0.00    +0.008 C 
ATOM     17  C   LIG A   1      -6.086   3.092 124.270  0.00  0.00    +0.019 C 
ATOM     18  C   LIG A   1      -6.971   1.879 124.611  0.00  0.00    +0.071 C 
ATOM     19  C   LIG A   1      -6.172   0.997 125.593  0.00  0.00    +0.017 C 
ATOM     20  C   LIG A   1      -6.825  -0.405 125.524  0.00  0.00    +0.018 C 
ATOM     21  C   LIG A   1      -7.467  -0.435 124.106  0.00  0.00    +0.009 C 
ATOM     22  C   LIG A   1      -7.188   0.920 123.443  0.00  0.00    +0.019 C 
ATOM     23  C   LIG A   1      -3.664   2.674 126.295  0.00  0.00    +0.012 C 
ATOM     24  C   LIG A   1      -6.522   4.458 128.419  0.00  0.00    +0.012 C 
ATOM     25  C   LIG A   1      -5.611   4.105 131.413  0.00  0.00    +0.012 C 
ATOM     26  C   LIG A   1      -3.703   6.447 132.476  0.00  0.00    +0.014 C 
ENDROOT
BRANCH  20  27
ATOM     27  C   LIG A   1      -5.927  -1.631 125.722  0.00  0.00    -0.076 C 
ATOM     28  C   LIG A   1      -5.263  -2.159 124.473  0.00  0.00    +0.038 C 
ATOM     29  C   LIG A   1      -5.688  -2.245 126.894  0.00  0.00    +0.007 C 
ENDBRANCH  20  27
BRANCH  18  30
ATOM     30  C   LIG A   1      -8.352   2.379 125.059  0.00  0.00    +0.311 C 
ATOM     31  O   LIG A   1      -8.913   2.095 126.110  0.00  0.00    -0.250 OA
BRANCH  30  32
ATOM     32  O   LIG A   1      -8.940   3.255 124.226  0.00  0.00    -0.480 OA
ATOM     33  H   LIG A   1      -9.871   2.949 124.179  0.00  0.00    +0.295 HD
ENDBRANCH  30  32
ENDBRANCH  18  30
BRANCH   3  34
ATOM     34  O   LIG A   1      -1.648   5.019 133.867  0.00  0.00    -0.391 OA
ATOM     35  H   LIG A   1      -1.803   5.978 133.853  0.00  0.00    +0.210 HD
ENDBRANCH   3  34
TORSDOF 4
ENDMDL
MODEL 3
REMARK VINA RESULT:      -8.5      1.873      3.938
REMARK  Name = NuBBE_146
REMARK  10 active torsions:
REMARK  status: ('A' for Active; 'I' for Inactive)
REMARK    1  A    between atoms: C_1  and  C_2
REMARK    2  A    between atoms: C_2  and  C_39
REMARK    3  A    between atoms: C_3  and  O_38
REMARK    4  A    between atoms: C_7  and  C_37
REMARK    5  A    between atoms: C_12  and  C_36
REMARK    6  A    between atoms: C_18  and  C_34
REMARK    7  A    between atoms: C_21  and  C_31
REMARK    8  A    between atoms: C_24  and  C_28
REMARK    9  A    between atoms: C_28  and  C_29
REMARK   10  A    between atoms: C_31  and  O_32
REMARK                            x       y       z     vdW  Elec       q    Type
REMARK                         _______ _______ _______ _____ _____    ______ ____
ROOT
ATOM      1  C   LIG A   1      -6.680  -3.139 132.710  0.00  0.00    +0.014 C 
ATOM      2  C   LIG A   1      -5.631  -3.066 131.566  0.00  0.00    -0.006 C 
ATOM      3  C   LIG A   1      -4.387  -2.307 132.122  0.00  0.00    +0.120 C 
ATOM      4  C   LIG A   1      -3.376  -1.914 131.054  0.00  0.00    +0.032 C 
ATOM      5  C   LIG A   1      -4.003  -1.124 129.907  0.00  0.00    +0.010 C 
ATOM      6  C   LIG A   1      -5.208  -1.840 129.224  0.00  0.00    -0.025 C 
ATOM      7  C   LIG A   1      -6.226  -2.240 130.360  0.00  0.00    +0.003 C 
ATOM      8  C   LIG A   1      -7.532  -2.810 129.766  0.00  0.00    +0.005 C 
ATOM      9  C   LIG A   1      -8.224  -1.791 128.854  0.00  0.00    +0.008 C 
ATOM     10  C   LIG A   1      -7.354  -1.275 127.675  0.00  0.00    -0.023 C 
ATOM     11  C   LIG A   1      -5.955  -0.804 128.263  0.00  0.00    +0.002 C 
ATOM     12  C   LIG A   1      -5.058  -0.185 127.167  0.00  0.00    +0.005 C 
ATOM     13  C   LIG A   1      -5.737   0.972 126.430  0.00  0.00    +0.005 C 
ATOM     14  C   LIG A   1      -7.074   0.551 125.822  0.00  0.00    +0.000 C 
ATOM     15  C   LIG A   1      -8.071  -0.024 126.910  0.00  0.00    -0.023 C 
ATOM     16  C   LIG A   1      -9.420  -0.445 126.213  0.00  0.00    +0.008 C 
ATOM     17  C   LIG A   1      -9.994   0.563 125.194  0.00  0.00    +0.019 C 
ATOM     18  C   LIG A   1      -8.932   0.995 124.167  0.00  0.00    +0.071 C 
ATOM     19  C   LIG A   1      -7.769   1.631 124.957  0.00  0.00    +0.017 C 
ATOM     20  C   LIG A   1      -6.985   2.488 123.934  0.00  0.00    +0.018 C 
ATOM     21  C   LIG A   1      -8.054   2.829 122.856  0.00  0.00    +0.009 C 
ATOM     22  C   LIG A   1      -9.367   2.156 123.274  0.00  0.00    +0.019 C 
ATOM     23  C   LIG A   1      -8.456   1.098 127.931  0.00  0.00    +0.012 C 
ATOM     24  C   LIG A   1      -7.187  -2.464 126.684  0.00  0.00    +0.012 C 
ATOM     25  C   LIG A   1      -4.640  -3.051 128.443  0.00  0.00    +0.012 C 
ATOM     26  C   LIG A   1      -5.285  -4.525 131.212  0.00  0.00    +0.014 C 
ENDROOT
BRANCH  20  27
ATOM     27  C   LIG A   1      -6.310   3.770 124.433  0.00  0.00    -0.076 C 
ATOM     28  C   LIG A   1      -6.926   4.392 125.663  0.00  0.00    +0.038 C 
ATOM     29  C   LIG A   1      -5.237   4.358 123.875  0.00  0.00    +0.007 C 
ENDBRANCH  20  27
BRANCH  18  30
ATOM     30  C   LIG A   1      -8.610  -0.194 123.251  0.00  0.00    +0.311 C 
ATOM     31  O   LIG A   1      -7.498  -0.665 123.050  0.00  0.00    -0.250 OA
BRANCH  30  32
ATOM     32  O   LIG A   1      -9.677  -0.786 122.687  0.00  0.00    -0.480 OA
ATOM     33  H   LIG A   1     -10.436  -0.245 122.990  0.00  0.00    +0.295 HD
ENDBRANCH  30  32
ENDBRANCH  18  30
BRANCH   3  34
ATOM     34  O   LIG A   1      -3.685  -3.080 133.096  0.00  0.00    -0.391 OA
ATOM     35  H   LIG A   1      -4.320  -3.680 133.520  0.00  0.00    +0.210 HD
ENDBRANCH   3  34
TORSDOF 4
ENDMDL
MODEL 4
REMARK VINA RESULT:      -8.5      3.212      4.368
REMARK  Name = NuBBE_146
REMARK  10 active torsions:
REMARK  status: ('A' for Active; 'I' for Inactive)
REMARK    1  A    between atoms: C_1  and  C_2
REMARK    2  A    between atoms: C_2  and  C_39
REMARK    3  A    between atoms: C_3  and  O_38
REMARK    4  A    between atoms: C_7  and  C_37
REMARK    5  A    between atoms: C_12  and  C_36
REMARK    6  A    between atoms: C_18  and  C_34
REMARK    7  A    between atoms: C_21  and  C_31
REMARK    8  A    between atoms: C_24  and  C_28
REMARK    9  A    between atoms: C_28  and  C_29
REMARK   10  A    between atoms: C_31  and  O_32
REMARK                            x       y       z     vdW  Elec       q    Type
REMARK                         _______ _______ _______ _____ _____    ______ ____
ROOT
ATOM      1  C   LIG A   1      -3.056   4.944 129.840  0.00  0.00    +0.014 C 
ATOM      2  C   LIG A   1      -4.484   4.473 130.235  0.00  0.00    -0.006 C 
ATOM      3  C   LIG A   1      -4.354   3.646 131.551  0.00  0.00    +0.120 C 
ATOM      4  C   LIG A   1      -5.619   2.888 131.930  0.00  0.00    +0.032 C 
ATOM      5  C   LIG A   1      -6.136   1.999 130.801  0.00  0.00    +0.010 C 
ATOM      6  C   LIG A   1      -6.382   2.753 129.458  0.00  0.00    -0.025 C 
ATOM      7  C   LIG A   1      -5.058   3.533 129.105  0.00  0.00    +0.003 C 
ATOM      8  C   LIG A   1      -5.146   4.180 127.706  0.00  0.00    +0.005 C 
ATOM      9  C   LIG A   1      -5.374   3.127 126.616  0.00  0.00    +0.008 C 
ATOM     10  C   LIG A   1      -6.641   2.250 126.812  0.00  0.00    -0.023 C 
ATOM     11  C   LIG A   1      -6.625   1.682 128.295  0.00  0.00    +0.002 C 
ATOM     12  C   LIG A   1      -7.806   0.718 128.548  0.00  0.00    +0.005 C 
ATOM     13  C   LIG A   1      -7.855  -0.434 127.543  0.00  0.00    +0.005 C 
ATOM     14  C   LIG A   1      -7.903   0.071 126.101  0.00  0.00    +0.000 C 
ATOM     15  C   LIG A   1      -6.674   1.007 125.754  0.00  0.00    -0.023 C 
ATOM     16  C   LIG A   1      -6.794   1.496 124.262  0.00  0.00    +0.008 C 
ATOM     17  C   LIG A   1      -7.169   0.414 123.227  0.00  0.00    +0.019 C 
ATOM     18  C   LIG A   1      -8.410  -0.383 123.667  0.00  0.00    +0.071 C 
ATOM     19  C   LIG A   1      -8.074  -1.031 125.027  0.00  0.00    +0.017 C 
ATOM     20  C   LIG A   1      -9.084  -2.191 125.200  0.00  0.00    +0.018 C 
ATOM     21  C   LIG A   1      -9.462  -2.561 123.737  0.00  0.00    +0.009 C 
ATOM     22  C   LIG A   1      -8.699  -1.611 122.806  0.00  0.00    +0.019 C 
ATOM     23  C   LIG A   1      -5.340   0.189 125.825  0.00  0.00    +0.012 C 
ATOM     24  C   LIG A   1      -7.871   3.174 126.567  0.00  0.00    +0.012 C 
ATOM     25  C   LIG A   1      -7.610   3.673 129.666  0.00  0.00    +0.012 C 
ATOM     26  C   LIG A   1      -5.309   5.755 130.458  0.00  0.00    +0.014 C 
ENDROOT
BRANCH  20  27
ATOM     27  C   LIG A   1      -8.624  -3.442 125.958  0.00  0.00    -0.076 C 
ATOM     28  C   LIG A   1      -7.809  -4.426 125.153  0.00  0.00    +0.038 C 
ATOM     29  C   LIG A   1      -8.878  -3.712 127.250  0.00  0.00    +0.007 C 
ENDBRANCH  20  27
BRANCH  18  30
ATOM     30  C   LIG A   1      -9.642   0.530 123.594  0.00  0.00    +0.311 C 
ATOM     31  O   LIG A   1     -10.265   0.974 124.550  0.00  0.00    -0.250 OA
BRANCH  30  32
ATOM     32  O   LIG A   1     -10.001   0.906 122.355  0.00  0.00    -0.480 OA
ATOM     33  H   LIG A   1      -9.233   0.655 121.799  0.00  0.00    +0.295 HD
ENDBRANCH  30  32
ENDBRANCH  18  30
BRANCH   3  34
ATOM     34  O   LIG A   1      -4.014   4.473 132.665  0.00  0.00    -0.391 OA
ATOM     35  H   LIG A   1      -4.462   4.120 133.451  0.00  0.00    +0.210 HD
ENDBRANCH   3  34
TORSDOF 4
ENDMDL
MODEL 5
REMARK VINA RESULT:      -8.4      3.525      6.403
REMARK  Name = NuBBE_146
REMARK  10 active torsions:
REMARK  status: ('A' for Active; 'I' for Inactive)
REMARK    1  A    between atoms: C_1  and  C_2
REMARK    2  A    between atoms: C_2  and  C_39
REMARK    3  A    between atoms: C_3  and  O_38
REMARK    4  A    between atoms: C_7  and  C_37
REMARK    5  A    between atoms: C_12  and  C_36
REMARK    6  A    between atoms: C_18  and  C_34
REMARK    7  A    between atoms: C_21  and  C_31
REMARK    8  A    between atoms: C_24  and  C_28
REMARK    9  A    between atoms: C_28  and  C_29
REMARK   10  A    between atoms: C_31  and  O_32
REMARK                            x       y       z     vdW  Elec       q    Type
REMARK                         _______ _______ _______ _____ _____    ______ ____
ROOT
ATOM      1  C   LIG A   1      -4.624   6.583 131.109  0.00  0.00    +0.014 C 
ATOM      2  C   LIG A   1      -3.964   5.750 129.974  0.00  0.00    -0.006 C 
ATOM      3  C   LIG A   1      -4.114   6.564 128.652  0.00  0.00    +0.120 C 
ATOM      4  C   LIG A   1      -3.760   5.775 127.399  0.00  0.00    +0.032 C 
ATOM      5  C   LIG A   1      -4.524   4.456 127.294  0.00  0.00    +0.010 C 
ATOM      6  C   LIG A   1      -4.368   3.528 128.538  0.00  0.00    -0.025 C 
ATOM      7  C   LIG A   1      -4.732   4.382 129.813  0.00  0.00    +0.003 C 
ATOM      8  C   LIG A   1      -4.766   3.504 131.082  0.00  0.00    +0.005 C 
ATOM      9  C   LIG A   1      -5.802   2.381 130.958  0.00  0.00    +0.008 C 
ATOM     10  C   LIG A   1      -5.601   1.441 129.738  0.00  0.00    -0.023 C 
ATOM     11  C   LIG A   1      -5.436   2.342 128.441  0.00  0.00    +0.002 C 
ATOM     12  C   LIG A   1      -5.325   1.482 127.161  0.00  0.00    +0.005 C 
ATOM     13  C   LIG A   1      -6.504   0.522 126.990  0.00  0.00    +0.005 C 
ATOM     14  C   LIG A   1      -6.679  -0.387 128.206  0.00  0.00    +0.000 C 
ATOM     15  C   LIG A   1      -6.874   0.437 129.545  0.00  0.00    -0.023 C 
ATOM     16  C   LIG A   1      -7.037  -0.560 130.753  0.00  0.00    +0.008 C 
ATOM     17  C   LIG A   1      -7.986  -1.755 130.516  0.00  0.00    +0.019 C 
ATOM     18  C   LIG A   1      -7.649  -2.494 129.209  0.00  0.00    +0.071 C 
ATOM     19  C   LIG A   1      -7.776  -1.469 128.062  0.00  0.00    +0.017 C 
ATOM     20  C   LIG A   1      -7.937  -2.303 126.769  0.00  0.00    +0.018 C 
ATOM     21  C   LIG A   1      -8.545  -3.643 127.277  0.00  0.00    +0.009 C 
ATOM     22  C   LIG A   1      -8.684  -3.540 128.801  0.00  0.00    +0.019 C 
ATOM     23  C   LIG A   1      -8.211   1.250 129.484  0.00  0.00    +0.012 C 
ATOM     24  C   LIG A   1      -4.318   0.604 130.021  0.00  0.00    +0.012 C 
ATOM     25  C   LIG A   1      -2.912   3.000 128.537  0.00  0.00    +0.012 C 
ATOM     26  C   LIG A   1      -2.483   5.592 130.369  0.00  0.00    +0.014 C 
ENDROOT
BRANCH  20  27
ATOM     27  C   LIG A   1      -8.799  -1.727 125.640  0.00  0.00    -0.076 C 
ATOM     28  C   LIG A   1      -9.001  -2.634 124.449  0.00  0.00    +0.038 C 
ATOM     29  C   LIG A   1      -9.377  -0.513 125.638  0.00  0.00    +0.007 C 
ENDBRANCH  20  27
BRANCH  18  30
ATOM     30  C   LIG A   1      -6.305  -3.217 129.376  0.00  0.00    +0.311 C 
ATOM     31  O   LIG A   1      -5.254  -2.917 128.824  0.00  0.00    -0.250 OA
BRANCH  30  32
ATOM     32  O   LIG A   1      -6.306  -4.225 130.265  0.00  0.00    -0.480 OA
ATOM     33  H   LIG A   1      -6.977  -4.849 129.915  0.00  0.00    +0.295 HD
ENDBRANCH  30  32
ENDBRANCH  18  30
BRANCH   3  34
ATOM     34  O   LIG A   1      -3.295   7.734 128.653  0.00  0.00    -0.391 OA
ATOM     35  H   LIG A   1      -2.376   7.459 128.504  0.00  0.00    +0.210 HD
ENDBRANCH   3  34
TORSDOF 4
ENDMDL
MODEL 6
REMARK VINA RESULT:      -8.3      3.953      6.787
REMARK  Name = NuBBE_146
REMARK  10 active torsions:
REMARK  status: ('A' for Active; 'I' for Inactive)
REMARK    1  A    between atoms: C_1  and  C_2
REMARK    2  A    between atoms: C_2  and  C_39
REMARK    3  A    between atoms: C_3  and  O_38
REMARK    4  A    between atoms: C_7  and  C_37
REMARK    5  A    between atoms: C_12  and  C_36
REMARK    6  A    between atoms: C_18  and  C_34
REMARK    7  A    between atoms: C_21  and  C_31
REMARK    8  A    between atoms: C_24  and  C_28
REMARK    9  A    between atoms: C_28  and  C_29
REMARK   10  A    between atoms: C_31  and  O_32
REMARK                            x       y       z     vdW  Elec       q    Type
REMARK                         _______ _______ _______ _____ _____    ______ ____
ROOT
ATOM      1  C   LIG A   1      -5.776  -4.040 133.354  0.00  0.00    +0.014 C 
ATOM      2  C   LIG A   1      -5.344  -3.307 132.054  0.00  0.00    -0.006 C 
ATOM      3  C   LIG A   1      -3.787  -3.216 132.066  0.00  0.00    +0.120 C 
ATOM      4  C   LIG A   1      -3.214  -2.294 130.998  0.00  0.00    +0.032 C 
ATOM      5  C   LIG A   1      -3.822  -0.893 131.038  0.00  0.00    +0.010 C 
ATOM      6  C   LIG A   1      -5.379  -0.871 130.945  0.00  0.00    -0.025 C 
ATOM      7  C   LIG A   1      -5.933  -1.843 132.056  0.00  0.00    +0.003 C 
ATOM      8  C   LIG A   1      -7.471  -1.763 132.152  0.00  0.00    +0.005 C 
ATOM      9  C   LIG A   1      -7.938  -0.345 132.496  0.00  0.00    +0.008 C 
ATOM     10  C   LIG A   1      -7.469   0.754 131.502  0.00  0.00    -0.023 C 
ATOM     11  C   LIG A   1      -5.901   0.599 131.298  0.00  0.00    +0.002 C 
ATOM     12  C   LIG A   1      -5.332   1.716 130.394  0.00  0.00    +0.005 C 
ATOM     13  C   LIG A   1      -5.660   3.119 130.911  0.00  0.00    +0.005 C 
ATOM     14  C   LIG A   1      -7.164   3.321 131.092  0.00  0.00    +0.000 C 
ATOM     15  C   LIG A   1      -7.797   2.249 132.071  0.00  0.00    -0.023 C 
ATOM     16  C   LIG A   1      -9.345   2.511 132.203  0.00  0.00    +0.008 C 
ATOM     17  C   LIG A   1      -9.764   3.983 132.404  0.00  0.00    +0.019 C 
ATOM     18  C   LIG A   1      -9.117   4.903 131.353  0.00  0.00    +0.071 C 
ATOM     19  C   LIG A   1      -7.588   4.753 131.498  0.00  0.00    +0.017 C 
ATOM     20  C   LIG A   1      -6.978   6.007 130.827  0.00  0.00    +0.018 C 
ATOM     21  C   LIG A   1      -8.113   7.066 130.941  0.00  0.00    +0.009 C 
ATOM     22  C   LIG A   1      -9.306   6.393 131.630  0.00  0.00    +0.019 C 
ATOM     23  C   LIG A   1      -7.214   2.429 133.513  0.00  0.00    +0.012 C 
ATOM     24  C   LIG A   1      -8.245   0.522 130.173  0.00  0.00    +0.012 C 
ATOM     25  C   LIG A   1      -5.758  -1.291 129.504  0.00  0.00    +0.012 C 
ATOM     26  C   LIG A   1      -5.845  -4.179 130.886  0.00  0.00    +0.014 C 
ENDROOT
BRANCH  20  27
ATOM     27  C   LIG A   1      -5.672   6.569 131.400  0.00  0.00    -0.076 C 
ATOM     28  C   LIG A   1      -5.380   6.200 132.834  0.00  0.00    +0.038 C 
ATOM     29  C   LIG A   1      -4.791   7.338 130.735  0.00  0.00    +0.007 C 
ENDBRANCH  20  27
BRANCH  18  30
ATOM     30  C   LIG A   1      -9.739   4.608 129.981  0.00  0.00    +0.311 C 
ATOM     31  O   LIG A   1      -9.127   4.293 128.968  0.00  0.00    -0.250 OA
BRANCH  30  32
ATOM     32  O   LIG A   1     -11.081   4.646 129.942  0.00  0.00    -0.480 OA
ATOM     33  H   LIG A   1     -11.352   3.746 130.221  0.00  0.00    +0.295 HD
ENDBRANCH  30  32
ENDBRANCH  18  30
BRANCH   3  34
ATOM     34  O   LIG A   1      -3.179  -4.495 131.880  0.00  0.00    -0.391 OA
ATOM     35  H   LIG A   1      -3.615  -5.126 132.477  0.00  0.00    +0.210 HD
ENDBRANCH   3  34
TORSDOF 4
ENDMDL
MODEL 7
REMARK VINA RESULT:      -8.3      1.908      8.152
REMARK  Name = NuBBE_146
REMARK  10 active torsions:
REMARK  status: ('A' for Active; 'I' for Inactive)
REMARK    1  A    between atoms: C_1  and  C_2
REMARK    2  A    between atoms: C_2  and  C_39
REMARK    3  A    between atoms: C_3  and  O_38
REMARK    4  A    between atoms: C_7  and  C_37
REMARK    5  A    between atoms: C_12  and  C_36
REMARK    6  A    between atoms: C_18  and  C_34
REMARK    7  A    between atoms: C_21  and  C_31
REMARK    8  A    between atoms: C_24  and  C_28
REMARK    9  A    between atoms: C_28  and  C_29
REMARK   10  A    between atoms: C_31  and  O_32
REMARK                            x       y       z     vdW  Elec       q    Type
REMARK                         _______ _______ _______ _____ _____    ______ ____
ROOT
ATOM      1  C   LIG A   1      -9.629   0.461 125.259  0.00  0.00    +0.014 C 
ATOM      2  C   LIG A   1      -8.636  -0.711 125.499  0.00  0.00    -0.006 C 
ATOM      3  C   LIG A   1      -9.389  -2.035 125.164  0.00  0.00    +0.120 C 
ATOM      4  C   LIG A   1      -8.649  -3.293 125.600  0.00  0.00    +0.032 C 
ATOM      5  C   LIG A   1      -8.260  -3.268 127.077  0.00  0.00    +0.010 C 
ATOM      6  C   LIG A   1      -7.425  -2.019 127.496  0.00  0.00    -0.025 C 
ATOM      7  C   LIG A   1      -8.217  -0.741 127.019  0.00  0.00    +0.003 C 
ATOM      8  C   LIG A   1      -7.551   0.553 127.534  0.00  0.00    +0.005 C 
ATOM      9  C   LIG A   1      -7.493   0.582 129.066  0.00  0.00    +0.008 C 
ATOM     10  C   LIG A   1      -6.751  -0.620 129.712  0.00  0.00    -0.023 C 
ATOM     11  C   LIG A   1      -7.343  -1.957 129.092  0.00  0.00    +0.002 C 
ATOM     12  C   LIG A   1      -6.726  -3.212 129.750  0.00  0.00    +0.005 C 
ATOM     13  C   LIG A   1      -6.886  -3.220 131.273  0.00  0.00    +0.005 C 
ATOM     14  C   LIG A   1      -6.300  -1.963 131.913  0.00  0.00    +0.000 C 
ATOM     15  C   LIG A   1      -6.948  -0.639 131.332  0.00  0.00    -0.023 C 
ATOM     16  C   LIG A   1      -6.292   0.613 132.028  0.00  0.00    +0.008 C 
ATOM     17  C   LIG A   1      -6.128   0.523 133.560  0.00  0.00    +0.019 C 
ATOM     18  C   LIG A   1      -5.438  -0.789 133.978  0.00  0.00    +0.071 C 
ATOM     19  C   LIG A   1      -6.315  -1.948 133.460  0.00  0.00    +0.017 C 
ATOM     20  C   LIG A   1      -5.908  -3.187 134.293  0.00  0.00    +0.018 C 
ATOM     21  C   LIG A   1      -5.361  -2.570 135.613  0.00  0.00    +0.009 C 
ATOM     22  C   LIG A   1      -5.449  -1.044 135.484  0.00  0.00    +0.019 C 
ATOM     23  C   LIG A   1      -8.468  -0.579 131.702  0.00  0.00    +0.012 C 
ATOM     24  C   LIG A   1      -5.240  -0.453 129.374  0.00  0.00    +0.012 C 
ATOM     25  C   LIG A   1      -6.027  -2.162 126.848  0.00  0.00    +0.012 C 
ATOM     26  C   LIG A   1      -7.459  -0.476 124.532  0.00  0.00    +0.014 C 
ENDROOT
BRANCH  20  27
ATOM     27  C   LIG A   1      -6.984  -4.233 134.606  0.00  0.00    -0.076 C 
ATOM     28  C   LIG A   1      -8.403  -3.718 134.626  0.00  0.00    +0.038 C 
ATOM     29  C   LIG A   1      -6.762  -5.537 134.848  0.00  0.00    +0.007 C 
ENDBRANCH  20  27
BRANCH  18  30
ATOM     30  C   LIG A   1      -3.970  -0.746 133.529  0.00  0.00    +0.311 C 
ATOM     31  O   LIG A   1      -3.463  -1.449 132.664  0.00  0.00    -0.250 OA
BRANCH  30  32
ATOM     32  O   LIG A   1      -3.222   0.204 134.115  0.00  0.00    -0.480 OA
ATOM     33  H   LIG A   1      -2.328   0.070 133.734  0.00  0.00    +0.295 HD
ENDBRANCH  30  32
ENDBRANCH  18  30
BRANCH   3  34
ATOM     34  O   LIG A   1      -9.640  -2.164 123.764  0.00  0.00    -0.391 OA
ATOM     35  H   LIG A   1      -8.790  -2.115 123.299  0.00  0.00    +0.210 HD
ENDBRANCH   3  34
TORSDOF 4
ENDMDL
MODEL 8
REMARK VINA RESULT:      -8.0      3.448      4.341
REMARK  Name = NuBBE_146
REMARK  10 active torsions:
REMARK  status: ('A' for Active; 'I' for Inactive)
REMARK    1  A    between atoms: C_1  and  C_2
REMARK    2  A    between atoms: C_2  and  C_39
REMARK    3  A    between atoms: C_3  and  O_38
REMARK    4  A    between atoms: C_7  and  C_37
REMARK    5  A    between atoms: C_12  and  C_36
REMARK    6  A    between atoms: C_18  and  C_34
REMARK    7  A    between atoms: C_21  and  C_31
REMARK    8  A    between atoms: C_24  and  C_28
REMARK    9  A    between atoms: C_28  and  C_29
REMARK   10  A    between atoms: C_31  and  O_32
REMARK                            x       y       z     vdW  Elec       q    Type
REMARK                         _______ _______ _______ _____ _____    ______ ____
ROOT
ATOM      1  C   LIG A   1      -4.286   4.955 133.243  0.00  0.00    +0.014 C 
ATOM      2  C   LIG A   1      -5.762   4.511 133.035  0.00  0.00    -0.006 C 
ATOM      3  C   LIG A   1      -6.056   3.378 134.065  0.00  0.00    +0.120 C 
ATOM      4  C   LIG A   1      -7.370   2.648 133.820  0.00  0.00    +0.032 C 
ATOM      5  C   LIG A   1      -7.489   2.107 132.397  0.00  0.00    +0.010 C 
ATOM      6  C   LIG A   1      -7.294   3.185 131.286  0.00  0.00    -0.025 C 
ATOM      7  C   LIG A   1      -5.933   3.925 131.580  0.00  0.00    +0.003 C 
ATOM      8  C   LIG A   1      -5.570   4.901 130.441  0.00  0.00    +0.005 C 
ATOM      9  C   LIG A   1      -5.427   4.170 129.101  0.00  0.00    +0.008 C 
ATOM     10  C   LIG A   1      -6.683   3.371 128.658  0.00  0.00    -0.023 C 
ATOM     11  C   LIG A   1      -7.141   2.455 129.872  0.00  0.00    +0.002 C 
ATOM     12  C   LIG A   1      -8.334   1.551 129.485  0.00  0.00    +0.005 C 
ATOM     13  C   LIG A   1      -8.047   0.689 128.253  0.00  0.00    +0.005 C 
ATOM     14  C   LIG A   1      -7.632   1.536 127.051  0.00  0.00    +0.000 C 
ATOM     15  C   LIG A   1      -6.363   2.433 127.360  0.00  0.00    -0.023 C 
ATOM     16  C   LIG A   1      -6.000   3.282 126.085  0.00  0.00    +0.008 C 
ATOM     17  C   LIG A   1      -6.013   2.520 124.742  0.00  0.00    +0.019 C 
ATOM     18  C   LIG A   1      -7.324   1.736 124.550  0.00  0.00    +0.071 C 
ATOM     19  C   LIG A   1      -7.439   0.750 125.731  0.00  0.00    +0.017 C 
ATOM     20  C   LIG A   1      -8.442  -0.338 125.274  0.00  0.00    +0.018 C 
ATOM     21  C   LIG A   1      -8.325  -0.305 123.723  0.00  0.00    +0.009 C 
ATOM     22  C   LIG A   1      -7.310   0.784 123.356  0.00  0.00    +0.019 C 
ATOM     23  C   LIG A   1      -5.118   1.524 127.632  0.00  0.00    +0.012 C 
ATOM     24  C   LIG A   1      -7.775   4.417 128.286  0.00  0.00    +0.012 C 
ATOM     25  C   LIG A   1      -8.531   4.116 131.329  0.00  0.00    +0.012 C 
ATOM     26  C   LIG A   1      -6.624   5.758 133.310  0.00  0.00    +0.014 C 
ENDROOT
BRANCH  20  27
ATOM     27  C   LIG A   1      -8.241  -1.767 125.788  0.00  0.00    -0.076 C 
ATOM     28  C   LIG A   1      -6.815  -2.148 126.109  0.00  0.00    +0.038 C 
ATOM     29  C   LIG A   1      -9.214  -2.676 125.977  0.00  0.00    +0.007 C 
ENDBRANCH  20  27
BRANCH  18  30
ATOM     30  C   LIG A   1      -8.473   2.730 124.332  0.00  0.00    +0.311 C 
ATOM     31  O   LIG A   1      -9.446   2.874 125.062  0.00  0.00    -0.250 OA
BRANCH  30  32
ATOM     32  O   LIG A   1      -8.333   3.542 123.271  0.00  0.00    -0.480 OA
ATOM     33  H   LIG A   1      -8.498   2.957 122.502  0.00  0.00    +0.295 HD
ENDBRANCH  30  32
ENDBRANCH  18  30
BRANCH   3  34
ATOM     34  O   LIG A   1      -6.100   3.876 135.403  0.00  0.00    -0.391 OA
ATOM     35  H   LIG A   1      -5.968   4.838 135.372  0.00  0.00    +0.210 HD
ENDBRANCH   3  34
TORSDOF 4
ENDMDL
MODEL 9
REMARK VINA RESULT:      -8.0      3.993      7.579
REMARK  Name = NuBBE_146
REMARK  10 active torsions:
REMARK  status: ('A' for Active; 'I' for Inactive)
REMARK    1  A    between atoms: C_1  and  C_2
REMARK    2  A    between atoms: C_2  and  C_39
REMARK    3  A    between atoms: C_3  and  O_38
REMARK    4  A    between atoms: C_7  and  C_37
REMARK    5  A    between atoms: C_12  and  C_36
REMARK    6  A    between atoms: C_18  and  C_34
REMARK    7  A    between atoms: C_21  and  C_31
REMARK    8  A    between atoms: C_24  and  C_28
REMARK    9  A    between atoms: C_28  and  C_29
REMARK   10  A    between atoms: C_31  and  O_32
REMARK                            x       y       z     vdW  Elec       q    Type
REMARK                         _______ _______ _______ _____ _____    ______ ____
ROOT
ATOM      1  C   LIG A   1      -6.337  -1.355 123.092  0.00  0.00    +0.014 C 
ATOM      2  C   LIG A   1      -6.964  -1.623 124.489  0.00  0.00    -0.006 C 
ATOM      3  C   LIG A   1      -8.489  -1.869 124.276  0.00  0.00    +0.120 C 
ATOM      4  C   LIG A   1      -9.298  -1.882 125.566  0.00  0.00    +0.032 C 
ATOM      5  C   LIG A   1      -9.081  -0.629 126.413  0.00  0.00    +0.010 C 
ATOM      6  C   LIG A   1      -7.587  -0.341 126.755  0.00  0.00    -0.025 C 
ATOM      7  C   LIG A   1      -6.783  -0.347 125.399  0.00  0.00    +0.003 C 
ATOM      8  C   LIG A   1      -5.318   0.092 125.616  0.00  0.00    +0.005 C 
ATOM      9  C   LIG A   1      -5.239   1.506 126.202  0.00  0.00    +0.008 C 
ATOM     10  C   LIG A   1      -5.993   1.697 127.547  0.00  0.00    -0.023 C 
ATOM     11  C   LIG A   1      -7.466   1.129 127.372  0.00  0.00    +0.002 C 
ATOM     12  C   LIG A   1      -8.321   1.365 128.637  0.00  0.00    +0.005 C 
ATOM     13  C   LIG A   1      -8.369   2.838 129.052  0.00  0.00    +0.005 C 
ATOM     14  C   LIG A   1      -6.970   3.415 129.262  0.00  0.00    +0.000 C 
ATOM     15  C   LIG A   1      -6.064   3.272 127.970  0.00  0.00    -0.023 C 
ATOM     16  C   LIG A   1      -4.640   3.876 128.261  0.00  0.00    +0.008 C 
ATOM     17  C   LIG A   1      -4.622   5.240 128.986  0.00  0.00    +0.019 C 
ATOM     18  C   LIG A   1      -5.501   5.219 130.249  0.00  0.00    +0.071 C 
ATOM     19  C   LIG A   1      -6.934   4.866 129.799  0.00  0.00    +0.017 C 
ATOM     20  C   LIG A   1      -7.863   5.337 130.945  0.00  0.00    +0.018 C 
ATOM     21  C   LIG A   1      -7.046   6.473 131.626  0.00  0.00    +0.009 C 
ATOM     22  C   LIG A   1      -5.709   6.592 130.885  0.00  0.00    +0.019 C 
ATOM     23  C   LIG A   1      -6.657   4.129 126.802  0.00  0.00    +0.012 C 
ATOM     24  C   LIG A   1      -5.199   0.904 128.626  0.00  0.00    +0.012 C 
ATOM     25  C   LIG A   1      -7.127  -1.430 127.756  0.00  0.00    +0.012 C 
ATOM     26  C   LIG A   1      -6.264  -2.882 125.035  0.00  0.00    +0.014 C 
ENDROOT
BRANCH  20  27
ATOM     27  C   LIG A   1      -9.263   5.841 130.579  0.00  0.00    -0.076 C 
ATOM     28  C   LIG A   1     -10.220   6.000 131.736  0.00  0.00    +0.038 C 
ATOM     29  C   LIG A   1      -9.686   6.150 129.340  0.00  0.00    +0.007 C 
ENDBRANCH  20  27
BRANCH  18  30
ATOM     30  C   LIG A   1      -4.840   4.319 131.303  0.00  0.00    +0.311 C 
ATOM     31  O   LIG A   1      -5.349   3.340 131.832  0.00  0.00    -0.250 OA
BRANCH  30  32
ATOM     32  O   LIG A   1      -3.566   4.628 131.600  0.00  0.00    -0.480 OA
ATOM     33  H   LIG A   1      -3.064   3.823 131.354  0.00  0.00    +0.295 HD
ENDBRANCH  30  32
ENDBRANCH  18  30
BRANCH   3  34
ATOM     34  O   LIG A   1      -8.740  -3.110 123.615  0.00  0.00    -0.391 OA
ATOM     35  H   LIG A   1      -9.692  -3.292 123.666  0.00  0.00    +0.210 HD
ENDBRANCH   3  34
TORSDOF 4
ENDMDL
