MODEL 1
REMARK VINA RESULT:      -5.9      0.000      0.000
REMARK  Name = NuBBE_907
REMARK  4 active torsions:
REMARK  status: ('A' for Active; 'I' for Inactive)
REMARK    1  A    between atoms: O_1  and  C_2
REMARK    2  A    between atoms: O_1  and  C_3
REMARK    3  A    between atoms: C_7  and  O_9
REMARK    4  A    between atoms: O_9  and  C_10
REMARK                            x       y       z     vdW  Elec       q    Type
REMARK                         _______ _______ _______ _____ _____    ______ ____
ROOT
ATOM      1  C   LIG A   1     -12.289   8.076 129.681  0.00  0.00    +0.134 A 
ATOM      2  C   LIG A   1     -11.499   7.549 128.645  0.00  0.00    +0.059 A 
ATOM      3  C   LIG A   1     -10.484   6.646 128.968  0.00  0.00    +0.146 A 
ATOM      4  C   LIG A   1     -10.229   6.251 130.281  0.00  0.00    +0.092 A 
ATOM      5  C   LIG A   1     -11.016   6.770 131.302  0.00  0.00    +0.127 A 
ATOM      6  C   LIG A   1     -12.049   7.665 130.998  0.00  0.00    +0.092 A 
ATOM      7  O   LIG A   1      -9.658   6.086 127.969  0.00  0.00    -0.422 OA
ATOM      8  C   LIG A   1      -9.817   6.412 126.630  0.00  0.00    +0.337 A 
ATOM      9  O   LIG A   1      -9.095   5.951 125.750  0.00  0.00    -0.245 OA
ATOM     10  C   LIG A   1     -10.904   7.345 126.301  0.00  0.00    +0.093 A 
ATOM     11  C   LIG A   1     -11.693   7.885 127.238  0.00  0.00    +0.022 A 
ENDROOT
BRANCH   1  12
ATOM     12  O   LIG A   1     -13.254   8.984 129.320  0.00  0.00    -0.494 OA
ATOM     13  C   LIG A   1     -13.192  10.273 129.922  0.00  0.00    +0.277 C 
ENDBRANCH   1  12
BRANCH   5  14
ATOM     14  O   LIG A   1     -10.903   6.457 132.629  0.00  0.00    -0.495 OA
ATOM     15  C   LIG A   1      -9.732   5.737 132.997  0.00  0.00    +0.277 C 
ENDBRANCH   5  14
TORSDOF 2
ENDMDL
MODEL 2
REMARK VINA RESULT:      -5.8      7.599      9.044
REMARK  Name = NuBBE_907
REMARK  4 active torsions:
REMARK  status: ('A' for Active; 'I' for Inactive)
REMARK    1  A    between atoms: O_1  and  C_2
REMARK    2  A    between atoms: O_1  and  C_3
REMARK    3  A    between atoms: C_7  and  O_9
REMARK    4  A    between atoms: O_9  and  C_10
REMARK                            x       y       z     vdW  Elec       q    Type
REMARK                         _______ _______ _______ _____ _____    ______ ____
ROOT
ATOM      1  C   LIG A   1      -6.053   3.579 123.964  0.00  0.00    +0.134 A 
ATOM      2  C   LIG A   1      -6.260   3.804 122.592  0.00  0.00    +0.059 A 
ATOM      3  C   LIG A   1      -7.505   3.495 122.041  0.00  0.00    +0.146 A 
ATOM      4  C   LIG A   1      -8.549   2.973 122.805  0.00  0.00    +0.092 A 
ATOM      5  C   LIG A   1      -8.343   2.758 124.163  0.00  0.00    +0.127 A 
ATOM      6  C   LIG A   1      -7.106   3.075 124.738  0.00  0.00    +0.092 A 
ATOM      7  O   LIG A   1      -7.769   3.698 120.668  0.00  0.00    -0.422 OA
ATOM      8  C   LIG A   1      -6.804   4.206 119.813  0.00  0.00    +0.337 A 
ATOM      9  O   LIG A   1      -7.008   4.370 118.612  0.00  0.00    -0.245 OA
ATOM     10  C   LIG A   1      -5.504   4.549 120.410  0.00  0.00    +0.093 A 
ATOM     11  C   LIG A   1      -5.241   4.361 121.708  0.00  0.00    +0.022 A 
ENDROOT
BRANCH   1  12
ATOM     12  O   LIG A   1      -4.804   3.868 124.455  0.00  0.00    -0.494 OA
ATOM     13  C   LIG A   1      -4.595   3.679 125.851  0.00  0.00    +0.277 C 
ENDBRANCH   1  12
BRANCH   5  14
ATOM     14  O   LIG A   1      -9.276   2.278 125.041  0.00  0.00    -0.495 OA
ATOM     15  C   LIG A   1     -10.107   1.233 124.551  0.00  0.00    +0.277 C 
ENDBRANCH   5  14
TORSDOF 2
ENDMDL
MODEL 3
REMARK VINA RESULT:      -5.7      2.440      3.711
REMARK  Name = NuBBE_907
REMARK  4 active torsions:
REMARK  status: ('A' for Active; 'I' for Inactive)
REMARK    1  A    between atoms: O_1  and  C_2
REMARK    2  A    between atoms: O_1  and  C_3
REMARK    3  A    between atoms: C_7  and  O_9
REMARK    4  A    between atoms: O_9  and  C_10
REMARK                            x       y       z     vdW  Elec       q    Type
REMARK                         _______ _______ _______ _____ _____    ______ ____
ROOT
ATOM      1  C   LIG A   1      -8.873   6.455 130.573  0.00  0.00    +0.134 A 
ATOM      2  C   LIG A   1     -10.021   6.725 129.809  0.00  0.00    +0.059 A 
ATOM      3  C   LIG A   1     -11.052   5.784 129.790  0.00  0.00    +0.146 A 
ATOM      4  C   LIG A   1     -10.983   4.588 130.505  0.00  0.00    +0.092 A 
ATOM      5  C   LIG A   1      -9.848   4.327 131.265  0.00  0.00    +0.127 A 
ATOM      6  C   LIG A   1      -8.809   5.265 131.309  0.00  0.00    +0.092 A 
ATOM      7  O   LIG A   1     -12.228   6.001 129.038  0.00  0.00    -0.422 OA
ATOM      8  C   LIG A   1     -12.404   7.152 128.285  0.00  0.00    +0.337 A 
ATOM      9  O   LIG A   1     -13.410   7.349 127.608  0.00  0.00    -0.245 OA
ATOM     10  C   LIG A   1     -11.321   8.145 128.331  0.00  0.00    +0.093 A 
ATOM     11  C   LIG A   1     -10.201   7.951 129.038  0.00  0.00    +0.022 A 
ENDROOT
BRANCH   1  12
ATOM     12  O   LIG A   1      -7.872   7.394 130.537  0.00  0.00    -0.494 OA
ATOM     13  C   LIG A   1      -6.613   7.023 131.091  0.00  0.00    +0.277 C 
ENDBRANCH   1  12
BRANCH   5  14
ATOM     14  O   LIG A   1      -9.648   3.215 132.036  0.00  0.00    -0.495 OA
ATOM     15  C   LIG A   1      -9.189   3.455 133.361  0.00  0.00    +0.277 C 
ENDBRANCH   5  14
TORSDOF 2
ENDMDL
MODEL 4
REMARK VINA RESULT:      -5.7      1.526      3.875
REMARK  Name = NuBBE_907
REMARK  4 active torsions:
REMARK  status: ('A' for Active; 'I' for Inactive)
REMARK    1  A    between atoms: O_1  and  C_2
REMARK    2  A    between atoms: O_1  and  C_3
REMARK    3  A    between atoms: C_7  and  O_9
REMARK    4  A    between atoms: O_9  and  C_10
REMARK                            x       y       z     vdW  Elec       q    Type
REMARK                         _______ _______ _______ _____ _____    ______ ____
ROOT
ATOM      1  C   LIG A   1      -9.449   5.687 129.335  0.00  0.00    +0.134 A 
ATOM      2  C   LIG A   1     -10.400   6.703 129.144  0.00  0.00    +0.059 A 
ATOM      3  C   LIG A   1     -11.154   7.132 130.239  0.00  0.00    +0.146 A 
ATOM      4  C   LIG A   1     -10.994   6.588 131.513  0.00  0.00    +0.092 A 
ATOM      5  C   LIG A   1     -10.048   5.586 131.699  0.00  0.00    +0.127 A 
ATOM      6  C   LIG A   1      -9.271   5.153 130.618  0.00  0.00    +0.092 A 
ATOM      7  O   LIG A   1     -12.125   8.149 130.104  0.00  0.00    -0.422 OA
ATOM      8  C   LIG A   1     -12.373   8.758 128.884  0.00  0.00    +0.337 A 
ATOM      9  O   LIG A   1     -13.228   9.629 128.744  0.00  0.00    -0.245 OA
ATOM     10  C   LIG A   1     -11.556   8.313 127.744  0.00  0.00    +0.093 A 
ATOM     11  C   LIG A   1     -10.634   7.350 127.857  0.00  0.00    +0.022 A 
ENDROOT
BRANCH   1  12
ATOM     12  O   LIG A   1      -8.753   5.275 128.225  0.00  0.00    -0.494 OA
ATOM     13  C   LIG A   1      -7.926   4.124 128.366  0.00  0.00    +0.277 C 
ENDBRANCH   1  12
BRANCH   5  14
ATOM     14  O   LIG A   1      -9.761   4.978 132.890  0.00  0.00    -0.495 OA
ATOM     15  C   LIG A   1      -9.039   3.755 132.802  0.00  0.00    +0.277 C 
ENDBRANCH   5  14
TORSDOF 2
ENDMDL
MODEL 5
REMARK VINA RESULT:      -5.5      2.485      4.498
REMARK  Name = NuBBE_907
REMARK  4 active torsions:
REMARK  status: ('A' for Active; 'I' for Inactive)
REMARK    1  A    between atoms: O_1  and  C_2
REMARK    2  A    between atoms: O_1  and  C_3
REMARK    3  A    between atoms: C_7  and  O_9
REMARK    4  A    between atoms: O_9  and  C_10
REMARK                            x       y       z     vdW  Elec       q    Type
REMARK                         _______ _______ _______ _____ _____    ______ ____
ROOT
ATOM      1  C   LIG A   1      -7.923   6.732 131.262  0.00  0.00    +0.134 A 
ATOM      2  C   LIG A   1      -9.259   6.879 130.852  0.00  0.00    +0.059 A 
ATOM      3  C   LIG A   1     -10.266   6.289 131.620  0.00  0.00    +0.146 A 
ATOM      4  C   LIG A   1      -9.990   5.564 132.779  0.00  0.00    +0.092 A 
ATOM      5  C   LIG A   1      -8.668   5.426 133.184  0.00  0.00    +0.127 A 
ATOM      6  C   LIG A   1      -7.645   6.022 132.436  0.00  0.00    +0.092 A 
ATOM      7  O   LIG A   1     -11.625   6.402 131.255  0.00  0.00    -0.422 OA
ATOM      8  C   LIG A   1     -12.016   7.096 130.120  0.00  0.00    +0.337 A 
ATOM      9  O   LIG A   1     -13.192   7.186 129.775  0.00  0.00    -0.245 OA
ATOM     10  C   LIG A   1     -10.948   7.730 129.332  0.00  0.00    +0.093 A 
ATOM     11  C   LIG A   1      -9.657   7.630 129.666  0.00  0.00    +0.022 A 
ENDROOT
BRANCH   1  12
ATOM     12  O   LIG A   1      -6.965   7.301 130.459  0.00  0.00    -0.494 OA
ATOM     13  C   LIG A   1      -5.606   7.130 130.848  0.00  0.00    +0.277 C 
ENDBRANCH   1  12
BRANCH   5  14
ATOM     14  O   LIG A   1      -8.246   4.769 134.308  0.00  0.00    -0.495 OA
ATOM     15  C   LIG A   1      -7.598   5.571 135.288  0.00  0.00    +0.277 C 
ENDBRANCH   5  14
TORSDOF 2
ENDMDL
MODEL 6
REMARK VINA RESULT:      -5.3      8.807     10.871
REMARK  Name = NuBBE_907
REMARK  4 active torsions:
REMARK  status: ('A' for Active; 'I' for Inactive)
REMARK    1  A    between atoms: O_1  and  C_2
REMARK    2  A    between atoms: O_1  and  C_3
REMARK    3  A    between atoms: C_7  and  O_9
REMARK    4  A    between atoms: O_9  and  C_10
REMARK                            x       y       z     vdW  Elec       q    Type
REMARK                         _______ _______ _______ _____ _____    ______ ____
ROOT
ATOM      1  C   LIG A   1      -9.007  -2.038 125.329  0.00  0.00    +0.134 A 
ATOM      2  C   LIG A   1      -8.645  -2.391 126.640  0.00  0.00    +0.059 A 
ATOM      3  C   LIG A   1      -7.881  -1.495 127.390  0.00  0.00    +0.146 A 
ATOM      4  C   LIG A   1      -7.467  -0.263 126.883  0.00  0.00    +0.092 A 
ATOM      5  C   LIG A   1      -7.832   0.085 125.588  0.00  0.00    +0.127 A 
ATOM      6  C   LIG A   1      -8.610  -0.793 124.824  0.00  0.00    +0.092 A 
ATOM      7  O   LIG A   1      -7.487  -1.798 128.712  0.00  0.00    -0.422 OA
ATOM      8  C   LIG A   1      -7.837  -2.996 129.316  0.00  0.00    +0.337 A 
ATOM      9  O   LIG A   1      -7.485  -3.285 130.457  0.00  0.00    -0.245 OA
ATOM     10  C   LIG A   1      -8.661  -3.921 128.524  0.00  0.00    +0.093 A 
ATOM     11  C   LIG A   1      -9.040  -3.647 127.270  0.00  0.00    +0.022 A 
ENDROOT
BRANCH   1  12
ATOM     12  O   LIG A   1      -9.731  -2.963 124.618  0.00  0.00    -0.494 OA
ATOM     13  C   LIG A   1      -9.378  -3.154 123.251  0.00  0.00    +0.277 C 
ENDBRANCH   1  12
BRANCH   5  14
ATOM     14  O   LIG A   1      -7.524   1.265 124.967  0.00  0.00    -0.495 OA
ATOM     15  C   LIG A   1      -7.221   1.173 123.580  0.00  0.00    +0.277 C 
ENDBRANCH   5  14
TORSDOF 2
ENDMDL
MODEL 7
REMARK VINA RESULT:      -5.3      2.946      5.150
REMARK  Name = NuBBE_907
REMARK  4 active torsions:
REMARK  status: ('A' for Active; 'I' for Inactive)
REMARK    1  A    between atoms: O_1  and  C_2
REMARK    2  A    between atoms: O_1  and  C_3
REMARK    3  A    between atoms: C_7  and  O_9
REMARK    4  A    between atoms: O_9  and  C_10
REMARK                            x       y       z     vdW  Elec       q    Type
REMARK                         _______ _______ _______ _____ _____    ______ ____
ROOT
ATOM      1  C   LIG A   1      -8.934   4.428 132.783  0.00  0.00    +0.134 A 
ATOM      2  C   LIG A   1      -9.235   5.124 131.601  0.00  0.00    +0.059 A 
ATOM      3  C   LIG A   1      -9.814   4.425 130.539  0.00  0.00    +0.146 A 
ATOM      4  C   LIG A   1     -10.104   3.063 130.614  0.00  0.00    +0.092 A 
ATOM      5  C   LIG A   1      -9.811   2.379 131.788  0.00  0.00    +0.127 A 
ATOM      6  C   LIG A   1      -9.244   3.065 132.869  0.00  0.00    +0.092 A 
ATOM      7  O   LIG A   1     -10.136   5.073 129.326  0.00  0.00    -0.422 OA
ATOM      8  C   LIG A   1      -9.887   6.423 129.137  0.00  0.00    +0.337 A 
ATOM      9  O   LIG A   1     -10.141   6.999 128.082  0.00  0.00    -0.245 OA
ATOM     10  C   LIG A   1      -9.298   7.153 130.270  0.00  0.00    +0.093 A 
ATOM     11  C   LIG A   1      -8.987   6.551 131.424  0.00  0.00    +0.022 A 
ENDROOT
BRANCH   1  12
ATOM     12  O   LIG A   1      -8.337   5.148 133.789  0.00  0.00    -0.494 OA
ATOM     13  C   LIG A   1      -7.785   4.412 134.876  0.00  0.00    +0.277 C 
ENDBRANCH   1  12
BRANCH   5  14
ATOM     14  O   LIG A   1     -10.061   1.054 132.019  0.00  0.00    -0.495 OA
ATOM     15  C   LIG A   1      -8.964   0.172 131.814  0.00  0.00    +0.277 C 
ENDBRANCH   5  14
TORSDOF 2
ENDMDL
MODEL 8
REMARK VINA RESULT:      -5.1      7.803      9.672
REMARK  Name = NuBBE_907
REMARK  4 active torsions:
REMARK  status: ('A' for Active; 'I' for Inactive)
REMARK    1  A    between atoms: O_1  and  C_2
REMARK    2  A    between atoms: O_1  and  C_3
REMARK    3  A    between atoms: C_7  and  O_9
REMARK    4  A    between atoms: O_9  and  C_10
REMARK                            x       y       z     vdW  Elec       q    Type
REMARK                         _______ _______ _______ _____ _____    ______ ____
ROOT
ATOM      1  C   LIG A   1      -7.745  -1.085 127.803  0.00  0.00    +0.134 A 
ATOM      2  C   LIG A   1      -8.264  -1.703 126.653  0.00  0.00    +0.059 A 
ATOM      3  C   LIG A   1      -8.954  -0.921 125.724  0.00  0.00    +0.146 A 
ATOM      4  C   LIG A   1      -9.144   0.450 125.898  0.00  0.00    +0.092 A 
ATOM      5  C   LIG A   1      -8.624   1.058 127.034  0.00  0.00    +0.127 A 
ATOM      6  C   LIG A   1      -7.916   0.295 127.971  0.00  0.00    +0.092 A 
ATOM      7  O   LIG A   1      -9.499  -1.489 124.551  0.00  0.00    -0.422 OA
ATOM      8  C   LIG A   1      -9.376  -2.843 124.277  0.00  0.00    +0.337 A 
ATOM      9  O   LIG A   1      -9.861  -3.358 123.272  0.00  0.00    -0.245 OA
ATOM     10  C   LIG A   1      -8.628  -3.650 125.251  0.00  0.00    +0.093 A 
ATOM     11  C   LIG A   1      -8.108  -3.126 126.367  0.00  0.00    +0.022 A 
ENDROOT
BRANCH   1  12
ATOM     12  O   LIG A   1      -7.102  -1.897 128.704  0.00  0.00    -0.494 OA
ATOM     13  C   LIG A   1      -7.662  -1.991 130.010  0.00  0.00    +0.277 C 
ENDBRANCH   1  12
BRANCH   5  14
ATOM     14  O   LIG A   1      -8.706   2.392 127.328  0.00  0.00    -0.495 OA
ATOM     15  C   LIG A   1      -8.136   2.789 128.570  0.00  0.00    +0.277 C 
ENDBRANCH   5  14
TORSDOF 2
ENDMDL
MODEL 9
REMARK VINA RESULT:      -5.1      8.628     11.224
REMARK  Name = NuBBE_907
REMARK  4 active torsions:
REMARK  status: ('A' for Active; 'I' for Inactive)
REMARK    1  A    between atoms: O_1  and  C_2
REMARK    2  A    between atoms: O_1  and  C_3
REMARK    3  A    between atoms: C_7  and  O_9
REMARK    4  A    between atoms: O_9  and  C_10
REMARK                            x       y       z     vdW  Elec       q    Type
REMARK                         _______ _______ _______ _____ _____    ______ ____
ROOT
ATOM      1  C   LIG A   1      -6.964  -2.223 125.777  0.00  0.00    +0.134 A 
ATOM      2  C   LIG A   1      -7.742  -1.184 125.241  0.00  0.00    +0.059 A 
ATOM      3  C   LIG A   1      -7.518  -0.790 123.920  0.00  0.00    +0.146 A 
ATOM      4  C   LIG A   1      -6.551  -1.393 123.117  0.00  0.00    +0.092 A 
ATOM      5  C   LIG A   1      -5.787  -2.425 123.649  0.00  0.00    +0.127 A 
ATOM      6  C   LIG A   1      -6.006  -2.845 124.967  0.00  0.00    +0.092 A 
ATOM      7  O   LIG A   1      -8.269   0.251 123.330  0.00  0.00    -0.422 OA
ATOM      8  C   LIG A   1      -9.254   0.925 124.037  0.00  0.00    +0.337 A 
ATOM      9  O   LIG A   1      -9.902   1.846 123.546  0.00  0.00    -0.245 OA
ATOM     10  C   LIG A   1      -9.495   0.485 125.419  0.00  0.00    +0.093 A 
ATOM     11  C   LIG A   1      -8.790  -0.497 125.991  0.00  0.00    +0.022 A 
ENDROOT
BRANCH   1  12
ATOM     12  O   LIG A   1      -7.197  -2.556 127.089  0.00  0.00    -0.494 OA
ATOM     13  C   LIG A   1      -6.170  -2.254 128.029  0.00  0.00    +0.277 C 
ENDBRANCH   1  12
BRANCH   5  14
ATOM     14  O   LIG A   1      -4.823  -3.127 122.977  0.00  0.00    -0.495 OA
ATOM     15  C   LIG A   1      -4.354  -4.306 123.622  0.00  0.00    +0.277 C 
ENDBRANCH   5  14
TORSDOF 2
ENDMDL
