MODEL 1
REMARK VINA RESULT:      -6.3      0.000      0.000
REMARK  Name = NuBBE_10
REMARK  6 active torsions:
REMARK  status: ('A' for Active; 'I' for Inactive)
REMARK    1  A    between atoms: O_1  and  C_2
REMARK    2  A    between atoms: C_3  and  C_4
REMARK    3  A    between atoms: C_7  and  C_9
REMARK    4  A    between atoms: C_9  and  C_11
REMARK    5  A    between atoms: C_9  and  C_12
REMARK    6  A    between atoms: C_15  and  C_17
REMARK                            x       y       z     vdW  Elec       q    Type
REMARK                         _______ _______ _______ _____ _____    ______ ____
ROOT
ATOM      1  C   LIG A   1      -8.328   1.072 125.271  0.00  0.00    +0.120 A 
ATOM      2  C   LIG A   1      -6.936   1.075 125.345  0.00  0.00    -0.009 A 
ATOM      3  C   LIG A   1      -6.144   2.329 125.569  0.00  0.00    +0.048 C 
ATOM      4  C   LIG A   1      -6.265  -0.149 125.203  0.00  0.00    +0.011 A 
ATOM      5  C   LIG A   1      -6.952  -1.362 124.981  0.00  0.00    -0.040 A 
ATOM      6  C   LIG A   1      -6.145  -2.648 124.807  0.00  0.00    +0.022 C 
ATOM      7  C   LIG A   1      -7.017  -3.919 124.867  0.00  0.00    +0.009 C 
ATOM      8  C   LIG A   1      -8.375  -3.755 124.196  0.00  0.00    +0.008 C 
ATOM      9  C   LIG A   1      -9.182  -2.605 124.806  0.00  0.00    +0.016 C 
ATOM     10  C   LIG A   1      -9.782  -3.000 126.162  0.00  0.00    +0.012 C 
ATOM     11  C   LIG A   1      -8.357  -1.342 124.941  0.00  0.00    -0.038 A 
ATOM     12  C   LIG A   1      -9.029  -0.116 125.077  0.00  0.00    +0.049 A 
ENDROOT
BRANCH   6  13
ATOM     13  C   LIG A   1      -5.179  -2.583 123.577  0.00  0.00    -0.010 C 
ATOM     14  C   LIG A   1      -4.399  -3.892 123.397  0.00  0.00    +0.008 C 
ATOM     15  C   LIG A   1      -5.852  -2.201 122.258  0.00  0.00    +0.008 C 
ENDBRANCH   6  13
BRANCH   1  16
ATOM     16  O   LIG A   1      -9.083   2.204 125.392  0.00  0.00    -0.506 OA
ATOM     17  H   LIG A   1     -10.021   1.969 125.323  0.00  0.00    +0.292 HD
ENDBRANCH   1  16
TORSDOF 2
ENDMDL
MODEL 2
REMARK VINA RESULT:      -6.2      2.345      4.665
REMARK  Name = NuBBE_10
REMARK  6 active torsions:
REMARK  status: ('A' for Active; 'I' for Inactive)
REMARK    1  A    between atoms: O_1  and  C_2
REMARK    2  A    between atoms: C_3  and  C_4
REMARK    3  A    between atoms: C_7  and  C_9
REMARK    4  A    between atoms: C_9  and  C_11
REMARK    5  A    between atoms: C_9  and  C_12
REMARK    6  A    between atoms: C_15  and  C_17
REMARK                            x       y       z     vdW  Elec       q    Type
REMARK                         _______ _______ _______ _____ _____    ______ ____
ROOT
ATOM      1  C   LIG A   1      -6.009  -2.085 123.082  0.00  0.00    +0.120 A 
ATOM      2  C   LIG A   1      -5.452  -2.950 124.023  0.00  0.00    -0.009 A 
ATOM      3  C   LIG A   1      -4.539  -4.077 123.640  0.00  0.00    +0.048 C 
ATOM      4  C   LIG A   1      -5.766  -2.745 125.376  0.00  0.00    +0.011 A 
ATOM      5  C   LIG A   1      -6.624  -1.708 125.799  0.00  0.00    -0.040 A 
ATOM      6  C   LIG A   1      -6.940  -1.571 127.288  0.00  0.00    +0.022 C 
ATOM      7  C   LIG A   1      -7.640  -0.241 127.635  0.00  0.00    +0.009 C 
ATOM      8  C   LIG A   1      -8.645   0.210 126.582  0.00  0.00    +0.008 C 
ATOM      9  C   LIG A   1      -7.999   0.368 125.203  0.00  0.00    +0.016 C 
ATOM     10  C   LIG A   1      -7.171   1.657 125.117  0.00  0.00    +0.012 C 
ATOM     11  C   LIG A   1      -7.149  -0.830 124.834  0.00  0.00    -0.038 A 
ATOM     12  C   LIG A   1      -6.839  -1.039 123.479  0.00  0.00    +0.049 A 
ENDROOT
BRANCH   6  13
ATOM     13  C   LIG A   1      -7.645  -2.844 127.867  0.00  0.00    -0.010 C 
ATOM     14  C   LIG A   1      -8.017  -2.664 129.345  0.00  0.00    +0.008 C 
ATOM     15  C   LIG A   1      -8.872  -3.305 127.081  0.00  0.00    +0.008 C 
ENDBRANCH   6  13
BRANCH   1  16
ATOM     16  O   LIG A   1      -5.775  -2.192 121.741  0.00  0.00    -0.506 OA
ATOM     17  H   LIG A   1      -6.329  -2.898 121.377  0.00  0.00    +0.292 HD
ENDBRANCH   1  16
TORSDOF 2
ENDMDL
MODEL 3
REMARK VINA RESULT:      -6.1      1.997      3.091
REMARK  Name = NuBBE_10
REMARK  6 active torsions:
REMARK  status: ('A' for Active; 'I' for Inactive)
REMARK    1  A    between atoms: O_1  and  C_2
REMARK    2  A    between atoms: C_3  and  C_4
REMARK    3  A    between atoms: C_7  and  C_9
REMARK    4  A    between atoms: C_9  and  C_11
REMARK    5  A    between atoms: C_9  and  C_12
REMARK    6  A    between atoms: C_15  and  C_17
REMARK                            x       y       z     vdW  Elec       q    Type
REMARK                         _______ _______ _______ _____ _____    ______ ____
ROOT
ATOM      1  C   LIG A   1      -7.589   0.867 123.927  0.00  0.00    +0.120 A 
ATOM      2  C   LIG A   1      -7.856   1.239 125.244  0.00  0.00    -0.009 A 
ATOM      3  C   LIG A   1      -7.798   2.665 125.706  0.00  0.00    +0.048 C 
ATOM      4  C   LIG A   1      -8.192   0.229 126.159  0.00  0.00    +0.011 A 
ATOM      5  C   LIG A   1      -8.254  -1.131 125.789  0.00  0.00    -0.040 A 
ATOM      6  C   LIG A   1      -8.597  -2.173 126.853  0.00  0.00    +0.022 C 
ATOM      7  C   LIG A   1      -8.916  -3.560 126.258  0.00  0.00    +0.009 C 
ATOM      8  C   LIG A   1      -8.041  -3.924 125.065  0.00  0.00    +0.008 C 
ATOM      9  C   LIG A   1      -8.150  -2.895 123.937  0.00  0.00    +0.016 C 
ATOM     10  C   LIG A   1      -9.461  -3.056 123.157  0.00  0.00    +0.012 C 
ATOM     11  C   LIG A   1      -8.010  -1.476 124.448  0.00  0.00    -0.038 A 
ATOM     12  C   LIG A   1      -7.668  -0.466 123.532  0.00  0.00    +0.049 A 
ENDROOT
BRANCH   6  13
ATOM     13  C   LIG A   1      -7.557  -2.194 128.023  0.00  0.00    -0.010 C 
ATOM     14  C   LIG A   1      -7.822  -3.350 128.997  0.00  0.00    +0.008 C 
ATOM     15  C   LIG A   1      -6.095  -2.226 127.575  0.00  0.00    +0.008 C 
ENDBRANCH   6  13
BRANCH   1  16
ATOM     16  O   LIG A   1      -7.250   1.763 122.954  0.00  0.00    -0.506 OA
ATOM     17  H   LIG A   1      -6.619   1.350 122.346  0.00  0.00    +0.292 HD
ENDBRANCH   1  16
TORSDOF 2
ENDMDL
MODEL 4
REMARK VINA RESULT:      -6.1      8.515     10.655
REMARK  Name = NuBBE_10
REMARK  6 active torsions:
REMARK  status: ('A' for Active; 'I' for Inactive)
REMARK    1  A    between atoms: O_1  and  C_2
REMARK    2  A    between atoms: C_3  and  C_4
REMARK    3  A    between atoms: C_7  and  C_9
REMARK    4  A    between atoms: C_9  and  C_11
REMARK    5  A    between atoms: C_9  and  C_12
REMARK    6  A    between atoms: C_15  and  C_17
REMARK                            x       y       z     vdW  Elec       q    Type
REMARK                         _______ _______ _______ _____ _____    ______ ____
ROOT
ATOM      1  C   LIG A   1     -10.563   6.128 131.821  0.00  0.00    +0.120 A 
ATOM      2  C   LIG A   1      -9.952   6.868 130.810  0.00  0.00    -0.009 A 
ATOM      3  C   LIG A   1     -10.735   7.553 129.728  0.00  0.00    +0.048 C 
ATOM      4  C   LIG A   1      -8.552   6.969 130.818  0.00  0.00    +0.011 A 
ATOM      5  C   LIG A   1      -7.760   6.341 131.802  0.00  0.00    -0.040 A 
ATOM      6  C   LIG A   1      -6.239   6.474 131.723  0.00  0.00    +0.022 C 
ATOM      7  C   LIG A   1      -5.525   5.996 133.004  0.00  0.00    +0.009 C 
ATOM      8  C   LIG A   1      -6.168   4.767 133.635  0.00  0.00    +0.008 C 
ATOM      9  C   LIG A   1      -7.641   5.002 133.980  0.00  0.00    +0.016 C 
ATOM     10  C   LIG A   1      -7.790   5.858 135.245  0.00  0.00    +0.012 C 
ATOM     11  C   LIG A   1      -8.401   5.625 132.829  0.00  0.00    -0.038 A 
ATOM     12  C   LIG A   1      -9.803   5.520 132.817  0.00  0.00    +0.049 A 
ENDROOT
BRANCH   6  13
ATOM     13  C   LIG A   1      -5.657   5.877 130.398  0.00  0.00    -0.010 C 
ATOM     14  C   LIG A   1      -4.126   5.963 130.361  0.00  0.00    +0.008 C 
ATOM     15  C   LIG A   1      -6.100   4.445 130.096  0.00  0.00    +0.008 C 
ENDBRANCH   6  13
BRANCH   1  16
ATOM     16  O   LIG A   1     -11.915   5.961 131.910  0.00  0.00    -0.506 OA
ATOM     17  H   LIG A   1     -12.154   5.779 132.831  0.00  0.00    +0.292 HD
ENDBRANCH   1  16
TORSDOF 2
ENDMDL
MODEL 5
REMARK VINA RESULT:      -6.0      2.918      4.694
REMARK  Name = NuBBE_10
REMARK  6 active torsions:
REMARK  status: ('A' for Active; 'I' for Inactive)
REMARK    1  A    between atoms: O_1  and  C_2
REMARK    2  A    between atoms: C_3  and  C_4
REMARK    3  A    between atoms: C_7  and  C_9
REMARK    4  A    between atoms: C_9  and  C_11
REMARK    5  A    between atoms: C_9  and  C_12
REMARK    6  A    between atoms: C_15  and  C_17
REMARK                            x       y       z     vdW  Elec       q    Type
REMARK                         _______ _______ _______ _____ _____    ______ ____
ROOT
ATOM      1  C   LIG A   1      -5.939  -2.282 128.828  0.00  0.00    +0.120 A 
ATOM      2  C   LIG A   1      -7.258  -2.731 128.862  0.00  0.00    -0.009 A 
ATOM      3  C   LIG A   1      -7.857  -3.382 130.074  0.00  0.00    +0.048 C 
ATOM      4  C   LIG A   1      -8.043  -2.559 127.712  0.00  0.00    +0.011 A 
ATOM      5  C   LIG A   1      -7.537  -1.963 126.537  0.00  0.00    -0.040 A 
ATOM      6  C   LIG A   1      -8.449  -1.841 125.317  0.00  0.00    +0.022 C 
ATOM      7  C   LIG A   1      -7.870  -0.920 124.223  0.00  0.00    +0.009 C 
ATOM      8  C   LIG A   1      -6.361  -1.048 124.058  0.00  0.00    +0.008 C 
ATOM      9  C   LIG A   1      -5.613  -0.752 125.361  0.00  0.00    +0.016 C 
ATOM     10  C   LIG A   1      -5.560   0.755 125.646  0.00  0.00    +0.012 C 
ATOM     11  C   LIG A   1      -6.212  -1.491 126.539  0.00  0.00    -0.038 A 
ATOM     12  C   LIG A   1      -5.423  -1.668 127.689  0.00  0.00    +0.049 A 
ENDROOT
BRANCH   6  13
ATOM     13  C   LIG A   1      -8.938  -3.234 124.798  0.00  0.00    -0.010 C 
ATOM     14  C   LIG A   1      -9.594  -3.126 123.414  0.00  0.00    +0.008 C 
ATOM     15  C   LIG A   1      -7.861  -4.319 124.773  0.00  0.00    +0.008 C 
ENDBRANCH   6  13
BRANCH   1  16
ATOM     16  O   LIG A   1      -5.084  -2.400 129.887  0.00  0.00    -0.506 OA
ATOM     17  H   LIG A   1      -4.173  -2.293 129.574  0.00  0.00    +0.292 HD
ENDBRANCH   1  16
TORSDOF 2
ENDMDL
MODEL 6
REMARK VINA RESULT:      -6.0      1.746      2.188
REMARK  Name = NuBBE_10
REMARK  6 active torsions:
REMARK  status: ('A' for Active; 'I' for Inactive)
REMARK    1  A    between atoms: O_1  and  C_2
REMARK    2  A    between atoms: C_3  and  C_4
REMARK    3  A    between atoms: C_7  and  C_9
REMARK    4  A    between atoms: C_9  and  C_11
REMARK    5  A    between atoms: C_9  and  C_12
REMARK    6  A    between atoms: C_15  and  C_17
REMARK                            x       y       z     vdW  Elec       q    Type
REMARK                         _______ _______ _______ _____ _____    ______ ____
ROOT
ATOM      1  C   LIG A   1      -8.521   2.141 124.739  0.00  0.00    +0.120 A 
ATOM      2  C   LIG A   1      -7.495   2.015 123.805  0.00  0.00    -0.009 A 
ATOM      3  C   LIG A   1      -7.275   3.016 122.709  0.00  0.00    +0.048 C 
ATOM      4  C   LIG A   1      -6.642   0.905 123.907  0.00  0.00    +0.011 A 
ATOM      5  C   LIG A   1      -6.801  -0.076 124.909  0.00  0.00    -0.040 A 
ATOM      6  C   LIG A   1      -5.849  -1.270 124.933  0.00  0.00    +0.022 C 
ATOM      7  C   LIG A   1      -5.949  -2.095 126.233  0.00  0.00    +0.009 C 
ATOM      8  C   LIG A   1      -7.372  -2.223 126.763  0.00  0.00    +0.008 C 
ATOM      9  C   LIG A   1      -8.012  -0.857 127.025  0.00  0.00    +0.016 C 
ATOM     10  C   LIG A   1      -7.476  -0.226 128.316  0.00  0.00    +0.012 C 
ATOM     11  C   LIG A   1      -7.826   0.090 125.858  0.00  0.00    -0.038 A 
ATOM     12  C   LIG A   1      -8.684   1.199 125.752  0.00  0.00    +0.049 A 
ENDROOT
BRANCH   6  13
ATOM     13  C   LIG A   1      -5.926  -2.121 123.621  0.00  0.00    -0.010 C 
ATOM     14  C   LIG A   1      -5.029  -3.363 123.695  0.00  0.00    +0.008 C 
ATOM     15  C   LIG A   1      -7.340  -2.532 123.211  0.00  0.00    +0.008 C 
ENDBRANCH   6  13
BRANCH   1  16
ATOM     16  O   LIG A   1      -9.411   3.177 124.734  0.00  0.00    -0.506 OA
ATOM     17  H   LIG A   1      -9.372   3.634 125.587  0.00  0.00    +0.292 HD
ENDBRANCH   1  16
TORSDOF 2
ENDMDL
MODEL 7
REMARK VINA RESULT:      -5.9      4.916      6.634
REMARK  Name = NuBBE_10
REMARK  6 active torsions:
REMARK  status: ('A' for Active; 'I' for Inactive)
REMARK    1  A    between atoms: O_1  and  C_2
REMARK    2  A    between atoms: C_3  and  C_4
REMARK    3  A    between atoms: C_7  and  C_9
REMARK    4  A    between atoms: C_9  and  C_11
REMARK    5  A    between atoms: C_9  and  C_12
REMARK    6  A    between atoms: C_15  and  C_17
REMARK                            x       y       z     vdW  Elec       q    Type
REMARK                         _______ _______ _______ _____ _____    ______ ____
ROOT
ATOM      1  C   LIG A   1      -6.648  -2.314 126.676  0.00  0.00    +0.120 A 
ATOM      2  C   LIG A   1      -7.798  -2.840 127.263  0.00  0.00    -0.009 A 
ATOM      3  C   LIG A   1      -9.096  -2.966 126.522  0.00  0.00    +0.048 C 
ATOM      4  C   LIG A   1      -7.722  -3.265 128.599  0.00  0.00    +0.011 A 
ATOM      5  C   LIG A   1      -6.533  -3.165 129.353  0.00  0.00    -0.040 A 
ATOM      6  C   LIG A   1      -6.542  -3.622 130.811  0.00  0.00    +0.022 C 
ATOM      7  C   LIG A   1      -5.128  -3.731 131.417  0.00  0.00    +0.009 C 
ATOM      8  C   LIG A   1      -4.181  -2.631 130.951  0.00  0.00    +0.008 C 
ATOM      9  C   LIG A   1      -4.037  -2.605 129.427  0.00  0.00    +0.016 C 
ATOM     10  C   LIG A   1      -3.131  -3.740 128.931  0.00  0.00    +0.012 C 
ATOM     11  C   LIG A   1      -5.379  -2.659 128.729  0.00  0.00    -0.038 A 
ATOM     12  C   LIG A   1      -5.457  -2.229 127.393  0.00  0.00    +0.049 A 
ENDROOT
BRANCH   6  13
ATOM     13  C   LIG A   1      -7.558  -2.811 131.684  0.00  0.00    -0.010 C 
ATOM     14  C   LIG A   1      -7.441  -3.168 133.171  0.00  0.00    +0.008 C 
ATOM     15  C   LIG A   1      -7.477  -1.294 131.511  0.00  0.00    +0.008 C 
ENDBRANCH   6  13
BRANCH   1  16
ATOM     16  O   LIG A   1      -6.607  -1.869 125.386  0.00  0.00    -0.506 OA
ATOM     17  H   LIG A   1      -6.894  -2.580 124.794  0.00  0.00    +0.292 HD
ENDBRANCH   1  16
TORSDOF 2
ENDMDL
MODEL 8
REMARK VINA RESULT:      -5.8      2.972      4.317
REMARK  Name = NuBBE_10
REMARK  6 active torsions:
REMARK  status: ('A' for Active; 'I' for Inactive)
REMARK    1  A    between atoms: O_1  and  C_2
REMARK    2  A    between atoms: C_3  and  C_4
REMARK    3  A    between atoms: C_7  and  C_9
REMARK    4  A    between atoms: C_9  and  C_11
REMARK    5  A    between atoms: C_9  and  C_12
REMARK    6  A    between atoms: C_15  and  C_17
REMARK                            x       y       z     vdW  Elec       q    Type
REMARK                         _______ _______ _______ _____ _____    ______ ____
ROOT
ATOM      1  C   LIG A   1      -9.207  -2.458 124.538  0.00  0.00    +0.120 A 
ATOM      2  C   LIG A   1      -8.877  -1.117 124.726  0.00  0.00    -0.009 A 
ATOM      3  C   LIG A   1      -9.008  -0.094 123.637  0.00  0.00    +0.048 C 
ATOM      4  C   LIG A   1      -8.407  -0.725 125.989  0.00  0.00    +0.011 A 
ATOM      5  C   LIG A   1      -8.254  -1.640 127.052  0.00  0.00    -0.040 A 
ATOM      6  C   LIG A   1      -7.707  -1.137 128.388  0.00  0.00    +0.022 C 
ATOM      7  C   LIG A   1      -7.867  -2.163 129.529  0.00  0.00    +0.009 C 
ATOM      8  C   LIG A   1      -7.640  -3.603 129.087  0.00  0.00    +0.008 C 
ATOM      9  C   LIG A   1      -8.585  -4.013 127.954  0.00  0.00    +0.016 C 
ATOM     10  C   LIG A   1     -10.001  -4.286 128.477  0.00  0.00    +0.012 C 
ATOM     11  C   LIG A   1      -8.622  -2.981 126.845  0.00  0.00    -0.038 A 
ATOM     12  C   LIG A   1      -9.087  -3.376 125.579  0.00  0.00    +0.049 A 
ENDROOT
BRANCH   6  13
ATOM     13  C   LIG A   1      -6.267  -0.538 128.255  0.00  0.00    -0.010 C 
ATOM     14  C   LIG A   1      -5.704  -0.105 129.615  0.00  0.00    +0.008 C 
ATOM     15  C   LIG A   1      -5.261  -1.448 127.549  0.00  0.00    +0.008 C 
ENDBRANCH   6  13
BRANCH   1  16
ATOM     16  O   LIG A   1      -9.671  -2.952 123.352  0.00  0.00    -0.506 OA
ATOM     17  H   LIG A   1     -10.587  -2.666 123.224  0.00  0.00    +0.292 HD
ENDBRANCH   1  16
TORSDOF 2
ENDMDL
MODEL 9
REMARK VINA RESULT:      -5.7      7.428     10.487
REMARK  Name = NuBBE_10
REMARK  6 active torsions:
REMARK  status: ('A' for Active; 'I' for Inactive)
REMARK    1  A    between atoms: O_1  and  C_2
REMARK    2  A    between atoms: C_3  and  C_4
REMARK    3  A    between atoms: C_7  and  C_9
REMARK    4  A    between atoms: C_9  and  C_11
REMARK    5  A    between atoms: C_9  and  C_12
REMARK    6  A    between atoms: C_15  and  C_17
REMARK                            x       y       z     vdW  Elec       q    Type
REMARK                         _______ _______ _______ _____ _____    ______ ____
ROOT
ATOM      1  C   LIG A   1      -4.389   3.958 128.426  0.00  0.00    +0.120 A 
ATOM      2  C   LIG A   1      -3.076   4.349 128.168  0.00  0.00    -0.009 A 
ATOM      3  C   LIG A   1      -2.296   3.829 126.997  0.00  0.00    +0.048 C 
ATOM      4  C   LIG A   1      -2.476   5.264 129.047  0.00  0.00    +0.011 A 
ATOM      5  C   LIG A   1      -3.153   5.783 130.171  0.00  0.00    -0.040 A 
ATOM      6  C   LIG A   1      -2.417   6.752 131.095  0.00  0.00    +0.022 C 
ATOM      7  C   LIG A   1      -3.354   7.456 132.098  0.00  0.00    +0.009 C 
ATOM      8  C   LIG A   1      -4.457   6.553 132.636  0.00  0.00    +0.008 C 
ATOM      9  C   LIG A   1      -5.323   5.974 131.514  0.00  0.00    +0.016 C 
ATOM     10  C   LIG A   1      -6.303   7.020 130.966  0.00  0.00    +0.012 C 
ATOM     11  C   LIG A   1      -4.487   5.396 130.392  0.00  0.00    -0.038 A 
ATOM     12  C   LIG A   1      -5.086   4.475 129.516  0.00  0.00    +0.049 A 
ENDROOT
BRANCH   6  13
ATOM     13  C   LIG A   1      -1.144   6.109 131.741  0.00  0.00    -0.010 C 
ATOM     14  C   LIG A   1      -0.390   7.109 132.628  0.00  0.00    +0.008 C 
ATOM     15  C   LIG A   1      -1.408   4.824 132.527  0.00  0.00    +0.008 C 
ENDBRANCH   6  13
BRANCH   1  16
ATOM     16  O   LIG A   1      -5.071   3.072 127.641  0.00  0.00    -0.506 OA
ATOM     17  H   LIG A   1      -4.849   2.169 127.913  0.00  0.00    +0.292 HD
ENDBRANCH   1  16
TORSDOF 2
ENDMDL
