MODEL 1
REMARK VINA RESULT:      -7.3      0.000      0.000
REMARK  Name = NuBBE_1241
REMARK  4 active torsions:
REMARK  status: ('A' for Active; 'I' for Inactive)
REMARK    1  A    between atoms: C_9  and  C_11
REMARK    2  A    between atoms: C_11  and  C_12
REMARK    3  A    between atoms: C_11  and  O_13
REMARK    4  A    between atoms: C_11  and  C_14
REMARK                            x       y       z     vdW  Elec       q    Type
REMARK                         _______ _______ _______ _____ _____    ______ ____
ROOT
ATOM      1  O   LIG A   1      -4.619   5.595 133.993  0.00  0.00    -0.245 OA
ATOM      2  C   LIG A   1      -5.798   5.675 133.668  0.00  0.00    +0.337 A 
ATOM      3  O   LIG A   1      -6.201   6.231 132.463  0.00  0.00    -0.422 OA
ATOM      4  C   LIG A   1      -7.564   6.308 132.111  0.00  0.00    +0.142 A 
ATOM      5  C   LIG A   1      -7.870   6.884 130.879  0.00  0.00    +0.092 A 
ATOM      6  C   LIG A   1      -9.202   6.948 130.534  0.00  0.00    +0.128 A 
ATOM      7  C   LIG A   1     -10.203   6.476 131.373  0.00  0.00    -0.001 A 
ATOM      8  C   LIG A   1     -11.526   6.748 130.760  0.00  0.00    +0.086 C 
ATOM      9  C   LIG A   1     -11.068   7.092 129.330  0.00  0.00    +0.209 C 
ATOM     10  O   LIG A   1      -9.669   7.489 129.367  0.00  0.00    -0.485 OA
ATOM     11  C   LIG A   1      -9.902   5.912 132.603  0.00  0.00    +0.018 A 
ATOM     12  C   LIG A   1      -8.557   5.820 132.976  0.00  0.00    +0.018 A 
ATOM     13  C   LIG A   1      -8.155   5.238 134.246  0.00  0.00    +0.018 A 
ATOM     14  C   LIG A   1      -6.858   5.174 134.561  0.00  0.00    +0.092 A 
ENDROOT
BRANCH   9  15
ATOM     15  C   LIG A   1     -11.929   8.161 128.614  0.00  0.00    +0.097 C 
ATOM     16  C   LIG A   1     -12.623   9.065 129.642  0.00  0.00    +0.045 C 
ATOM     17  C   LIG A   1     -12.997   7.549 127.700  0.00  0.00    +0.045 C 
BRANCH  15  18
ATOM     18  O   LIG A   1     -11.083   8.980 127.794  0.00  0.00    -0.386 OA
ATOM     19  H   LIG A   1     -11.381   9.902 127.875  0.00  0.00    +0.210 HD
ENDBRANCH  15  18
ENDBRANCH   9  15
TORSDOF 2
ENDMDL
MODEL 2
REMARK VINA RESULT:      -7.2      2.368      2.661
REMARK  Name = NuBBE_1241
REMARK  4 active torsions:
REMARK  status: ('A' for Active; 'I' for Inactive)
REMARK    1  A    between atoms: C_9  and  C_11
REMARK    2  A    between atoms: C_11  and  C_12
REMARK    3  A    between atoms: C_11  and  O_13
REMARK    4  A    between atoms: C_11  and  C_14
REMARK                            x       y       z     vdW  Elec       q    Type
REMARK                         _______ _______ _______ _____ _____    ______ ____
ROOT
ATOM      1  O   LIG A   1      -7.572   1.276 133.337  0.00  0.00    -0.245 OA
ATOM      2  C   LIG A   1      -8.120   2.348 133.109  0.00  0.00    +0.337 A 
ATOM      3  O   LIG A   1      -8.825   2.589 131.939  0.00  0.00    -0.422 OA
ATOM      4  C   LIG A   1      -9.451   3.830 131.702  0.00  0.00    +0.142 A 
ATOM      5  C   LIG A   1     -10.135   3.976 130.497  0.00  0.00    +0.092 A 
ATOM      6  C   LIG A   1     -10.753   5.187 130.274  0.00  0.00    +0.128 A 
ATOM      7  C   LIG A   1     -10.693   6.225 131.194  0.00  0.00    -0.001 A 
ATOM      8  C   LIG A   1     -11.389   7.412 130.642  0.00  0.00    +0.086 C 
ATOM      9  C   LIG A   1     -12.132   6.739 129.472  0.00  0.00    +0.209 C 
ATOM     10  O   LIG A   1     -11.457   5.494 129.140  0.00  0.00    -0.485 OA
ATOM     11  C   LIG A   1     -10.004   6.086 132.389  0.00  0.00    +0.018 A 
ATOM     12  C   LIG A   1      -9.377   4.863 132.651  0.00  0.00    +0.018 A 
ATOM     13  C   LIG A   1      -8.639   4.631 133.882  0.00  0.00    +0.018 A 
ATOM     14  C   LIG A   1      -8.053   3.448 134.087  0.00  0.00    +0.092 A 
ENDROOT
BRANCH   9  15
ATOM     15  C   LIG A   1     -12.304   7.628 128.217  0.00  0.00    +0.097 C 
ATOM     16  C   LIG A   1     -10.976   8.313 127.861  0.00  0.00    +0.045 C 
ATOM     17  C   LIG A   1     -13.379   8.707 128.394  0.00  0.00    +0.045 C 
BRANCH  15  18
ATOM     18  O   LIG A   1     -12.698   6.810 127.106  0.00  0.00    -0.386 OA
ATOM     19  H   LIG A   1     -13.002   7.394 126.390  0.00  0.00    +0.210 HD
ENDBRANCH  15  18
ENDBRANCH   9  15
TORSDOF 2
ENDMDL
MODEL 3
REMARK VINA RESULT:      -7.2      2.016      6.743
REMARK  Name = NuBBE_1241
REMARK  4 active torsions:
REMARK  status: ('A' for Active; 'I' for Inactive)
REMARK    1  A    between atoms: C_9  and  C_11
REMARK    2  A    between atoms: C_11  and  C_12
REMARK    3  A    between atoms: C_11  and  O_13
REMARK    4  A    between atoms: C_11  and  C_14
REMARK                            x       y       z     vdW  Elec       q    Type
REMARK                         _______ _______ _______ _____ _____    ______ ____
ROOT
ATOM      1  O   LIG A   1     -13.639   7.146 127.219  0.00  0.00    -0.245 OA
ATOM      2  C   LIG A   1     -12.625   7.179 127.906  0.00  0.00    +0.337 A 
ATOM      3  O   LIG A   1     -12.330   6.198 128.841  0.00  0.00    -0.422 OA
ATOM      4  C   LIG A   1     -11.153   6.256 129.617  0.00  0.00    +0.142 A 
ATOM      5  C   LIG A   1     -10.944   5.224 130.530  0.00  0.00    +0.092 A 
ATOM      6  C   LIG A   1      -9.789   5.279 131.279  0.00  0.00    +0.128 A 
ATOM      7  C   LIG A   1      -8.876   6.317 131.149  0.00  0.00    -0.001 A 
ATOM      8  C   LIG A   1      -7.781   6.134 132.132  0.00  0.00    +0.086 C 
ATOM      9  C   LIG A   1      -8.056   4.673 132.537  0.00  0.00    +0.209 C 
ATOM     10  O   LIG A   1      -9.439   4.351 132.223  0.00  0.00    -0.485 OA
ATOM     11  C   LIG A   1      -9.087   7.350 130.249  0.00  0.00    +0.018 A 
ATOM     12  C   LIG A   1     -10.244   7.315 129.464  0.00  0.00    +0.018 A 
ATOM     13  C   LIG A   1     -10.539   8.356 128.492  0.00  0.00    +0.018 A 
ATOM     14  C   LIG A   1     -11.659   8.282 127.766  0.00  0.00    +0.092 A 
ENDROOT
BRANCH   9  15
ATOM     15  C   LIG A   1      -7.731   4.339 134.014  0.00  0.00    +0.097 C 
ATOM     16  C   LIG A   1      -6.844   5.432 134.626  0.00  0.00    +0.045 C 
ATOM     17  C   LIG A   1      -7.026   2.988 134.176  0.00  0.00    +0.045 C 
BRANCH  15  18
ATOM     18  O   LIG A   1      -8.951   4.278 134.766  0.00  0.00    -0.386 OA
ATOM     19  H   LIG A   1      -9.691   4.194 134.140  0.00  0.00    +0.210 HD
ENDBRANCH  15  18
ENDBRANCH   9  15
TORSDOF 2
ENDMDL
MODEL 4
REMARK VINA RESULT:      -7.1      1.942      6.468
REMARK  Name = NuBBE_1241
REMARK  4 active torsions:
REMARK  status: ('A' for Active; 'I' for Inactive)
REMARK    1  A    between atoms: C_9  and  C_11
REMARK    2  A    between atoms: C_11  and  C_12
REMARK    3  A    between atoms: C_11  and  O_13
REMARK    4  A    between atoms: C_11  and  C_14
REMARK                            x       y       z     vdW  Elec       q    Type
REMARK                         _______ _______ _______ _____ _____    ______ ____
ROOT
ATOM      1  O   LIG A   1     -10.948   7.769 125.361  0.00  0.00    -0.245 OA
ATOM      2  C   LIG A   1     -10.997   7.633 126.579  0.00  0.00    +0.337 A 
ATOM      3  O   LIG A   1     -10.125   6.804 127.269  0.00  0.00    -0.422 OA
ATOM      4  C   LIG A   1     -10.198   6.669 128.671  0.00  0.00    +0.142 A 
ATOM      5  C   LIG A   1      -9.279   5.813 129.275  0.00  0.00    +0.092 A 
ATOM      6  C   LIG A   1      -9.348   5.691 130.646  0.00  0.00    +0.128 A 
ATOM      7  C   LIG A   1     -10.294   6.374 131.399  0.00  0.00    -0.001 A 
ATOM      8  C   LIG A   1     -10.161   5.984 132.824  0.00  0.00    +0.086 C 
ATOM      9  C   LIG A   1      -8.788   5.290 132.762  0.00  0.00    +0.209 C 
ATOM     10  O   LIG A   1      -8.526   4.887 131.389  0.00  0.00    -0.485 OA
ATOM     11  C   LIG A   1     -11.216   7.218 130.800  0.00  0.00    +0.018 A 
ATOM     12  C   LIG A   1     -11.162   7.374 129.410  0.00  0.00    +0.018 A 
ATOM     13  C   LIG A   1     -12.088   8.244 128.703  0.00  0.00    +0.018 A 
ATOM     14  C   LIG A   1     -12.002   8.358 127.375  0.00  0.00    +0.092 A 
ENDROOT
BRANCH   9  15
ATOM     15  C   LIG A   1      -8.623   4.094 133.731  0.00  0.00    +0.097 C 
ATOM     16  C   LIG A   1      -7.698   4.474 134.896  0.00  0.00    +0.045 C 
ATOM     17  C   LIG A   1      -8.057   2.845 133.045  0.00  0.00    +0.045 C 
BRANCH  15  18
ATOM     18  O   LIG A   1      -9.904   3.742 134.271  0.00  0.00    -0.386 OA
ATOM     19  H   LIG A   1     -10.136   4.393 134.956  0.00  0.00    +0.210 HD
ENDBRANCH  15  18
ENDBRANCH   9  15
TORSDOF 2
ENDMDL
MODEL 5
REMARK VINA RESULT:      -6.8     10.325     12.122
REMARK  Name = NuBBE_1241
REMARK  4 active torsions:
REMARK  status: ('A' for Active; 'I' for Inactive)
REMARK    1  A    between atoms: C_9  and  C_11
REMARK    2  A    between atoms: C_11  and  C_12
REMARK    3  A    between atoms: C_11  and  O_13
REMARK    4  A    between atoms: C_11  and  C_14
REMARK                            x       y       z     vdW  Elec       q    Type
REMARK                         _______ _______ _______ _____ _____    ______ ____
ROOT
ATOM      1  O   LIG A   1      -7.477  -1.877 122.104  0.00  0.00    -0.245 OA
ATOM      2  C   LIG A   1      -7.775  -2.229 123.239  0.00  0.00    +0.337 A 
ATOM      3  O   LIG A   1      -6.968  -1.965 124.336  0.00  0.00    -0.422 OA
ATOM      4  C   LIG A   1      -7.336  -2.378 125.633  0.00  0.00    +0.142 A 
ATOM      5  C   LIG A   1      -6.459  -2.067 126.671  0.00  0.00    +0.092 A 
ATOM      6  C   LIG A   1      -6.828  -2.463 127.937  0.00  0.00    +0.128 A 
ATOM      7  C   LIG A   1      -8.008  -3.153 128.179  0.00  0.00    -0.001 A 
ATOM      8  C   LIG A   1      -8.088  -3.500 129.619  0.00  0.00    +0.086 C 
ATOM      9  C   LIG A   1      -6.973  -2.582 130.155  0.00  0.00    +0.209 C 
ATOM     10  O   LIG A   1      -6.077  -2.243 129.061  0.00  0.00    -0.485 OA
ATOM     11  C   LIG A   1      -8.877  -3.473 127.147  0.00  0.00    +0.018 A 
ATOM     12  C   LIG A   1      -8.537  -3.072 125.851  0.00  0.00    +0.018 A 
ATOM     13  C   LIG A   1      -9.395  -3.362 124.713  0.00  0.00    +0.018 A 
ATOM     14  C   LIG A   1      -9.028  -2.962 123.492  0.00  0.00    +0.092 A 
ENDROOT
BRANCH   9  15
ATOM     15  C   LIG A   1      -6.186  -3.155 131.359  0.00  0.00    +0.097 C 
ATOM     16  C   LIG A   1      -5.691  -4.574 131.047  0.00  0.00    +0.045 C 
ATOM     17  C   LIG A   1      -7.018  -3.198 132.646  0.00  0.00    +0.045 C 
BRANCH  15  18
ATOM     18  O   LIG A   1      -5.044  -2.326 131.616  0.00  0.00    -0.386 OA
ATOM     19  H   LIG A   1      -4.244  -2.875 131.533  0.00  0.00    +0.210 HD
ENDBRANCH  15  18
ENDBRANCH   9  15
TORSDOF 2
ENDMDL
MODEL 6
REMARK VINA RESULT:      -6.5      1.166      6.571
REMARK  Name = NuBBE_1241
REMARK  4 active torsions:
REMARK  status: ('A' for Active; 'I' for Inactive)
REMARK    1  A    between atoms: C_9  and  C_11
REMARK    2  A    between atoms: C_11  and  C_12
REMARK    3  A    between atoms: C_11  and  O_13
REMARK    4  A    between atoms: C_11  and  C_14
REMARK                            x       y       z     vdW  Elec       q    Type
REMARK                         _______ _______ _______ _____ _____    ______ ____
ROOT
ATOM      1  O   LIG A   1     -10.749   8.722 127.970  0.00  0.00    -0.245 OA
ATOM      2  C   LIG A   1     -10.603   8.061 128.991  0.00  0.00    +0.337 A 
ATOM      3  O   LIG A   1      -9.352   7.768 129.514  0.00  0.00    -0.422 OA
ATOM      4  C   LIG A   1      -9.210   7.008 130.694  0.00  0.00    +0.142 A 
ATOM      5  C   LIG A   1      -7.912   6.766 131.140  0.00  0.00    +0.092 A 
ATOM      6  C   LIG A   1      -7.779   6.032 132.298  0.00  0.00    +0.128 A 
ATOM      7  C   LIG A   1      -8.878   5.539 132.989  0.00  0.00    -0.001 A 
ATOM      8  C   LIG A   1      -8.412   4.736 134.145  0.00  0.00    +0.086 C 
ATOM      9  C   LIG A   1      -6.937   5.180 134.174  0.00  0.00    +0.209 C 
ATOM     10  O   LIG A   1      -6.577   5.700 132.865  0.00  0.00    -0.485 OA
ATOM     11  C   LIG A   1     -10.170   5.769 132.541  0.00  0.00    +0.018 A 
ATOM     12  C   LIG A   1     -10.339   6.524 131.375  0.00  0.00    +0.018 A 
ATOM     13  C   LIG A   1     -11.659   6.817 130.839  0.00  0.00    +0.018 A 
ATOM     14  C   LIG A   1     -11.771   7.538 129.720  0.00  0.00    +0.092 A 
ENDROOT
BRANCH   9  15
ATOM     15  C   LIG A   1      -5.941   4.085 134.628  0.00  0.00    +0.097 C 
ATOM     16  C   LIG A   1      -4.536   4.382 134.085  0.00  0.00    +0.045 C 
ATOM     17  C   LIG A   1      -6.354   2.680 134.176  0.00  0.00    +0.045 C 
BRANCH  15  18
ATOM     18  O   LIG A   1      -5.874   4.070 136.061  0.00  0.00    -0.386 OA
ATOM     19  H   LIG A   1      -6.780   4.138 136.410  0.00  0.00    +0.210 HD
ENDBRANCH  15  18
ENDBRANCH   9  15
TORSDOF 2
ENDMDL
MODEL 7
REMARK VINA RESULT:      -6.5      9.158     10.319
REMARK  Name = NuBBE_1241
REMARK  4 active torsions:
REMARK  status: ('A' for Active; 'I' for Inactive)
REMARK    1  A    between atoms: C_9  and  C_11
REMARK    2  A    between atoms: C_11  and  C_12
REMARK    3  A    between atoms: C_11  and  O_13
REMARK    4  A    between atoms: C_11  and  C_14
REMARK                            x       y       z     vdW  Elec       q    Type
REMARK                         _______ _______ _______ _____ _____    ______ ____
ROOT
ATOM      1  O   LIG A   1      -5.655   5.761 125.972  0.00  0.00    -0.245 OA
ATOM      2  C   LIG A   1      -5.971   4.771 125.323  0.00  0.00    +0.337 A 
ATOM      3  O   LIG A   1      -6.645   3.697 125.886  0.00  0.00    -0.422 OA
ATOM      4  C   LIG A   1      -7.000   2.570 125.115  0.00  0.00    +0.142 A 
ATOM      5  C   LIG A   1      -7.676   1.542 125.770  0.00  0.00    +0.092 A 
ATOM      6  C   LIG A   1      -8.030   0.447 125.012  0.00  0.00    +0.128 A 
ATOM      7  C   LIG A   1      -7.721   0.356 123.661  0.00  0.00    -0.001 A 
ATOM      8  C   LIG A   1      -8.167  -0.960 123.143  0.00  0.00    +0.086 C 
ATOM      9  C   LIG A   1      -9.073  -1.390 124.313  0.00  0.00    +0.209 C 
ATOM     10  O   LIG A   1      -8.688  -0.648 125.503  0.00  0.00    -0.485 OA
ATOM     11  C   LIG A   1      -7.040   1.373 123.010  0.00  0.00    +0.018 A 
ATOM     12  C   LIG A   1      -6.679   2.504 123.750  0.00  0.00    +0.018 A 
ATOM     13  C   LIG A   1      -5.968   3.619 123.143  0.00  0.00    +0.018 A 
ATOM     14  C   LIG A   1      -5.641   4.677 123.890  0.00  0.00    +0.092 A 
ENDROOT
BRANCH   9  15
ATOM     15  C   LIG A   1      -9.092  -2.913 124.591  0.00  0.00    +0.097 C 
ATOM     16  C   LIG A   1      -9.494  -3.185 126.047  0.00  0.00    +0.045 C 
ATOM     17  C   LIG A   1      -7.740  -3.583 124.322  0.00  0.00    +0.045 C 
BRANCH  15  18
ATOM     18  O   LIG A   1     -10.057  -3.539 123.734  0.00  0.00    -0.386 OA
ATOM     19  H   LIG A   1     -10.946  -3.332 124.073  0.00  0.00    +0.210 HD
ENDBRANCH  15  18
ENDBRANCH   9  15
TORSDOF 2
ENDMDL
MODEL 8
REMARK VINA RESULT:      -6.3      1.662      6.319
REMARK  Name = NuBBE_1241
REMARK  4 active torsions:
REMARK  status: ('A' for Active; 'I' for Inactive)
REMARK    1  A    between atoms: C_9  and  C_11
REMARK    2  A    between atoms: C_11  and  C_12
REMARK    3  A    between atoms: C_11  and  O_13
REMARK    4  A    between atoms: C_11  and  C_14
REMARK                            x       y       z     vdW  Elec       q    Type
REMARK                         _______ _______ _______ _____ _____    ______ ____
ROOT
ATOM      1  O   LIG A   1     -13.216   8.409 128.857  0.00  0.00    -0.245 OA
ATOM      2  C   LIG A   1     -12.416   7.880 129.621  0.00  0.00    +0.337 A 
ATOM      3  O   LIG A   1     -11.045   7.939 129.420  0.00  0.00    -0.422 OA
ATOM      4  C   LIG A   1     -10.146   7.325 130.317  0.00  0.00    +0.142 A 
ATOM      5  C   LIG A   1      -8.787   7.439 130.030  0.00  0.00    +0.092 A 
ATOM      6  C   LIG A   1      -7.912   6.846 130.913  0.00  0.00    +0.128 A 
ATOM      7  C   LIG A   1      -8.352   6.154 132.033  0.00  0.00    -0.001 A 
ATOM      8  C   LIG A   1      -7.185   5.575 132.743  0.00  0.00    +0.086 C 
ATOM      9  C   LIG A   1      -6.059   6.365 132.049  0.00  0.00    +0.209 C 
ATOM     10  O   LIG A   1      -6.550   6.859 130.772  0.00  0.00    -0.485 OA
ATOM     11  C   LIG A   1      -9.704   6.030 132.315  0.00  0.00    +0.018 A 
ATOM     12  C   LIG A   1     -10.617   6.633 131.444  0.00  0.00    +0.018 A 
ATOM     13  C   LIG A   1     -12.052   6.556 131.670  0.00  0.00    +0.018 A 
ATOM     14  C   LIG A   1     -12.887   7.145 130.808  0.00  0.00    +0.092 A 
ENDROOT
BRANCH   9  15
ATOM     15  C   LIG A   1      -4.736   5.581 131.868  0.00  0.00    +0.097 C 
ATOM     16  C   LIG A   1      -3.801   5.829 133.061  0.00  0.00    +0.045 C 
ATOM     17  C   LIG A   1      -3.995   5.954 130.579  0.00  0.00    +0.045 C 
BRANCH  15  18
ATOM     18  O   LIG A   1      -5.021   4.176 131.806  0.00  0.00    -0.386 OA
ATOM     19  H   LIG A   1      -4.197   3.707 131.590  0.00  0.00    +0.210 HD
ENDBRANCH  15  18
ENDBRANCH   9  15
TORSDOF 2
ENDMDL
MODEL 9
REMARK VINA RESULT:      -6.3      1.972      6.664
REMARK  Name = NuBBE_1241
REMARK  4 active torsions:
REMARK  status: ('A' for Active; 'I' for Inactive)
REMARK    1  A    between atoms: C_9  and  C_11
REMARK    2  A    between atoms: C_11  and  C_12
REMARK    3  A    between atoms: C_11  and  O_13
REMARK    4  A    between atoms: C_11  and  C_14
REMARK                            x       y       z     vdW  Elec       q    Type
REMARK                         _______ _______ _______ _____ _____    ______ ____
ROOT
ATOM      1  O   LIG A   1     -13.421   6.968 127.676  0.00  0.00    -0.245 OA
ATOM      2  C   LIG A   1     -12.810   6.806 128.726  0.00  0.00    +0.337 A 
ATOM      3  O   LIG A   1     -11.629   6.081 128.795  0.00  0.00    -0.422 OA
ATOM      4  C   LIG A   1     -10.943   5.913 130.016  0.00  0.00    +0.142 A 
ATOM      5  C   LIG A   1      -9.766   5.168 129.985  0.00  0.00    +0.092 A 
ATOM      6  C   LIG A   1      -9.094   5.015 131.177  0.00  0.00    +0.128 A 
ATOM      7  C   LIG A   1      -9.566   5.559 132.364  0.00  0.00    -0.001 A 
ATOM      8  C   LIG A   1      -8.669   5.164 133.477  0.00  0.00    +0.086 C 
ATOM      9  C   LIG A   1      -7.471   4.649 132.656  0.00  0.00    +0.209 C 
ATOM     10  O   LIG A   1      -7.930   4.307 131.319  0.00  0.00    -0.485 OA
ATOM     11  C   LIG A   1     -10.743   6.291 132.400  0.00  0.00    +0.018 A 
ATOM     12  C   LIG A   1     -11.441   6.477 131.202  0.00  0.00    +0.018 A 
ATOM     13  C   LIG A   1     -12.680   7.236 131.151  0.00  0.00    +0.018 A 
ATOM     14  C   LIG A   1     -13.315   7.384 129.984  0.00  0.00    +0.092 A 
ENDROOT
BRANCH   9  15
ATOM     15  C   LIG A   1      -6.706   3.466 133.299  0.00  0.00    +0.097 C 
ATOM     16  C   LIG A   1      -7.535   2.178 133.201  0.00  0.00    +0.045 C 
ATOM     17  C   LIG A   1      -6.357   3.713 134.771  0.00  0.00    +0.045 C 
BRANCH  15  18
ATOM     18  O   LIG A   1      -5.473   3.261 132.595  0.00  0.00    -0.386 OA
ATOM     19  H   LIG A   1      -5.267   4.071 132.097  0.00  0.00    +0.210 HD
ENDBRANCH  15  18
ENDBRANCH   9  15
TORSDOF 2
ENDMDL
