MODEL 1
REMARK VINA RESULT:      -7.9      0.000      0.000
REMARK  Name = NuBBE_1186
REMARK  15 active torsions:
REMARK  status: ('A' for Active; 'I' for Inactive)
REMARK    1  A    between atoms: O_1  and  C_2
REMARK    2  A    between atoms: C_2  and  C_3
REMARK    3  A    between atoms: C_6  and  C_17
REMARK    4  A    between atoms: C_8  and  O_16
REMARK    5  A    between atoms: C_10  and  O_15
REMARK    6  A    between atoms: C_12  and  O_14
REMARK    7  A    between atoms: C_17  and  O_18
REMARK    8  A    between atoms: O_18  and  C_19
REMARK    9  A    between atoms: C_20  and  O_39
REMARK   10  A    between atoms: C_28  and  O_29
REMARK   11  A    between atoms: O_29  and  C_30
REMARK   12  A    between atoms: C_31  and  O_32
REMARK   13  A    between atoms: C_34  and  C_35
REMARK   14  A    between atoms: C_35  and  O_36
REMARK   15  A    between atoms: O_39  and  C_40
REMARK                            x       y       z     vdW  Elec       q    Type
REMARK                         _______ _______ _______ _____ _____    ______ ____
ROOT
ATOM      1  C   LIG A   1      -8.012   3.774 131.547  0.00  0.00    +0.208 A 
ATOM      2  C   LIG A   1      -8.649   4.262 132.723  0.00  0.00    +0.169 A 
ATOM      3  C   LIG A   1      -9.649   5.206 132.662  0.00  0.00    +0.099 A 
ATOM      4  C   LIG A   1     -10.150   5.596 131.468  0.00  0.00    +0.178 A 
ATOM      5  O   LIG A   1     -11.150   6.500 131.598  0.00  0.00    -0.448 OA
ATOM      6  C   LIG A   1     -11.469   7.121 130.444  0.00  0.00    +0.175 A 
ATOM      7  C   LIG A   1     -11.074   6.606 129.214  0.00  0.00    +0.212 A 
ATOM      8  O   LIG A   1     -10.264   5.490 129.097  0.00  0.00    -0.441 OA
ATOM      9  C   LIG A   1      -9.668   5.074 130.278  0.00  0.00    +0.216 A 
ATOM     10  C   LIG A   1      -8.598   4.132 130.290  0.00  0.00    +0.212 A 
ATOM     11  C   LIG A   1     -11.483   7.273 128.075  0.00  0.00    +0.164 A 
ATOM     12  C   LIG A   1     -12.225   8.453 128.173  0.00  0.00    +0.064 A 
ATOM     13  C   LIG A   1     -12.558   8.976 129.429  0.00  0.00    +0.066 A 
ATOM     14  C   LIG A   1     -12.192   8.297 130.582  0.00  0.00    +0.065 A 
ENDROOT
BRANCH  10  15
ATOM     15  O   LIG A   1      -8.300   3.651 129.033  0.00  0.00    -0.488 OA
ATOM     16  C   LIG A   1      -8.576   2.301 128.695  0.00  0.00    +0.277 C 
ENDBRANCH  10  15
BRANCH  11  17
ATOM     17  O   LIG A   1     -11.148   6.797 126.842  0.00  0.00    -0.503 OA
ATOM     18  H   LIG A   1     -10.670   7.521 126.392  0.00  0.00    +0.292 HD
ENDBRANCH  11  17
BRANCH  13  19
ATOM     19  C   LIG A   1     -13.322  10.245 129.520  0.00  0.00    +0.337 C 
ATOM     20  O   LIG A   1     -13.479  10.895 130.494  0.00  0.00    -0.245 OA
BRANCH  19  21
ATOM     21  O   LIG A   1     -13.886  10.569 128.327  0.00  0.00    -0.477 OA
ATOM     22  H   LIG A   1     -13.121  10.613 127.718  0.00  0.00    +0.295 HD
ENDBRANCH  19  21
ENDBRANCH  13  19
BRANCH   2  23
ATOM     23  O   LIG A   1      -8.635   3.944 134.046  0.00  0.00    -0.491 OA
ATOM     24  C   LIG A   1      -7.920   4.701 134.951  0.00  0.00    +0.277 C 
ENDBRANCH   2  23
BRANCH   1  25
ATOM     25  O   LIG A   1      -7.035   2.807 131.633  0.00  0.00    -0.482 OA
BRANCH  25  26
ATOM     26  C   LIG A   1      -5.644   3.194 131.491  0.00  0.00    +0.263 C 
BRANCH  26  29
ATOM     27  C   LIG A   1      -3.593   3.985 128.432  0.00  0.00    +0.175 C 
ATOM     28  O   LIG A   1      -4.154   3.195 129.512  0.00  0.00    -0.362 OA
ATOM     29  C   LIG A   1      -5.236   3.895 130.177  0.00  0.00    +0.187 C 
ATOM     30  C   LIG A   1      -4.768   5.328 130.445  0.00  0.00    +0.177 C 
ATOM     31  C   LIG A   1      -3.202   5.345 130.459  0.00  0.00    +0.176 C 
ATOM     32  C   LIG A   1      -2.705   5.094 129.028  0.00  0.00    +0.176 C 
BRANCH  32  33
ATOM     33  O   LIG A   1      -2.837   6.321 128.288  0.00  0.00    -0.387 OA
ATOM     34  H   LIG A   1      -2.884   7.034 128.955  0.00  0.00    +0.210 HD
ENDBRANCH  32  33
BRANCH  31  35
ATOM     35  O   LIG A   1      -2.622   4.390 131.359  0.00  0.00    -0.387 OA
ATOM     36  H   LIG A   1      -2.993   3.503 131.167  0.00  0.00    +0.210 HD
ENDBRANCH  31  35
BRANCH  30  37
ATOM     37  O   LIG A   1      -5.324   6.163 129.407  0.00  0.00    -0.387 OA
ATOM     38  H   LIG A   1      -6.300   6.151 129.474  0.00  0.00    +0.210 HD
ENDBRANCH  30  37
BRANCH  27  39
ATOM     39  C   LIG A   1      -2.783   3.085 127.505  0.00  0.00    +0.190 C 
BRANCH  39  40
ATOM     40  O   LIG A   1      -1.641   3.765 126.999  0.00  0.00    -0.392 OA
ATOM     41  H   LIG A   1      -1.645   4.668 127.367  0.00  0.00    +0.209 HD
ENDBRANCH  39  40
ENDBRANCH  27  39
ENDBRANCH  26  29
ENDBRANCH  25  26
ENDBRANCH   1  25
TORSDOF 13
ENDMDL
MODEL 2
REMARK VINA RESULT:      -7.7      4.937      8.641
REMARK  Name = NuBBE_1186
REMARK  15 active torsions:
REMARK  status: ('A' for Active; 'I' for Inactive)
REMARK    1  A    between atoms: O_1  and  C_2
REMARK    2  A    between atoms: C_2  and  C_3
REMARK    3  A    between atoms: C_6  and  C_17
REMARK    4  A    between atoms: C_8  and  O_16
REMARK    5  A    between atoms: C_10  and  O_15
REMARK    6  A    between atoms: C_12  and  O_14
REMARK    7  A    between atoms: C_17  and  O_18
REMARK    8  A    between atoms: O_18  and  C_19
REMARK    9  A    between atoms: C_20  and  O_39
REMARK   10  A    between atoms: C_28  and  O_29
REMARK   11  A    between atoms: O_29  and  C_30
REMARK   12  A    between atoms: C_31  and  O_32
REMARK   13  A    between atoms: C_34  and  C_35
REMARK   14  A    between atoms: C_35  and  O_36
REMARK   15  A    between atoms: O_39  and  C_40
REMARK                            x       y       z     vdW  Elec       q    Type
REMARK                         _______ _______ _______ _____ _____    ______ ____
ROOT
ATOM      1  C   LIG A   1      -6.939   3.071 127.055  0.00  0.00    +0.208 A 
ATOM      2  C   LIG A   1      -8.064   2.430 126.461  0.00  0.00    +0.169 A 
ATOM      3  C   LIG A   1      -8.248   2.416 125.097  0.00  0.00    +0.099 A 
ATOM      4  C   LIG A   1      -7.290   2.895 124.272  0.00  0.00    +0.178 A 
ATOM      5  O   LIG A   1      -7.622   2.768 122.965  0.00  0.00    -0.448 OA
ATOM      6  C   LIG A   1      -6.838   3.486 122.137  0.00  0.00    +0.175 A 
ATOM      7  C   LIG A   1      -5.608   3.982 122.556  0.00  0.00    +0.212 A 
ATOM      8  O   LIG A   1      -5.154   3.851 123.858  0.00  0.00    -0.441 OA
ATOM      9  C   LIG A   1      -6.107   3.422 124.769  0.00  0.00    +0.216 A 
ATOM     10  C   LIG A   1      -5.894   3.505 126.176  0.00  0.00    +0.212 A 
ATOM     11  C   LIG A   1      -4.839   4.666 121.633  0.00  0.00    +0.164 A 
ATOM     12  C   LIG A   1      -5.318   4.889 120.339  0.00  0.00    +0.064 A 
ATOM     13  C   LIG A   1      -6.586   4.425 119.965  0.00  0.00    +0.066 A 
ATOM     14  C   LIG A   1      -7.353   3.700 120.867  0.00  0.00    +0.065 A 
ENDROOT
BRANCH  10  15
ATOM     15  O   LIG A   1      -4.638   3.972 126.496  0.00  0.00    -0.488 OA
ATOM     16  C   LIG A   1      -4.468   5.276 127.028  0.00  0.00    +0.277 C 
ENDBRANCH  10  15
BRANCH  11  17
ATOM     17  O   LIG A   1      -3.613   5.149 121.983  0.00  0.00    -0.503 OA
ATOM     18  H   LIG A   1      -3.219   5.509 121.163  0.00  0.00    +0.292 HD
ENDBRANCH  11  17
BRANCH  13  19
ATOM     19  C   LIG A   1      -7.095   4.692 118.598  0.00  0.00    +0.337 C 
ATOM     20  O   LIG A   1      -8.119   4.310 118.149  0.00  0.00    -0.245 OA
BRANCH  19  21
ATOM     21  O   LIG A   1      -6.201   5.412 117.870  0.00  0.00    -0.477 OA
ATOM     22  H   LIG A   1      -5.577   4.734 117.542  0.00  0.00    +0.295 HD
ENDBRANCH  19  21
ENDBRANCH  13  19
BRANCH   2  23
ATOM     23  O   LIG A   1      -9.074   1.630 126.896  0.00  0.00    -0.491 OA
ATOM     24  C   LIG A   1      -9.434   0.497 126.196  0.00  0.00    +0.277 C 
ENDBRANCH   2  23
BRANCH   1  25
ATOM     25  O   LIG A   1      -6.761   3.044 128.420  0.00  0.00    -0.482 OA
BRANCH  25  26
ATOM     26  C   LIG A   1      -7.132   4.207 129.204  0.00  0.00    +0.263 C 
BRANCH  26  29
ATOM     27  C   LIG A   1     -10.178   6.396 129.559  0.00  0.00    +0.175 C 
ATOM     28  O   LIG A   1      -8.803   6.036 129.269  0.00  0.00    -0.362 OA
ATOM     29  C   LIG A   1      -8.626   4.597 129.228  0.00  0.00    +0.187 C 
ATOM     30  C   LIG A   1      -9.326   4.007 130.455  0.00  0.00    +0.177 C 
ATOM     31  C   LIG A   1      -9.441   5.124 131.546  0.00  0.00    +0.176 C 
ATOM     32  C   LIG A   1     -10.451   6.171 131.059  0.00  0.00    +0.176 C 
BRANCH  32  33
ATOM     33  O   LIG A   1     -11.774   5.649 131.274  0.00  0.00    -0.387 OA
ATOM     34  H   LIG A   1     -11.949   5.042 130.528  0.00  0.00    +0.210 HD
ENDBRANCH  32  33
BRANCH  31  35
ATOM     35  O   LIG A   1      -8.190   5.753 131.864  0.00  0.00    -0.387 OA
ATOM     36  H   LIG A   1      -8.022   6.473 131.220  0.00  0.00    +0.210 HD
ENDBRANCH  31  35
BRANCH  30  37
ATOM     37  O   LIG A   1     -10.613   3.517 130.023  0.00  0.00    -0.387 OA
ATOM     38  H   LIG A   1     -10.587   3.355 129.059  0.00  0.00    +0.210 HD
ENDBRANCH  30  37
BRANCH  27  39
ATOM     39  C   LIG A   1     -10.418   7.852 129.179  0.00  0.00    +0.190 C 
BRANCH  39  40
ATOM     40  O   LIG A   1     -11.665   8.315 129.682  0.00  0.00    -0.392 OA
ATOM     41  H   LIG A   1     -12.033   8.943 129.034  0.00  0.00    +0.209 HD
ENDBRANCH  39  40
ENDBRANCH  27  39
ENDBRANCH  26  29
ENDBRANCH  25  26
ENDBRANCH   1  25
TORSDOF 13
ENDMDL
MODEL 3
REMARK VINA RESULT:      -7.6      3.129      9.293
REMARK  Name = NuBBE_1186
REMARK  15 active torsions:
REMARK  status: ('A' for Active; 'I' for Inactive)
REMARK    1  A    between atoms: O_1  and  C_2
REMARK    2  A    between atoms: C_2  and  C_3
REMARK    3  A    between atoms: C_6  and  C_17
REMARK    4  A    between atoms: C_8  and  O_16
REMARK    5  A    between atoms: C_10  and  O_15
REMARK    6  A    between atoms: C_12  and  O_14
REMARK    7  A    between atoms: C_17  and  O_18
REMARK    8  A    between atoms: O_18  and  C_19
REMARK    9  A    between atoms: C_20  and  O_39
REMARK   10  A    between atoms: C_28  and  O_29
REMARK   11  A    between atoms: O_29  and  C_30
REMARK   12  A    between atoms: C_31  and  O_32
REMARK   13  A    between atoms: C_34  and  C_35
REMARK   14  A    between atoms: C_35  and  O_36
REMARK   15  A    between atoms: O_39  and  C_40
REMARK                            x       y       z     vdW  Elec       q    Type
REMARK                         _______ _______ _______ _____ _____    ______ ____
ROOT
ATOM      1  C   LIG A   1      -8.891   3.889 130.470  0.00  0.00    +0.208 A 
ATOM      2  C   LIG A   1      -8.269   3.704 129.202  0.00  0.00    +0.169 A 
ATOM      3  C   LIG A   1      -7.451   2.626 128.952  0.00  0.00    +0.099 A 
ATOM      4  C   LIG A   1      -7.324   1.636 129.864  0.00  0.00    +0.178 A 
ATOM      5  O   LIG A   1      -6.512   0.640 129.437  0.00  0.00    -0.448 OA
ATOM      6  C   LIG A   1      -6.134  -0.206 130.417  0.00  0.00    +0.175 A 
ATOM      7  C   LIG A   1      -6.815  -0.256 131.629  0.00  0.00    +0.212 A 
ATOM      8  O   LIG A   1      -7.852   0.607 131.940  0.00  0.00    -0.441 OA
ATOM      9  C   LIG A   1      -7.997   1.681 131.076  0.00  0.00    +0.216 A 
ATOM     10  C   LIG A   1      -8.815   2.803 131.401  0.00  0.00    +0.212 A 
ATOM     11  C   LIG A   1      -6.399  -1.185 132.564  0.00  0.00    +0.164 A 
ATOM     12  C   LIG A   1      -5.297  -2.005 132.306  0.00  0.00    +0.064 A 
ATOM     13  C   LIG A   1      -4.597  -1.889 131.098  0.00  0.00    +0.066 A 
ATOM     14  C   LIG A   1      -5.028  -0.991 130.131  0.00  0.00    +0.065 A 
ENDROOT
BRANCH  10  15
ATOM     15  O   LIG A   1      -9.477   2.648 132.600  0.00  0.00    -0.488 OA
ATOM     16  C   LIG A   1      -9.127   3.441 133.723  0.00  0.00    +0.277 C 
ENDBRANCH  10  15
BRANCH  11  17
ATOM     17  O   LIG A   1      -7.048  -1.298 133.757  0.00  0.00    -0.503 OA
ATOM     18  H   LIG A   1      -7.916  -0.865 133.636  0.00  0.00    +0.292 HD
ENDBRANCH  11  17
BRANCH  13  19
ATOM     19  C   LIG A   1      -3.412  -2.745 130.847  0.00  0.00    +0.337 C 
ATOM     20  O   LIG A   1      -3.141  -3.744 131.416  0.00  0.00    -0.245 OA
BRANCH  19  21
ATOM     21  O   LIG A   1      -2.611  -2.211 129.888  0.00  0.00    -0.477 OA
ATOM     22  H   LIG A   1      -2.911  -2.653 129.068  0.00  0.00    +0.295 HD
ENDBRANCH  19  21
ENDBRANCH  13  19
BRANCH   2  23
ATOM     23  O   LIG A   1      -8.350   4.294 127.979  0.00  0.00    -0.491 OA
ATOM     24  C   LIG A   1      -7.750   3.724 126.875  0.00  0.00    +0.277 C 
ENDBRANCH   2  23
BRANCH   1  25
ATOM     25  O   LIG A   1      -9.730   4.960 130.685  0.00  0.00    -0.482 OA
BRANCH  25  26
ATOM     26  C   LIG A   1     -11.165   4.756 130.620  0.00  0.00    +0.263 C 
BRANCH  26  29
ATOM     27  C   LIG A   1     -12.598   7.199 128.135  0.00  0.00    +0.175 C 
ATOM     28  O   LIG A   1     -12.024   5.963 128.633  0.00  0.00    -0.362 OA
ATOM     29  C   LIG A   1     -12.021   5.924 130.084  0.00  0.00    +0.187 C 
ATOM     30  C   LIG A   1     -11.488   7.269 130.584  0.00  0.00    +0.177 C 
ATOM     31  C   LIG A   1     -10.629   7.918 129.446  0.00  0.00    +0.176 C 
ATOM     32  C   LIG A   1     -11.573   8.336 128.310  0.00  0.00    +0.176 C 
BRANCH  32  33
ATOM     33  O   LIG A   1     -12.218   9.563 128.695  0.00  0.00    -0.387 OA
ATOM     34  H   LIG A   1     -11.623   9.989 129.343  0.00  0.00    +0.210 HD
ENDBRANCH  32  33
BRANCH  31  35
ATOM     35  O   LIG A   1      -9.596   7.060 128.941  0.00  0.00    -0.387 OA
ATOM     36  H   LIG A   1      -9.045   6.748 129.690  0.00  0.00    +0.210 HD
ENDBRANCH  31  35
BRANCH  30  37
ATOM     37  O   LIG A   1     -12.628   8.075 130.949  0.00  0.00    -0.387 OA
ATOM     38  H   LIG A   1     -12.540   8.351 131.883  0.00  0.00    +0.210 HD
ENDBRANCH  30  37
BRANCH  27  39
ATOM     39  C   LIG A   1     -12.974   7.034 126.667  0.00  0.00    +0.190 C 
BRANCH  39  40
ATOM     40  O   LIG A   1     -11.839   6.693 125.881  0.00  0.00    -0.392 OA
ATOM     41  H   LIG A   1     -11.205   6.231 126.460  0.00  0.00    +0.209 HD
ENDBRANCH  39  40
ENDBRANCH  27  39
ENDBRANCH  26  29
ENDBRANCH  25  26
ENDBRANCH   1  25
TORSDOF 13
ENDMDL
MODEL 4
REMARK VINA RESULT:      -7.6      3.525      9.297
REMARK  Name = NuBBE_1186
REMARK  15 active torsions:
REMARK  status: ('A' for Active; 'I' for Inactive)
REMARK    1  A    between atoms: O_1  and  C_2
REMARK    2  A    between atoms: C_2  and  C_3
REMARK    3  A    between atoms: C_6  and  C_17
REMARK    4  A    between atoms: C_8  and  O_16
REMARK    5  A    between atoms: C_10  and  O_15
REMARK    6  A    between atoms: C_12  and  O_14
REMARK    7  A    between atoms: C_17  and  O_18
REMARK    8  A    between atoms: O_18  and  C_19
REMARK    9  A    between atoms: C_20  and  O_39
REMARK   10  A    between atoms: C_28  and  O_29
REMARK   11  A    between atoms: O_29  and  C_30
REMARK   12  A    between atoms: C_31  and  O_32
REMARK   13  A    between atoms: C_34  and  C_35
REMARK   14  A    between atoms: C_35  and  O_36
REMARK   15  A    between atoms: O_39  and  C_40
REMARK                            x       y       z     vdW  Elec       q    Type
REMARK                         _______ _______ _______ _____ _____    ______ ____
ROOT
ATOM      1  C   LIG A   1      -8.657   3.163 129.618  0.00  0.00    +0.208 A 
ATOM      2  C   LIG A   1      -7.748   3.305 130.705  0.00  0.00    +0.169 A 
ATOM      3  C   LIG A   1      -6.691   2.440 130.879  0.00  0.00    +0.099 A 
ATOM      4  C   LIG A   1      -6.406   1.510 129.939  0.00  0.00    +0.178 A 
ATOM      5  O   LIG A   1      -5.315   0.774 130.256  0.00  0.00    -0.448 OA
ATOM      6  C   LIG A   1      -5.176  -0.336 129.502  0.00  0.00    +0.175 A 
ATOM      7  C   LIG A   1      -5.862  -0.484 128.302  0.00  0.00    +0.212 A 
ATOM      8  O   LIG A   1      -6.788   0.442 127.851  0.00  0.00    -0.441 OA
ATOM      9  C   LIG A   1      -7.171   1.390 128.789  0.00  0.00    +0.216 A 
ATOM     10  C   LIG A   1      -8.306   2.228 128.590  0.00  0.00    +0.212 A 
ATOM     11  C   LIG A   1      -5.628  -1.628 127.562  0.00  0.00    +0.164 A 
ATOM     12  C   LIG A   1      -4.766  -2.617 128.042  0.00  0.00    +0.064 A 
ATOM     13  C   LIG A   1      -4.134  -2.463 129.282  0.00  0.00    +0.066 A 
ATOM     14  C   LIG A   1      -4.325  -1.302 130.018  0.00  0.00    +0.065 A 
ENDROOT
BRANCH  10  15
ATOM     15  O   LIG A   1      -8.899   2.037 127.361  0.00  0.00    -0.488 OA
ATOM     16  C   LIG A   1      -8.356   2.640 126.197  0.00  0.00    +0.277 C 
ENDBRANCH  10  15
BRANCH  11  17
ATOM     17  O   LIG A   1      -6.253  -1.811 126.364  0.00  0.00    -0.503 OA
ATOM     18  H   LIG A   1      -7.026  -1.212 126.366  0.00  0.00    +0.292 HD
ENDBRANCH  11  17
BRANCH  13  19
ATOM     19  C   LIG A   1      -3.244  -3.533 129.794  0.00  0.00    +0.337 C 
ATOM     20  O   LIG A   1      -3.090  -3.829 130.928  0.00  0.00    -0.245 OA
BRANCH  19  21
ATOM     21  O   LIG A   1      -2.558  -4.131 128.785  0.00  0.00    -0.477 OA
ATOM     22  H   LIG A   1      -1.994  -3.411 128.436  0.00  0.00    +0.295 HD
ENDBRANCH  19  21
ENDBRANCH  13  19
BRANCH   2  23
ATOM     23  O   LIG A   1      -7.526   4.230 131.678  0.00  0.00    -0.491 OA
ATOM     24  C   LIG A   1      -7.161   5.522 131.358  0.00  0.00    +0.277 C 
ENDBRANCH   2  23
BRANCH   1  25
ATOM     25  O   LIG A   1      -9.688   4.060 129.449  0.00  0.00    -0.482 OA
BRANCH  25  26
ATOM     26  C   LIG A   1     -10.720   4.148 130.465  0.00  0.00    +0.263 C 
BRANCH  26  29
ATOM     27  C   LIG A   1     -12.701   6.894 128.811  0.00  0.00    +0.175 C 
ATOM     28  O   LIG A   1     -11.929   5.671 128.928  0.00  0.00    -0.362 OA
ATOM     29  C   LIG A   1     -11.767   5.274 130.314  0.00  0.00    +0.187 C 
ATOM     30  C   LIG A   1     -11.353   6.516 131.108  0.00  0.00    +0.177 C 
ATOM     31  C   LIG A   1     -10.708   7.545 130.120  0.00  0.00    +0.176 C 
ATOM     32  C   LIG A   1     -11.811   8.090 129.203  0.00  0.00    +0.176 C 
BRANCH  32  33
ATOM     33  O   LIG A   1     -12.558   9.074 129.940  0.00  0.00    -0.387 OA
ATOM     34  H   LIG A   1     -12.072   9.210 130.777  0.00  0.00    +0.210 HD
ENDBRANCH  32  33
BRANCH  31  35
ATOM     35  O   LIG A   1      -9.636   7.000 129.335  0.00  0.00    -0.387 OA
ATOM     36  H   LIG A   1      -9.896   7.011 128.390  0.00  0.00    +0.210 HD
ENDBRANCH  31  35
BRANCH  30  37
ATOM     37  O   LIG A   1     -12.537   7.030 131.752  0.00  0.00    -0.387 OA
ATOM     38  H   LIG A   1     -12.336   7.903 132.144  0.00  0.00    +0.210 HD
ENDBRANCH  30  37
BRANCH  27  39
ATOM     39  C   LIG A   1     -13.209   7.045 127.382  0.00  0.00    +0.190 C 
BRANCH  39  40
ATOM     40  O   LIG A   1     -12.229   6.622 126.442  0.00  0.00    -0.392 OA
ATOM     41  H   LIG A   1     -12.156   5.652 126.505  0.00  0.00    +0.209 HD
ENDBRANCH  39  40
ENDBRANCH  27  39
ENDBRANCH  26  29
ENDBRANCH  25  26
ENDBRANCH   1  25
TORSDOF 13
ENDMDL
MODEL 5
REMARK VINA RESULT:      -7.6      5.818     10.035
REMARK  Name = NuBBE_1186
REMARK  15 active torsions:
REMARK  status: ('A' for Active; 'I' for Inactive)
REMARK    1  A    between atoms: O_1  and  C_2
REMARK    2  A    between atoms: C_2  and  C_3
REMARK    3  A    between atoms: C_6  and  C_17
REMARK    4  A    between atoms: C_8  and  O_16
REMARK    5  A    between atoms: C_10  and  O_15
REMARK    6  A    between atoms: C_12  and  O_14
REMARK    7  A    between atoms: C_17  and  O_18
REMARK    8  A    between atoms: O_18  and  C_19
REMARK    9  A    between atoms: C_20  and  O_39
REMARK   10  A    between atoms: C_28  and  O_29
REMARK   11  A    between atoms: O_29  and  C_30
REMARK   12  A    between atoms: C_31  and  O_32
REMARK   13  A    between atoms: C_34  and  C_35
REMARK   14  A    between atoms: C_35  and  O_36
REMARK   15  A    between atoms: O_39  and  C_40
REMARK                            x       y       z     vdW  Elec       q    Type
REMARK                         _______ _______ _______ _____ _____    ______ ____
ROOT
ATOM      1  C   LIG A   1      -8.549  -0.693 126.147  0.00  0.00    +0.208 A 
ATOM      2  C   LIG A   1      -8.875  -2.079 126.141  0.00  0.00    +0.169 A 
ATOM      3  C   LIG A   1      -8.437  -2.927 127.133  0.00  0.00    +0.099 A 
ATOM      4  C   LIG A   1      -7.797  -2.437 128.218  0.00  0.00    +0.178 A 
ATOM      5  O   LIG A   1      -7.472  -3.405 129.108  0.00  0.00    -0.448 OA
ATOM      6  C   LIG A   1      -6.590  -3.003 130.045  0.00  0.00    +0.175 A 
ATOM      7  C   LIG A   1      -6.353  -1.653 130.281  0.00  0.00    +0.212 A 
ATOM      8  O   LIG A   1      -6.929  -0.649 129.522  0.00  0.00    -0.441 OA
ATOM      9  C   LIG A   1      -7.551  -1.079 128.359  0.00  0.00    +0.216 A 
ATOM     10  C   LIG A   1      -7.940  -0.170 127.333  0.00  0.00    +0.212 A 
ATOM     11  C   LIG A   1      -5.473  -1.320 131.294  0.00  0.00    +0.164 A 
ATOM     12  C   LIG A   1      -4.811  -2.319 132.013  0.00  0.00    +0.064 A 
ATOM     13  C   LIG A   1      -5.029  -3.670 131.712  0.00  0.00    +0.066 A 
ATOM     14  C   LIG A   1      -5.942  -4.022 130.727  0.00  0.00    +0.065 A 
ENDROOT
BRANCH  10  15
ATOM     15  O   LIG A   1      -7.700   1.145 127.670  0.00  0.00    -0.488 OA
ATOM     16  C   LIG A   1      -8.685   1.906 128.350  0.00  0.00    +0.277 C 
ENDBRANCH  10  15
BRANCH  11  17
ATOM     17  O   LIG A   1      -5.225  -0.012 131.587  0.00  0.00    -0.503 OA
ATOM     18  H   LIG A   1      -4.702  -0.013 132.413  0.00  0.00    +0.292 HD
ENDBRANCH  11  17
BRANCH  13  19
ATOM     19  C   LIG A   1      -4.299  -4.720 132.463  0.00  0.00    +0.337 C 
ATOM     20  O   LIG A   1      -4.767  -5.705 132.916  0.00  0.00    -0.245 OA
BRANCH  19  21
ATOM     21  O   LIG A   1      -2.990  -4.392 132.625  0.00  0.00    -0.477 OA
ATOM     22  H   LIG A   1      -3.016  -3.431 132.804  0.00  0.00    +0.295 HD
ENDBRANCH  19  21
ENDBRANCH  13  19
BRANCH   2  23
ATOM     23  O   LIG A   1      -9.690  -2.888 125.411  0.00  0.00    -0.491 OA
ATOM     24  C   LIG A   1      -9.344  -3.278 124.133  0.00  0.00    +0.277 C 
ENDBRANCH   2  23
BRANCH   1  25
ATOM     25  O   LIG A   1      -9.025   0.140 125.159  0.00  0.00    -0.482 OA
BRANCH  25  26
ATOM     26  C   LIG A   1      -8.164   0.473 124.040  0.00  0.00    +0.263 C 
BRANCH  26  29
ATOM     27  C   LIG A   1      -6.504   3.648 122.874  0.00  0.00    +0.175 C 
ATOM     28  O   LIG A   1      -6.776   2.226 122.972  0.00  0.00    -0.362 OA
ATOM     29  C   LIG A   1      -8.012   1.969 123.685  0.00  0.00    +0.187 C 
ATOM     30  C   LIG A   1      -8.009   2.833 124.949  0.00  0.00    +0.177 C 
ATOM     31  C   LIG A   1      -6.526   3.191 125.303  0.00  0.00    +0.176 C 
ATOM     32  C   LIG A   1      -5.996   4.159 124.237  0.00  0.00    +0.176 C 
BRANCH  32  33
ATOM     33  O   LIG A   1      -6.513   5.469 124.527  0.00  0.00    -0.387 OA
ATOM     34  H   LIG A   1      -5.831   6.101 124.224  0.00  0.00    +0.210 HD
ENDBRANCH  32  33
BRANCH  31  35
ATOM     35  O   LIG A   1      -5.665   2.047 125.406  0.00  0.00    -0.387 OA
ATOM     36  H   LIG A   1      -5.967   1.486 126.152  0.00  0.00    +0.210 HD
ENDBRANCH  31  35
BRANCH  30  37
ATOM     37  O   LIG A   1      -8.812   4.001 124.674  0.00  0.00    -0.387 OA
ATOM     38  H   LIG A   1      -8.549   4.374 123.808  0.00  0.00    +0.210 HD
ENDBRANCH  30  37
BRANCH  27  39
ATOM     39  C   LIG A   1      -5.467   3.898 121.784  0.00  0.00    +0.190 C 
BRANCH  39  40
ATOM     40  O   LIG A   1      -4.782   5.125 121.999  0.00  0.00    -0.392 OA
ATOM     41  H   LIG A   1      -3.840   4.980 121.794  0.00  0.00    +0.209 HD
ENDBRANCH  39  40
ENDBRANCH  27  39
ENDBRANCH  26  29
ENDBRANCH  25  26
ENDBRANCH   1  25
TORSDOF 13
ENDMDL
MODEL 6
REMARK VINA RESULT:      -7.6      2.960      9.069
REMARK  Name = NuBBE_1186
REMARK  15 active torsions:
REMARK  status: ('A' for Active; 'I' for Inactive)
REMARK    1  A    between atoms: O_1  and  C_2
REMARK    2  A    between atoms: C_2  and  C_3
REMARK    3  A    between atoms: C_6  and  C_17
REMARK    4  A    between atoms: C_8  and  O_16
REMARK    5  A    between atoms: C_10  and  O_15
REMARK    6  A    between atoms: C_12  and  O_14
REMARK    7  A    between atoms: C_17  and  O_18
REMARK    8  A    between atoms: O_18  and  C_19
REMARK    9  A    between atoms: C_20  and  O_39
REMARK   10  A    between atoms: C_28  and  O_29
REMARK   11  A    between atoms: O_29  and  C_30
REMARK   12  A    between atoms: C_31  and  O_32
REMARK   13  A    between atoms: C_34  and  C_35
REMARK   14  A    between atoms: C_35  and  O_36
REMARK   15  A    between atoms: O_39  and  C_40
REMARK                            x       y       z     vdW  Elec       q    Type
REMARK                         _______ _______ _______ _____ _____    ______ ____
ROOT
ATOM      1  C   LIG A   1      -8.706   3.552 130.224  0.00  0.00    +0.208 A 
ATOM      2  C   LIG A   1      -7.930   4.304 131.151  0.00  0.00    +0.169 A 
ATOM      3  C   LIG A   1      -6.770   3.800 131.696  0.00  0.00    +0.099 A 
ATOM      4  C   LIG A   1      -6.262   2.626 131.257  0.00  0.00    +0.178 A 
ATOM      5  O   LIG A   1      -5.101   2.303 131.875  0.00  0.00    -0.448 OA
ATOM      6  C   LIG A   1      -4.725   1.023 131.680  0.00  0.00    +0.175 A 
ATOM      7  C   LIG A   1      -5.271   0.258 130.655  0.00  0.00    +0.212 A 
ATOM      8  O   LIG A   1      -6.287   0.721 129.836  0.00  0.00    -0.441 OA
ATOM      9  C   LIG A   1      -6.894   1.893 130.264  0.00  0.00    +0.216 A 
ATOM     10  C   LIG A   1      -8.124   2.349 129.708  0.00  0.00    +0.212 A 
ATOM     11  C   LIG A   1      -4.797  -1.030 130.488  0.00  0.00    +0.164 A 
ATOM     12  C   LIG A   1      -3.837  -1.549 131.360  0.00  0.00    +0.064 A 
ATOM     13  C   LIG A   1      -3.348  -0.771 132.417  0.00  0.00    +0.066 A 
ATOM     14  C   LIG A   1      -3.782   0.537 132.574  0.00  0.00    +0.065 A 
ENDROOT
BRANCH  10  15
ATOM     15  O   LIG A   1      -8.570   1.550 128.677  0.00  0.00    -0.488 OA
ATOM     16  C   LIG A   1      -8.294   1.893 127.329  0.00  0.00    +0.277 C 
ENDBRANCH  10  15
BRANCH  11  17
ATOM     17  O   LIG A   1      -5.278  -1.814 129.482  0.00  0.00    -0.503 OA
ATOM     18  H   LIG A   1      -4.851  -2.687 129.590  0.00  0.00    +0.292 HD
ENDBRANCH  11  17
BRANCH  13  19
ATOM     19  C   LIG A   1      -2.350  -1.344 133.354  0.00  0.00    +0.337 C 
ATOM     20  O   LIG A   1      -2.192  -2.491 133.588  0.00  0.00    -0.245 OA
BRANCH  19  21
ATOM     21  O   LIG A   1      -1.640  -0.367 133.977  0.00  0.00    -0.477 OA
ATOM     22  H   LIG A   1      -1.741   0.403 133.382  0.00  0.00    +0.295 HD
ENDBRANCH  19  21
ENDBRANCH  13  19
BRANCH   2  23
ATOM     23  O   LIG A   1      -7.941   5.578 131.628  0.00  0.00    -0.491 OA
ATOM     24  C   LIG A   1      -8.484   5.869 132.863  0.00  0.00    +0.277 C 
ENDBRANCH   2  23
BRANCH   1  25
ATOM     25  O   LIG A   1      -9.846   4.092 129.670  0.00  0.00    -0.482 OA
BRANCH  25  26
ATOM     26  C   LIG A   1     -11.045   4.193 130.481  0.00  0.00    +0.263 C 
BRANCH  26  29
ATOM     27  C   LIG A   1     -12.600   7.056 128.589  0.00  0.00    +0.175 C 
ATOM     28  O   LIG A   1     -11.912   5.796 128.802  0.00  0.00    -0.362 OA
ATOM     29  C   LIG A   1     -12.001   5.369 130.186  0.00  0.00    +0.187 C 
ATOM     30  C   LIG A   1     -11.672   6.577 131.068  0.00  0.00    +0.177 C 
ATOM     31  C   LIG A   1     -10.826   7.591 130.226  0.00  0.00    +0.176 C 
ATOM     32  C   LIG A   1     -11.737   8.202 129.152  0.00  0.00    +0.176 C 
BRANCH  32  33
ATOM     33  O   LIG A   1     -12.552   9.208 129.778  0.00  0.00    -0.387 OA
ATOM     34  H   LIG A   1     -12.118   9.416 130.628  0.00  0.00    +0.210 HD
ENDBRANCH  32  33
BRANCH  31  35
ATOM     35  O   LIG A   1      -9.664   7.010 129.617  0.00  0.00    -0.387 OA
ATOM     36  H   LIG A   1      -8.862   7.442 129.981  0.00  0.00    +0.210 HD
ENDBRANCH  31  35
BRANCH  30  37
ATOM     37  O   LIG A   1     -12.924   7.135 131.518  0.00  0.00    -0.387 OA
ATOM     38  H   LIG A   1     -13.511   7.269 130.747  0.00  0.00    +0.210 HD
ENDBRANCH  30  37
BRANCH  27  39
ATOM     39  C   LIG A   1     -12.855   7.255 127.099  0.00  0.00    +0.190 C 
BRANCH  39  40
ATOM     40  O   LIG A   1     -11.903   6.545 126.316  0.00  0.00    -0.392 OA
ATOM     41  H   LIG A   1     -11.457   5.904 126.900  0.00  0.00    +0.209 HD
ENDBRANCH  39  40
ENDBRANCH  27  39
ENDBRANCH  26  29
ENDBRANCH  25  26
ENDBRANCH   1  25
TORSDOF 13
ENDMDL
MODEL 7
REMARK VINA RESULT:      -7.5      3.569      5.493
REMARK  Name = NuBBE_1186
REMARK  15 active torsions:
REMARK  status: ('A' for Active; 'I' for Inactive)
REMARK    1  A    between atoms: O_1  and  C_2
REMARK    2  A    between atoms: C_2  and  C_3
REMARK    3  A    between atoms: C_6  and  C_17
REMARK    4  A    between atoms: C_8  and  O_16
REMARK    5  A    between atoms: C_10  and  O_15
REMARK    6  A    between atoms: C_12  and  O_14
REMARK    7  A    between atoms: C_17  and  O_18
REMARK    8  A    between atoms: O_18  and  C_19
REMARK    9  A    between atoms: C_20  and  O_39
REMARK   10  A    between atoms: C_28  and  O_29
REMARK   11  A    between atoms: O_29  and  C_30
REMARK   12  A    between atoms: C_31  and  O_32
REMARK   13  A    between atoms: C_34  and  C_35
REMARK   14  A    between atoms: C_35  and  O_36
REMARK   15  A    between atoms: O_39  and  C_40
REMARK                            x       y       z     vdW  Elec       q    Type
REMARK                         _______ _______ _______ _____ _____    ______ ____
ROOT
ATOM      1  C   LIG A   1      -7.726   2.401 129.334  0.00  0.00    +0.208 A 
ATOM      2  C   LIG A   1      -7.428   3.151 128.161  0.00  0.00    +0.169 A 
ATOM      3  C   LIG A   1      -8.061   4.343 127.888  0.00  0.00    +0.099 A 
ATOM      4  C   LIG A   1      -8.887   4.904 128.800  0.00  0.00    +0.178 A 
ATOM      5  O   LIG A   1      -9.390   6.089 128.380  0.00  0.00    -0.448 OA
ATOM      6  C   LIG A   1     -10.427   6.528 129.123  0.00  0.00    +0.175 A 
ATOM      7  C   LIG A   1     -10.682   6.005 130.387  0.00  0.00    +0.212 A 
ATOM      8  O   LIG A   1      -9.955   4.955 130.922  0.00  0.00    -0.441 OA
ATOM      9  C   LIG A   1      -9.132   4.296 130.021  0.00  0.00    +0.216 A 
ATOM     10  C   LIG A   1      -8.540   3.036 130.327  0.00  0.00    +0.212 A 
ATOM     11  C   LIG A   1     -11.733   6.542 131.106  0.00  0.00    +0.164 A 
ATOM     12  C   LIG A   1     -12.536   7.541 130.549  0.00  0.00    +0.064 A 
ATOM     13  C   LIG A   1     -12.287   8.005 129.251  0.00  0.00    +0.066 A 
ATOM     14  C   LIG A   1     -11.210   7.507 128.531  0.00  0.00    +0.065 A 
ENDROOT
BRANCH  10  15
ATOM     15  O   LIG A   1      -8.817   2.616 131.610  0.00  0.00    -0.488 OA
ATOM     16  C   LIG A   1      -9.776   1.596 131.844  0.00  0.00    +0.277 C 
ENDBRANCH  10  15
BRANCH  11  17
ATOM     17  O   LIG A   1     -12.009   6.088 132.361  0.00  0.00    -0.503 OA
ATOM     18  H   LIG A   1     -12.171   6.882 132.908  0.00  0.00    +0.292 HD
ENDBRANCH  11  17
BRANCH  13  19
ATOM     19  C   LIG A   1     -13.164   9.045 128.659  0.00  0.00    +0.337 C 
ATOM     20  O   LIG A   1     -13.869   8.910 127.721  0.00  0.00    -0.245 OA
BRANCH  19  21
ATOM     21  O   LIG A   1     -13.029  10.232 129.306  0.00  0.00    -0.477 OA
ATOM     22  H   LIG A   1     -13.127   9.990 130.249  0.00  0.00    +0.295 HD
ENDBRANCH  19  21
ENDBRANCH  13  19
BRANCH   2  23
ATOM     23  O   LIG A   1      -6.503   3.082 127.165  0.00  0.00    -0.491 OA
ATOM     24  C   LIG A   1      -5.190   3.443 127.390  0.00  0.00    +0.277 C 
ENDBRANCH   2  23
BRANCH   1  25
ATOM     25  O   LIG A   1      -7.057   1.227 129.599  0.00  0.00    -0.482 OA
BRANCH  25  26
ATOM     26  C   LIG A   1      -7.638  -0.030 129.168  0.00  0.00    +0.263 C 
BRANCH  26  29
ATOM     27  C   LIG A   1      -7.943  -2.032 125.990  0.00  0.00    +0.175 C 
ATOM     28  O   LIG A   1      -8.193  -1.636 127.363  0.00  0.00    -0.362 OA
ATOM     29  C   LIG A   1      -7.627  -0.332 127.653  0.00  0.00    +0.187 C 
ATOM     30  C   LIG A   1      -6.198  -0.313 127.102  0.00  0.00    +0.177 C 
ATOM     31  C   LIG A   1      -5.692  -1.789 126.982  0.00  0.00    +0.176 C 
ATOM     32  C   LIG A   1      -6.473  -2.477 125.855  0.00  0.00    +0.176 C 
BRANCH  32  33
ATOM     33  O   LIG A   1      -5.915  -2.050 124.600  0.00  0.00    -0.387 OA
ATOM     34  H   LIG A   1      -6.640  -1.604 124.120  0.00  0.00    +0.210 HD
ENDBRANCH  32  33
BRANCH  31  35
ATOM     35  O   LIG A   1      -5.812  -2.543 128.198  0.00  0.00    -0.387 OA
ATOM     36  H   LIG A   1      -5.411  -2.030 128.932  0.00  0.00    +0.210 HD
ENDBRANCH  31  35
BRANCH  30  37
ATOM     37  O   LIG A   1      -6.237   0.367 125.830  0.00  0.00    -0.387 OA
ATOM     38  H   LIG A   1      -7.157   0.636 125.637  0.00  0.00    +0.210 HD
ENDBRANCH  30  37
BRANCH  27  39
ATOM     39  C   LIG A   1      -8.887  -3.164 125.603  0.00  0.00    +0.190 C 
BRANCH  39  40
ATOM     40  O   LIG A   1      -8.257  -4.077 124.712  0.00  0.00    -0.392 OA
ATOM     41  H   LIG A   1      -8.493  -3.816 123.803  0.00  0.00    +0.209 HD
ENDBRANCH  39  40
ENDBRANCH  27  39
ENDBRANCH  26  29
ENDBRANCH  25  26
ENDBRANCH   1  25
TORSDOF 13
ENDMDL
MODEL 8
REMARK VINA RESULT:      -7.4      3.354      5.004
REMARK  Name = NuBBE_1186
REMARK  15 active torsions:
REMARK  status: ('A' for Active; 'I' for Inactive)
REMARK    1  A    between atoms: O_1  and  C_2
REMARK    2  A    between atoms: C_2  and  C_3
REMARK    3  A    between atoms: C_6  and  C_17
REMARK    4  A    between atoms: C_8  and  O_16
REMARK    5  A    between atoms: C_10  and  O_15
REMARK    6  A    between atoms: C_12  and  O_14
REMARK    7  A    between atoms: C_17  and  O_18
REMARK    8  A    between atoms: O_18  and  C_19
REMARK    9  A    between atoms: C_20  and  O_39
REMARK   10  A    between atoms: C_28  and  O_29
REMARK   11  A    between atoms: O_29  and  C_30
REMARK   12  A    between atoms: C_31  and  O_32
REMARK   13  A    between atoms: C_34  and  C_35
REMARK   14  A    between atoms: C_35  and  O_36
REMARK   15  A    between atoms: O_39  and  C_40
REMARK                            x       y       z     vdW  Elec       q    Type
REMARK                         _______ _______ _______ _____ _____    ______ ____
ROOT
ATOM      1  C   LIG A   1      -7.623   2.230 130.144  0.00  0.00    +0.208 A 
ATOM      2  C   LIG A   1      -7.287   2.839 128.901  0.00  0.00    +0.169 A 
ATOM      3  C   LIG A   1      -7.928   3.972 128.456  0.00  0.00    +0.099 A 
ATOM      4  C   LIG A   1      -8.805   4.620 129.256  0.00  0.00    +0.178 A 
ATOM      5  O   LIG A   1      -9.312   5.732 128.673  0.00  0.00    -0.448 OA
ATOM      6  C   LIG A   1     -10.389   6.233 129.311  0.00  0.00    +0.175 A 
ATOM      7  C   LIG A   1     -10.691   5.863 130.617  0.00  0.00    +0.212 A 
ATOM      8  O   LIG A   1      -9.969   4.905 131.308  0.00  0.00    -0.441 OA
ATOM      9  C   LIG A   1      -9.094   4.160 130.532  0.00  0.00    +0.216 A 
ATOM     10  C   LIG A   1      -8.493   2.962 131.015  0.00  0.00    +0.212 A 
ATOM     11  C   LIG A   1     -11.783   6.459 131.220  0.00  0.00    +0.164 A 
ATOM     12  C   LIG A   1     -12.579   7.362 130.510  0.00  0.00    +0.064 A 
ATOM     13  C   LIG A   1     -12.281   7.669 129.176  0.00  0.00    +0.066 A 
ATOM     14  C   LIG A   1     -11.164   7.113 128.570  0.00  0.00    +0.065 A 
ENDROOT
BRANCH  10  15
ATOM     15  O   LIG A   1      -8.820   2.695 132.328  0.00  0.00    -0.488 OA
ATOM     16  C   LIG A   1      -7.891   2.955 133.368  0.00  0.00    +0.277 C 
ENDBRANCH  10  15
BRANCH  11  17
ATOM     17  O   LIG A   1     -12.108   6.154 132.509  0.00  0.00    -0.503 OA
ATOM     18  H   LIG A   1     -12.927   5.622 132.464  0.00  0.00    +0.292 HD
ENDBRANCH  11  17
BRANCH  13  19
ATOM     19  C   LIG A   1     -13.150   8.607 128.424  0.00  0.00    +0.337 C 
ATOM     20  O   LIG A   1     -13.257   9.767 128.621  0.00  0.00    -0.245 OA
BRANCH  19  21
ATOM     21  O   LIG A   1     -13.876   7.957 127.478  0.00  0.00    -0.477 OA
ATOM     22  H   LIG A   1     -13.231   7.809 126.757  0.00  0.00    +0.295 HD
ENDBRANCH  19  21
ENDBRANCH  13  19
BRANCH   2  23
ATOM     23  O   LIG A   1      -6.316   2.671 127.962  0.00  0.00    -0.491 OA
ATOM     24  C   LIG A   1      -6.486   3.138 126.674  0.00  0.00    +0.277 C 
ENDBRANCH   2  23
BRANCH   1  25
ATOM     25  O   LIG A   1      -6.944   1.114 130.580  0.00  0.00    -0.482 OA
BRANCH  25  26
ATOM     26  C   LIG A   1      -7.390  -0.197 130.148  0.00  0.00    +0.263 C 
BRANCH  26  29
ATOM     27  C   LIG A   1      -4.685  -2.721 130.864  0.00  0.00    +0.175 C 
ATOM     28  O   LIG A   1      -5.880  -1.926 131.082  0.00  0.00    -0.362 OA
ATOM     29  C   LIG A   1      -6.303  -1.257 129.866  0.00  0.00    +0.187 C 
ATOM     30  C   LIG A   1      -5.066  -0.616 129.232  0.00  0.00    +0.177 C 
ATOM     31  C   LIG A   1      -3.988  -0.405 130.349  0.00  0.00    +0.176 C 
ATOM     32  C   LIG A   1      -3.465  -1.783 130.780  0.00  0.00    +0.176 C 
BRANCH  32  33
ATOM     33  O   LIG A   1      -2.529  -2.236 129.786  0.00  0.00    -0.387 OA
ATOM     34  H   LIG A   1      -2.521  -3.211 129.848  0.00  0.00    +0.210 HD
ENDBRANCH  32  33
BRANCH  31  35
ATOM     35  O   LIG A   1      -4.471   0.320 131.489  0.00  0.00    -0.387 OA
ATOM     36  H   LIG A   1      -3.939   0.071 132.275  0.00  0.00    +0.210 HD
ENDBRANCH  31  35
BRANCH  30  37
ATOM     37  O   LIG A   1      -4.614  -1.497 128.183  0.00  0.00    -0.387 OA
ATOM     38  H   LIG A   1      -3.907  -2.076 128.532  0.00  0.00    +0.210 HD
ENDBRANCH  30  37
BRANCH  27  39
ATOM     39  C   LIG A   1      -4.520  -3.720 132.003  0.00  0.00    +0.190 C 
BRANCH  39  40
ATOM     40  O   LIG A   1      -3.149  -4.028 132.220  0.00  0.00    -0.392 OA
ATOM     41  H   LIG A   1      -2.616  -3.361 131.751  0.00  0.00    +0.209 HD
ENDBRANCH  39  40
ENDBRANCH  27  39
ENDBRANCH  26  29
ENDBRANCH  25  26
ENDBRANCH   1  25
TORSDOF 13
ENDMDL
MODEL 9
REMARK VINA RESULT:      -7.4      4.138      6.683
REMARK  Name = NuBBE_1186
REMARK  15 active torsions:
REMARK  status: ('A' for Active; 'I' for Inactive)
REMARK    1  A    between atoms: O_1  and  C_2
REMARK    2  A    between atoms: C_2  and  C_3
REMARK    3  A    between atoms: C_6  and  C_17
REMARK    4  A    between atoms: C_8  and  O_16
REMARK    5  A    between atoms: C_10  and  O_15
REMARK    6  A    between atoms: C_12  and  O_14
REMARK    7  A    between atoms: C_17  and  O_18
REMARK    8  A    between atoms: O_18  and  C_19
REMARK    9  A    between atoms: C_20  and  O_39
REMARK   10  A    between atoms: C_28  and  O_29
REMARK   11  A    between atoms: O_29  and  C_30
REMARK   12  A    between atoms: C_31  and  O_32
REMARK   13  A    between atoms: C_34  and  C_35
REMARK   14  A    between atoms: C_35  and  O_36
REMARK   15  A    between atoms: O_39  and  C_40
REMARK                            x       y       z     vdW  Elec       q    Type
REMARK                         _______ _______ _______ _____ _____    ______ ____
ROOT
ATOM      1  C   LIG A   1      -6.792   2.040 127.698  0.00  0.00    +0.208 A 
ATOM      2  C   LIG A   1      -7.004   3.053 126.720  0.00  0.00    +0.169 A 
ATOM      3  C   LIG A   1      -7.758   4.172 126.992  0.00  0.00    +0.099 A 
ATOM      4  C   LIG A   1      -8.206   4.405 128.247  0.00  0.00    +0.178 A 
ATOM      5  O   LIG A   1      -8.896   5.567 128.340  0.00  0.00    -0.448 OA
ATOM      6  C   LIG A   1      -9.597   5.688 129.486  0.00  0.00    +0.175 A 
ATOM      7  C   LIG A   1      -9.323   4.883 130.587  0.00  0.00    +0.212 A 
ATOM      8  O   LIG A   1      -8.391   3.860 130.552  0.00  0.00    -0.441 OA
ATOM      9  C   LIG A   1      -7.935   3.528 129.285  0.00  0.00    +0.216 A 
ATOM     10  C   LIG A   1      -7.203   2.330 129.039  0.00  0.00    +0.212 A 
ATOM     11  C   LIG A   1     -10.051   5.101 131.742  0.00  0.00    +0.164 A 
ATOM     12  C   LIG A   1     -11.059   6.068 131.771  0.00  0.00    +0.064 A 
ATOM     13  C   LIG A   1     -11.348   6.823 130.627  0.00  0.00    +0.066 A 
ATOM     14  C   LIG A   1     -10.599   6.646 129.473  0.00  0.00    +0.065 A 
ENDROOT
BRANCH  10  15
ATOM     15  O   LIG A   1      -6.949   1.617 130.191  0.00  0.00    -0.488 OA
ATOM     16  C   LIG A   1      -7.682   0.439 130.486  0.00  0.00    +0.277 C 
ENDBRANCH  10  15
BRANCH  11  17
ATOM     17  O   LIG A   1      -9.805   4.360 132.860  0.00  0.00    -0.503 OA
ATOM     18  H   LIG A   1     -10.179   4.866 133.608  0.00  0.00    +0.292 HD
ENDBRANCH  11  17
BRANCH  13  19
ATOM     19  C   LIG A   1     -12.440   7.826 130.662  0.00  0.00    +0.337 C 
ATOM     20  O   LIG A   1     -12.542   8.770 129.959  0.00  0.00    -0.245 OA
BRANCH  19  21
ATOM     21  O   LIG A   1     -13.323   7.561 131.661  0.00  0.00    -0.477 OA
ATOM     22  H   LIG A   1     -13.193   8.306 132.283  0.00  0.00    +0.295 HD
ENDBRANCH  19  21
ENDBRANCH  13  19
BRANCH   2  23
ATOM     23  O   LIG A   1      -6.523   3.326 125.477  0.00  0.00    -0.491 OA
ATOM     24  C   LIG A   1      -7.379   3.608 124.431  0.00  0.00    +0.277 C 
ENDBRANCH   2  23
BRANCH   1  25
ATOM     25  O   LIG A   1      -6.008   0.945 127.409  0.00  0.00    -0.482 OA
BRANCH  25  26
ATOM     26  C   LIG A   1      -6.634  -0.251 126.876  0.00  0.00    +0.263 C 
BRANCH  26  29
ATOM     27  C   LIG A   1      -8.487  -0.076 123.600  0.00  0.00    +0.175 C 
ATOM     28  O   LIG A   1      -8.163   0.219 124.983  0.00  0.00    -0.362 OA
ATOM     29  C   LIG A   1      -6.862  -0.309 125.350  0.00  0.00    +0.187 C 
ATOM     30  C   LIG A   1      -6.783  -1.750 124.839  0.00  0.00    +0.177 C 
ATOM     31  C   LIG A   1      -8.241  -2.295 124.663  0.00  0.00    +0.176 C 
ATOM     32  C   LIG A   1      -8.891  -1.559 123.483  0.00  0.00    +0.176 C 
BRANCH  32  33
ATOM     33  O   LIG A   1      -8.392  -2.139 122.265  0.00  0.00    -0.387 OA
ATOM     34  H   LIG A   1      -7.620  -2.682 122.522  0.00  0.00    +0.210 HD
ENDBRANCH  32  33
BRANCH  31  35
ATOM     35  O   LIG A   1      -9.054  -2.162 125.838  0.00  0.00    -0.387 OA
ATOM     36  H   LIG A   1      -9.768  -2.833 125.809  0.00  0.00    +0.210 HD
ENDBRANCH  31  35
BRANCH  30  37
ATOM     37  O   LIG A   1      -6.045  -1.727 123.599  0.00  0.00    -0.387 OA
ATOM     38  H   LIG A   1      -5.098  -1.886 123.787  0.00  0.00    +0.210 HD
ENDBRANCH  30  37
BRANCH  27  39
ATOM     39  C   LIG A   1      -9.621   0.830 123.135  0.00  0.00    +0.190 C 
BRANCH  39  40
ATOM     40  O   LIG A   1     -10.622   0.089 122.450  0.00  0.00    -0.392 OA
ATOM     41  H   LIG A   1     -10.177  -0.616 121.945  0.00  0.00    +0.209 HD
ENDBRANCH  39  40
ENDBRANCH  27  39
ENDBRANCH  26  29
ENDBRANCH  25  26
ENDBRANCH   1  25
TORSDOF 13
ENDMDL
