MODEL 1
REMARK VINA RESULT:      -6.2      0.000      0.000
REMARK  Name = NuBBE_970
REMARK  7 active torsions:
REMARK  status: ('A' for Active; 'I' for Inactive)
REMARK    1  A    between atoms: C_1  and  C_2
REMARK    2  A    between atoms: C_2  and  O_3
REMARK    3  A    between atoms: C_2  and  C_4
REMARK    4  A    between atoms: C_2  and  C_19
REMARK    5  A    between atoms: C_8  and  C_14
REMARK    6  A    between atoms: C_14  and  O_15
REMARK    7  A    between atoms: C_17  and  O_18
REMARK                            x       y       z     vdW  Elec       q    Type
REMARK                         _______ _______ _______ _____ _____    ______ ____
ROOT
ATOM      1  C   LIG A   1      -7.946   1.153 124.535  0.00  0.00    +0.023 C 
ATOM      2  C   LIG A   1      -7.257   0.161 125.506  0.00  0.00    +0.007 C 
ATOM      3  C   LIG A   1      -5.746  -0.023 125.276  0.00  0.00    +0.006 C 
ATOM      4  C   LIG A   1      -5.195  -1.417 125.663  0.00  0.00    +0.015 C 
ATOM      5  C   LIG A   1      -5.347  -2.474 124.540  0.00  0.00    +0.006 C 
ATOM      6  C   LIG A   1      -6.773  -2.872 124.142  0.00  0.00    +0.005 C 
ATOM      7  C   LIG A   1      -7.356  -1.990 123.022  0.00  0.00    +0.033 C 
ATOM      8  C   LIG A   1      -8.859  -1.783 123.097  0.00  0.00    -0.049 C 
ATOM      9  C   LIG A   1      -9.677  -2.835 123.248  0.00  0.00    +0.010 C 
ATOM     10  C   LIG A   1      -9.338   0.592 124.101  0.00  0.00    +0.042 C 
ATOM     11  C   LIG A   1      -9.343  -0.352 122.872  0.00  0.00    +0.140 C 
ENDROOT
BRANCH   1  13
ATOM     12  C   LIG A   1      -7.108   3.592 124.465  0.00  0.00    +0.041 C 
ATOM     13  C   LIG A   1      -8.072   2.600 125.125  0.00  0.00    +0.063 C 
ATOM     14  C   LIG A   1      -7.915   2.654 126.651  0.00  0.00    +0.041 C 
BRANCH  13  15
ATOM     15  O   LIG A   1      -9.396   3.067 124.814  0.00  0.00    -0.389 OA
ATOM     16  H   LIG A   1     -10.031   2.384 125.090  0.00  0.00    +0.210 HD
ENDBRANCH  13  15
ENDBRANCH   1  13
BRANCH  11  17
ATOM     17  O   LIG A   1     -10.690  -0.401 122.375  0.00  0.00    -0.388 OA
ATOM     18  H   LIG A   1     -10.632  -0.491 121.410  0.00  0.00    +0.210 HD
ENDBRANCH  11  17
BRANCH   4  19
ATOM     19  C   LIG A   1      -5.711  -1.909 127.025  0.00  0.00    +0.159 C 
BRANCH  19  20
ATOM     20  O   LIG A   1      -4.833  -1.493 128.067  0.00  0.00    -0.395 OA
ATOM     21  H   LIG A   1      -4.771  -2.225 128.703  0.00  0.00    +0.209 HD
ENDBRANCH  19  20
ENDBRANCH   4  19
TORSDOF 5
ENDMDL
MODEL 2
REMARK VINA RESULT:      -5.9      1.916      4.402
REMARK  Name = NuBBE_970
REMARK  7 active torsions:
REMARK  status: ('A' for Active; 'I' for Inactive)
REMARK    1  A    between atoms: C_1  and  C_2
REMARK    2  A    between atoms: C_2  and  O_3
REMARK    3  A    between atoms: C_2  and  C_4
REMARK    4  A    between atoms: C_2  and  C_19
REMARK    5  A    between atoms: C_8  and  C_14
REMARK    6  A    between atoms: C_14  and  O_15
REMARK    7  A    between atoms: C_17  and  O_18
REMARK                            x       y       z     vdW  Elec       q    Type
REMARK                         _______ _______ _______ _____ _____    ______ ____
ROOT
ATOM      1  C   LIG A   1      -8.774  -1.149 124.800  0.00  0.00    +0.023 C 
ATOM      2  C   LIG A   1      -7.403  -0.570 125.233  0.00  0.00    +0.007 C 
ATOM      3  C   LIG A   1      -7.335  -0.101 126.698  0.00  0.00    +0.006 C 
ATOM      4  C   LIG A   1      -6.351   1.065 126.962  0.00  0.00    +0.015 C 
ATOM      5  C   LIG A   1      -6.964   2.462 126.695  0.00  0.00    +0.006 C 
ATOM      6  C   LIG A   1      -7.356   2.791 125.250  0.00  0.00    +0.005 C 
ATOM      7  C   LIG A   1      -8.804   2.387 124.911  0.00  0.00    +0.033 C 
ATOM      8  C   LIG A   1      -9.021   1.963 123.468  0.00  0.00    -0.049 C 
ATOM      9  C   LIG A   1      -8.571   2.733 122.465  0.00  0.00    +0.010 C 
ATOM     10  C   LIG A   1      -9.129  -0.655 123.360  0.00  0.00    +0.042 C 
ATOM     11  C   LIG A   1      -9.864   0.706 123.266  0.00  0.00    +0.140 C 
ENDROOT
BRANCH   1  13
ATOM     12  C   LIG A   1      -9.196  -3.201 126.306  0.00  0.00    +0.041 C 
ATOM     13  C   LIG A   1      -8.837  -2.712 124.898  0.00  0.00    +0.063 C 
ATOM     14  C   LIG A   1      -7.557  -3.408 124.414  0.00  0.00    +0.041 C 
BRANCH  13  15
ATOM     15  O   LIG A   1      -9.909  -3.145 124.043  0.00  0.00    -0.389 OA
ATOM     16  H   LIG A   1      -9.541  -3.756 123.382  0.00  0.00    +0.210 HD
ENDBRANCH  13  15
ENDBRANCH   1  13
BRANCH  11  17
ATOM     17  O   LIG A   1     -10.476   0.773 121.968  0.00  0.00    -0.388 OA
ATOM     18  H   LIG A   1     -10.568   1.714 121.747  0.00  0.00    +0.210 HD
ENDBRANCH  11  17
BRANCH   4  19
ATOM     19  C   LIG A   1      -4.988   0.866 126.277  0.00  0.00    +0.159 C 
BRANCH  19  20
ATOM     20  O   LIG A   1      -4.042   1.805 126.779  0.00  0.00    -0.395 OA
ATOM     21  H   LIG A   1      -3.186   1.347 126.841  0.00  0.00    +0.209 HD
ENDBRANCH  19  20
ENDBRANCH   4  19
TORSDOF 5
ENDMDL
MODEL 3
REMARK VINA RESULT:      -5.9      2.394      5.629
REMARK  Name = NuBBE_970
REMARK  7 active torsions:
REMARK  status: ('A' for Active; 'I' for Inactive)
REMARK    1  A    between atoms: C_1  and  C_2
REMARK    2  A    between atoms: C_2  and  O_3
REMARK    3  A    between atoms: C_2  and  C_4
REMARK    4  A    between atoms: C_2  and  C_19
REMARK    5  A    between atoms: C_8  and  C_14
REMARK    6  A    between atoms: C_14  and  O_15
REMARK    7  A    between atoms: C_17  and  O_18
REMARK                            x       y       z     vdW  Elec       q    Type
REMARK                         _______ _______ _______ _____ _____    ______ ____
ROOT
ATOM      1  C   LIG A   1      -7.191  -2.318 127.688  0.00  0.00    +0.023 C 
ATOM      2  C   LIG A   1      -8.021  -2.358 126.381  0.00  0.00    +0.007 C 
ATOM      3  C   LIG A   1      -7.603  -3.455 125.385  0.00  0.00    +0.006 C 
ATOM      4  C   LIG A   1      -7.850  -3.110 123.896  0.00  0.00    +0.015 C 
ATOM      5  C   LIG A   1      -6.701  -2.292 123.254  0.00  0.00    +0.006 C 
ATOM      6  C   LIG A   1      -6.457  -0.880 123.799  0.00  0.00    +0.005 C 
ATOM      7  C   LIG A   1      -5.460  -0.851 124.974  0.00  0.00    +0.033 C 
ATOM      8  C   LIG A   1      -5.725   0.236 126.001  0.00  0.00    -0.049 C 
ATOM      9  C   LIG A   1      -5.919   1.504 125.606  0.00  0.00    +0.010 C 
ATOM     10  C   LIG A   1      -6.898  -0.835 128.087  0.00  0.00    +0.042 C 
ATOM     11  C   LIG A   1      -5.632  -0.196 127.463  0.00  0.00    +0.140 C 
ENDROOT
BRANCH   1  13
ATOM     12  C   LIG A   1      -6.863  -3.953 129.657  0.00  0.00    +0.041 C 
ATOM     13  C   LIG A   1      -7.864  -3.103 128.866  0.00  0.00    +0.063 C 
ATOM     14  C   LIG A   1      -9.051  -3.970 128.424  0.00  0.00    +0.041 C 
BRANCH  13  15
ATOM     15  O   LIG A   1      -8.371  -2.124 129.790  0.00  0.00    -0.389 OA
ATOM     16  H   LIG A   1      -8.041  -1.251 129.517  0.00  0.00    +0.210 HD
ENDBRANCH  13  15
ENDBRANCH   1  13
BRANCH  11  17
ATOM     17  O   LIG A   1      -5.298   0.954 128.257  0.00  0.00    -0.388 OA
ATOM     18  H   LIG A   1      -5.684   1.726 127.812  0.00  0.00    +0.210 HD
ENDBRANCH  11  17
BRANCH   4  19
ATOM     19  C   LIG A   1      -9.238  -2.495 123.645  0.00  0.00    +0.159 C 
BRANCH  19  20
ATOM     20  O   LIG A   1     -10.200  -3.522 123.425  0.00  0.00    -0.395 OA
ATOM     21  H   LIG A   1     -10.411  -3.523 122.476  0.00  0.00    +0.209 HD
ENDBRANCH  19  20
ENDBRANCH   4  19
TORSDOF 5
ENDMDL
MODEL 4
REMARK VINA RESULT:      -5.8      1.984      4.995
REMARK  Name = NuBBE_970
REMARK  7 active torsions:
REMARK  status: ('A' for Active; 'I' for Inactive)
REMARK    1  A    between atoms: C_1  and  C_2
REMARK    2  A    between atoms: C_2  and  O_3
REMARK    3  A    between atoms: C_2  and  C_4
REMARK    4  A    between atoms: C_2  and  C_19
REMARK    5  A    between atoms: C_8  and  C_14
REMARK    6  A    between atoms: C_14  and  O_15
REMARK    7  A    between atoms: C_17  and  O_18
REMARK                            x       y       z     vdW  Elec       q    Type
REMARK                         _______ _______ _______ _____ _____    ______ ____
ROOT
ATOM      1  C   LIG A   1      -7.703  -1.949 126.683  0.00  0.00    +0.023 C 
ATOM      2  C   LIG A   1      -7.868  -0.454 126.310  0.00  0.00    +0.007 C 
ATOM      3  C   LIG A   1      -9.326   0.025 126.197  0.00  0.00    +0.006 C 
ATOM      4  C   LIG A   1      -9.555   1.178 125.189  0.00  0.00    +0.015 C 
ATOM      5  C   LIG A   1      -9.754   0.693 123.731  0.00  0.00    +0.006 C 
ATOM      6  C   LIG A   1      -8.564   0.004 123.054  0.00  0.00    +0.005 C 
ATOM      7  C   LIG A   1      -8.545  -1.521 123.274  0.00  0.00    +0.033 C 
ATOM      8  C   LIG A   1      -7.156  -2.133 123.339  0.00  0.00    -0.049 C 
ATOM      9  C   LIG A   1      -6.251  -1.851 122.389  0.00  0.00    +0.010 C 
ATOM     10  C   LIG A   1      -6.543  -2.582 125.849  0.00  0.00    +0.042 C 
ATOM     11  C   LIG A   1      -6.929  -3.147 124.459  0.00  0.00    +0.140 C 
ENDROOT
BRANCH   1  13
ATOM     12  C   LIG A   1      -8.434  -3.240 128.795  0.00  0.00    +0.041 C 
ATOM     13  C   LIG A   1      -7.490  -2.177 128.220  0.00  0.00    +0.063 C 
ATOM     14  C   LIG A   1      -7.587  -0.889 129.048  0.00  0.00    +0.041 C 
BRANCH  13  15
ATOM     15  O   LIG A   1      -6.159  -2.695 128.389  0.00  0.00    -0.389 OA
ATOM     16  H   LIG A   1      -6.210  -3.480 128.960  0.00  0.00    +0.210 HD
ENDBRANCH  13  15
ENDBRANCH   1  13
BRANCH  11  17
ATOM     17  O   LIG A   1      -5.882  -4.043 124.055  0.00  0.00    -0.388 OA
ATOM     18  H   LIG A   1      -5.170  -3.497 123.683  0.00  0.00    +0.210 HD
ENDBRANCH  11  17
BRANCH   4  19
ATOM     19  C   LIG A   1      -8.508   2.298 125.312  0.00  0.00    +0.159 C 
BRANCH  19  20
ATOM     20  O   LIG A   1      -9.065   3.543 124.900  0.00  0.00    -0.395 OA
ATOM     21  H   LIG A   1      -8.796   3.689 123.977  0.00  0.00    +0.209 HD
ENDBRANCH  19  20
ENDBRANCH   4  19
TORSDOF 5
ENDMDL
MODEL 5
REMARK VINA RESULT:      -5.8      2.271      3.623
REMARK  Name = NuBBE_970
REMARK  7 active torsions:
REMARK  status: ('A' for Active; 'I' for Inactive)
REMARK    1  A    between atoms: C_1  and  C_2
REMARK    2  A    between atoms: C_2  and  O_3
REMARK    3  A    between atoms: C_2  and  C_4
REMARK    4  A    between atoms: C_2  and  C_19
REMARK    5  A    between atoms: C_8  and  C_14
REMARK    6  A    between atoms: C_14  and  O_15
REMARK    7  A    between atoms: C_17  and  O_18
REMARK                            x       y       z     vdW  Elec       q    Type
REMARK                         _______ _______ _______ _____ _____    ______ ____
ROOT
ATOM      1  C   LIG A   1      -8.118   1.458 124.188  0.00  0.00    +0.023 C 
ATOM      2  C   LIG A   1      -7.153   0.286 123.875  0.00  0.00    +0.007 C 
ATOM      3  C   LIG A   1      -7.762  -0.838 123.017  0.00  0.00    +0.006 C 
ATOM      4  C   LIG A   1      -7.170  -2.245 123.275  0.00  0.00    +0.015 C 
ATOM      5  C   LIG A   1      -7.838  -2.987 124.461  0.00  0.00    +0.006 C 
ATOM      6  C   LIG A   1      -7.656  -2.380 125.857  0.00  0.00    +0.005 C 
ATOM      7  C   LIG A   1      -8.756  -1.365 126.222  0.00  0.00    +0.033 C 
ATOM      8  C   LIG A   1      -8.297  -0.233 127.126  0.00  0.00    -0.049 C 
ATOM      9  C   LIG A   1      -7.609  -0.501 128.246  0.00  0.00    +0.010 C 
ATOM     10  C   LIG A   1      -7.932   1.918 125.671  0.00  0.00    +0.042 C 
ATOM     11  C   LIG A   1      -8.773   1.164 126.731  0.00  0.00    +0.140 C 
ENDROOT
BRANCH   1  13
ATOM     12  C   LIG A   1      -9.013   2.639 122.076  0.00  0.00    +0.041 C 
ATOM     13  C   LIG A   1      -7.965   2.661 123.195  0.00  0.00    +0.063 C 
ATOM     14  C   LIG A   1      -6.559   2.780 122.591  0.00  0.00    +0.041 C 
BRANCH  13  15
ATOM     15  O   LIG A   1      -8.212   3.862 123.946  0.00  0.00    -0.389 OA
ATOM     16  H   LIG A   1      -7.358   4.297 124.111  0.00  0.00    +0.210 HD
ENDBRANCH  13  15
ENDBRANCH   1  13
BRANCH  11  17
ATOM     17  O   LIG A   1      -8.807   1.982 127.911  0.00  0.00    -0.388 OA
ATOM     18  H   LIG A   1      -9.599   2.539 127.847  0.00  0.00    +0.210 HD
ENDBRANCH  11  17
BRANCH   4  19
ATOM     19  C   LIG A   1      -5.634  -2.244 123.355  0.00  0.00    +0.159 C 
BRANCH  19  20
ATOM     20  O   LIG A   1      -5.152  -3.561 123.609  0.00  0.00    -0.395 OA
ATOM     21  H   LIG A   1      -4.971  -3.624 124.563  0.00  0.00    +0.209 HD
ENDBRANCH  19  20
ENDBRANCH   4  19
TORSDOF 5
ENDMDL
MODEL 6
REMARK VINA RESULT:      -5.7      1.709      5.642
REMARK  Name = NuBBE_970
REMARK  7 active torsions:
REMARK  status: ('A' for Active; 'I' for Inactive)
REMARK    1  A    between atoms: C_1  and  C_2
REMARK    2  A    between atoms: C_2  and  O_3
REMARK    3  A    between atoms: C_2  and  C_4
REMARK    4  A    between atoms: C_2  and  C_19
REMARK    5  A    between atoms: C_8  and  C_14
REMARK    6  A    between atoms: C_14  and  O_15
REMARK    7  A    between atoms: C_17  and  O_18
REMARK                            x       y       z     vdW  Elec       q    Type
REMARK                         _______ _______ _______ _____ _____    ______ ____
ROOT
ATOM      1  C   LIG A   1      -7.730  -1.899 125.085  0.00  0.00    +0.023 C 
ATOM      2  C   LIG A   1      -8.306  -0.462 125.009  0.00  0.00    +0.007 C 
ATOM      3  C   LIG A   1      -7.895   0.331 123.755  0.00  0.00    +0.006 C 
ATOM      4  C   LIG A   1      -7.810   1.864 123.955  0.00  0.00    +0.015 C 
ATOM      5  C   LIG A   1      -6.448   2.337 124.522  0.00  0.00    +0.006 C 
ATOM      6  C   LIG A   1      -6.083   1.881 125.939  0.00  0.00    +0.005 C 
ATOM      7  C   LIG A   1      -5.324   0.541 125.966  0.00  0.00    +0.033 C 
ATOM      8  C   LIG A   1      -5.593  -0.314 127.193  0.00  0.00    -0.049 C 
ATOM      9  C   LIG A   1      -5.507   0.222 128.419  0.00  0.00    +0.010 C 
ATOM     10  C   LIG A   1      -7.281  -2.215 126.548  0.00  0.00    +0.042 C 
ATOM     11  C   LIG A   1      -5.837  -1.798 126.926  0.00  0.00    +0.140 C 
ENDROOT
BRANCH   1  13
ATOM     12  C   LIG A   1      -8.188  -4.412 124.722  0.00  0.00    +0.041 C 
ATOM     13  C   LIG A   1      -8.723  -2.986 124.546  0.00  0.00    +0.063 C 
ATOM     14  C   LIG A   1      -9.141  -2.762 123.087  0.00  0.00    +0.041 C 
BRANCH  13  15
ATOM     15  O   LIG A   1      -9.913  -2.906 125.350  0.00  0.00    -0.389 OA
ATOM     16  H   LIG A   1     -10.601  -3.446 124.926  0.00  0.00    +0.210 HD
ENDBRANCH  13  15
ENDBRANCH   1  13
BRANCH  11  17
ATOM     17  O   LIG A   1      -5.472  -2.537 128.103  0.00  0.00    -0.388 OA
ATOM     18  H   LIG A   1      -4.965  -3.310 127.805  0.00  0.00    +0.210 HD
ENDBRANCH  11  17
BRANCH   4  19
ATOM     19  C   LIG A   1      -9.012   2.437 124.724  0.00  0.00    +0.159 C 
BRANCH  19  20
ATOM     20  O   LIG A   1      -8.895   3.852 124.842  0.00  0.00    -0.395 OA
ATOM     21  H   LIG A   1      -9.319   4.243 124.059  0.00  0.00    +0.209 HD
ENDBRANCH  19  20
ENDBRANCH   4  19
TORSDOF 5
ENDMDL
MODEL 7
REMARK VINA RESULT:      -5.6      1.490      4.450
REMARK  Name = NuBBE_970
REMARK  7 active torsions:
REMARK  status: ('A' for Active; 'I' for Inactive)
REMARK    1  A    between atoms: C_1  and  C_2
REMARK    2  A    between atoms: C_2  and  O_3
REMARK    3  A    between atoms: C_2  and  C_4
REMARK    4  A    between atoms: C_2  and  C_19
REMARK    5  A    between atoms: C_8  and  C_14
REMARK    6  A    between atoms: C_14  and  O_15
REMARK    7  A    between atoms: C_17  and  O_18
REMARK                            x       y       z     vdW  Elec       q    Type
REMARK                         _______ _______ _______ _____ _____    ______ ____
ROOT
ATOM      1  C   LIG A   1      -8.670  -0.972 124.786  0.00  0.00    +0.023 C 
ATOM      2  C   LIG A   1      -7.418  -1.375 125.606  0.00  0.00    +0.007 C 
ATOM      3  C   LIG A   1      -7.700  -2.312 126.794  0.00  0.00    +0.006 C 
ATOM      4  C   LIG A   1      -6.725  -2.161 127.987  0.00  0.00    +0.015 C 
ATOM      5  C   LIG A   1      -7.125  -1.032 128.971  0.00  0.00    +0.006 C 
ATOM      6  C   LIG A   1      -7.091   0.405 128.438  0.00  0.00    +0.005 C 
ATOM      7  C   LIG A   1      -8.427   0.847 127.810  0.00  0.00    +0.033 C 
ATOM      8  C   LIG A   1      -8.290   1.831 126.661  0.00  0.00    -0.049 C 
ATOM      9  C   LIG A   1      -7.528   2.926 126.799  0.00  0.00    +0.010 C 
ATOM     10  C   LIG A   1      -8.589   0.540 124.398  0.00  0.00    +0.042 C 
ATOM     11  C   LIG A   1      -9.155   1.543 125.435  0.00  0.00    +0.140 C 
ENDROOT
BRANCH   1  13
ATOM     12  C   LIG A   1      -9.430  -3.265 123.877  0.00  0.00    +0.041 C 
ATOM     13  C   LIG A   1      -8.890  -1.874 123.523  0.00  0.00    +0.063 C 
ATOM     14  C   LIG A   1      -7.641  -2.007 122.641  0.00  0.00    +0.041 C 
BRANCH  13  15
ATOM     15  O   LIG A   1      -9.909  -1.244 122.727  0.00  0.00    -0.389 OA
ATOM     16  H   LIG A   1      -9.479  -0.819 121.966  0.00  0.00    +0.210 HD
ENDBRANCH  13  15
ENDBRANCH   1  13
BRANCH  11  17
ATOM     17  O   LIG A   1      -9.393   2.780 124.746  0.00  0.00    -0.388 OA
ATOM     18  H   LIG A   1      -8.801   3.442 125.140  0.00  0.00    +0.210 HD
ENDBRANCH  11  17
BRANCH   4  19
ATOM     19  C   LIG A   1      -5.252  -2.084 127.552  0.00  0.00    +0.159 C 
BRANCH  19  20
ATOM     20  O   LIG A   1      -4.414  -1.858 128.682  0.00  0.00    -0.395 OA
ATOM     21  H   LIG A   1      -3.563  -1.525 128.349  0.00  0.00    +0.209 HD
ENDBRANCH  19  20
ENDBRANCH   4  19
TORSDOF 5
ENDMDL
MODEL 8
REMARK VINA RESULT:      -5.6      1.937      5.284
REMARK  Name = NuBBE_970
REMARK  7 active torsions:
REMARK  status: ('A' for Active; 'I' for Inactive)
REMARK    1  A    between atoms: C_1  and  C_2
REMARK    2  A    between atoms: C_2  and  O_3
REMARK    3  A    between atoms: C_2  and  C_4
REMARK    4  A    between atoms: C_2  and  C_19
REMARK    5  A    between atoms: C_8  and  C_14
REMARK    6  A    between atoms: C_14  and  O_15
REMARK    7  A    between atoms: C_17  and  O_18
REMARK                            x       y       z     vdW  Elec       q    Type
REMARK                         _______ _______ _______ _____ _____    ______ ____
ROOT
ATOM      1  C   LIG A   1      -8.093  -1.294 124.735  0.00  0.00    +0.023 C 
ATOM      2  C   LIG A   1      -8.179   0.251 124.670  0.00  0.00    +0.007 C 
ATOM      3  C   LIG A   1      -6.958   0.939 124.034  0.00  0.00    +0.006 C 
ATOM      4  C   LIG A   1      -6.660   2.361 124.569  0.00  0.00    +0.015 C 
ATOM      5  C   LIG A   1      -5.807   2.368 125.863  0.00  0.00    +0.006 C 
ATOM      6  C   LIG A   1      -6.437   1.755 127.119  0.00  0.00    +0.005 C 
ATOM      7  C   LIG A   1      -6.156   0.247 127.261  0.00  0.00    +0.033 C 
ATOM      8  C   LIG A   1      -7.264  -0.541 127.938  0.00  0.00    -0.049 C 
ATOM      9  C   LIG A   1      -7.780  -0.116 129.102  0.00  0.00    +0.010 C 
ATOM     10  C   LIG A   1      -8.650  -1.802 126.104  0.00  0.00    +0.042 C 
ATOM     11  C   LIG A   1      -7.637  -1.865 127.274  0.00  0.00    +0.140 C 
ENDROOT
BRANCH   1  13
ATOM     12  C   LIG A   1      -9.433  -3.345 123.921  0.00  0.00    +0.041 C 
ATOM     13  C   LIG A   1      -8.809  -1.999 123.531  0.00  0.00    +0.063 C 
ATOM     14  C   LIG A   1      -7.906  -2.179 122.303  0.00  0.00    +0.041 C 
BRANCH  13  15
ATOM     15  O   LIG A   1      -9.903  -1.153 123.137  0.00  0.00    -0.389 OA
ATOM     16  H   LIG A   1      -9.537  -0.304 122.839  0.00  0.00    +0.210 HD
ENDBRANCH  13  15
ENDBRANCH   1  13
BRANCH  11  17
ATOM     17  O   LIG A   1      -8.192  -2.735 128.274  0.00  0.00    -0.388 OA
ATOM     18  H   LIG A   1      -7.462  -3.281 128.609  0.00  0.00    +0.210 HD
ENDBRANCH  11  17
BRANCH   4  19
ATOM     19  C   LIG A   1      -7.920   3.237 124.675  0.00  0.00    +0.159 C 
BRANCH  19  20
ATOM     20  O   LIG A   1      -8.287   3.733 123.391  0.00  0.00    -0.395 OA
ATOM     21  H   LIG A   1      -8.590   4.649 123.511  0.00  0.00    +0.209 HD
ENDBRANCH  19  20
ENDBRANCH   4  19
TORSDOF 5
ENDMDL
MODEL 9
REMARK VINA RESULT:      -5.6      8.208     10.710
REMARK  Name = NuBBE_970
REMARK  7 active torsions:
REMARK  status: ('A' for Active; 'I' for Inactive)
REMARK    1  A    between atoms: C_1  and  C_2
REMARK    2  A    between atoms: C_2  and  O_3
REMARK    3  A    between atoms: C_2  and  C_4
REMARK    4  A    between atoms: C_2  and  C_19
REMARK    5  A    between atoms: C_8  and  C_14
REMARK    6  A    between atoms: C_14  and  O_15
REMARK    7  A    between atoms: C_17  and  O_18
REMARK                            x       y       z     vdW  Elec       q    Type
REMARK                         _______ _______ _______ _____ _____    ______ ____
ROOT
ATOM      1  C   LIG A   1      -5.629   6.680 131.625  0.00  0.00    +0.023 C 
ATOM      2  C   LIG A   1      -6.875   6.153 130.870  0.00  0.00    +0.007 C 
ATOM      3  C   LIG A   1      -8.033   7.161 130.754  0.00  0.00    +0.006 C 
ATOM      4  C   LIG A   1      -9.443   6.526 130.694  0.00  0.00    +0.015 C 
ATOM      5  C   LIG A   1     -10.042   6.220 132.090  0.00  0.00    +0.006 C 
ATOM      6  C   LIG A   1      -9.330   5.163 132.941  0.00  0.00    +0.005 C 
ATOM      7  C   LIG A   1      -8.227   5.754 133.840  0.00  0.00    +0.033 C 
ATOM      8  C   LIG A   1      -7.049   4.828 134.089  0.00  0.00    -0.049 C 
ATOM      9  C   LIG A   1      -7.259   3.563 134.487  0.00  0.00    +0.010 C 
ATOM     10  C   LIG A   1      -5.055   5.560 132.552  0.00  0.00    +0.042 C 
ATOM     11  C   LIG A   1      -5.667   5.467 133.972  0.00  0.00    +0.140 C 
ENDROOT
BRANCH   1  13
ATOM     12  C   LIG A   1      -4.050   6.215 129.638  0.00  0.00    +0.041 C 
ATOM     13  C   LIG A   1      -4.526   7.248 130.667  0.00  0.00    +0.063 C 
ATOM     14  C   LIG A   1      -3.319   7.841 131.407  0.00  0.00    +0.041 C 
BRANCH  13  15
ATOM     15  O   LIG A   1      -5.130   8.312 129.912  0.00  0.00    -0.389 OA
ATOM     16  H   LIG A   1      -4.976   9.146 130.387  0.00  0.00    +0.210 HD
ENDBRANCH  13  15
ENDBRANCH   1  13
BRANCH  11  17
ATOM     17  O   LIG A   1      -4.750   4.717 134.785  0.00  0.00    -0.388 OA
ATOM     18  H   LIG A   1      -4.394   4.006 134.228  0.00  0.00    +0.210 HD
ENDBRANCH  11  17
BRANCH   4  19
ATOM     19  C   LIG A   1      -9.522   5.329 129.731  0.00  0.00    +0.159 C 
BRANCH  19  20
ATOM     20  O   LIG A   1      -9.396   5.770 128.382  0.00  0.00    -0.395 OA
ATOM     21  H   LIG A   1      -8.753   5.186 127.946  0.00  0.00    +0.209 HD
ENDBRANCH  19  20
ENDBRANCH   4  19
TORSDOF 5
ENDMDL
