MODEL 1
REMARK VINA RESULT:      -8.4      0.000      0.000
REMARK  Name = NuBBE_1227
REMARK  16 active torsions:
REMARK  status: ('A' for Active; 'I' for Inactive)
REMARK    1  A    between atoms: C_1  and  C_2
REMARK    2  A    between atoms: C_3  and  O_39
REMARK    3  A    between atoms: C_10  and  O_12
REMARK    4  A    between atoms: C_13  and  O_15
REMARK    5  A    between atoms: C_17  and  C_18
REMARK    6  A    between atoms: C_25  and  C_27
REMARK    7  A    between atoms: C_27  and  C_28
REMARK    8  A    between atoms: C_27  and  O_37
REMARK    9  A    between atoms: C_27  and  C_38
REMARK   10  A    between atoms: C_28  and  O_30
REMARK   11  A    between atoms: C_28  and  C_31
REMARK   12  A    between atoms: C_31  and  C_32
REMARK   13  A    between atoms: C_32  and  C_33
REMARK   14  A    between atoms: C_33  and  C_34
REMARK   15  A    between atoms: C_33  and  C_35
REMARK   16  A    between atoms: C_33  and  O_36
REMARK                            x       y       z     vdW  Elec       q    Type
REMARK                         _______ _______ _______ _____ _____    ______ ____
ROOT
ATOM      1  C   LIG A   1      -6.041  -4.184 123.974  0.00  0.00    +0.014 C 
ATOM      2  C   LIG A   1      -6.753  -2.863 124.449  0.00  0.00    +0.006 C 
ATOM      3  C   LIG A   1      -7.026  -1.912 123.243  0.00  0.00    +0.093 C 
ATOM      4  C   LIG A   1      -7.280  -0.450 123.622  0.00  0.00    -0.031 C 
ATOM      5  C   LIG A   1      -8.284   0.283 123.104  0.00  0.00    +0.049 C 
ATOM      6  C   LIG A   1      -8.356   1.756 123.274  0.00  0.00    +0.160 C 
ATOM      7  C   LIG A   1      -7.132   2.446 123.852  0.00  0.00    +0.069 C 
ATOM      8  C   LIG A   1      -7.405   3.917 124.186  0.00  0.00    +0.045 C 
ATOM      9  C   LIG A   1      -6.142   4.609 124.694  0.00  0.00    +0.144 C 
ATOM     10  C   LIG A   1      -5.442   3.850 125.834  0.00  0.00    +0.144 C 
ATOM     11  C   LIG A   1      -5.289   2.351 125.556  0.00  0.00    +0.042 C 
ATOM     12  C   LIG A   1      -6.588   1.644 125.056  0.00  0.00    -0.013 C 
ATOM     13  C   LIG A   1      -7.636   1.625 126.207  0.00  0.00    +0.012 C 
ATOM     14  C   LIG A   1      -6.236   0.173 124.557  0.00  0.00    +0.025 C 
ATOM     15  C   LIG A   1      -5.944  -0.755 125.747  0.00  0.00    +0.009 C 
ATOM     16  C   LIG A   1      -5.733  -2.224 125.405  0.00  0.00    +0.011 C 
ATOM     17  O   LIG A   1      -9.322   2.362 122.827  0.00  0.00    -0.292 OA
ATOM     18  C   LIG A   1      -8.144  -2.664 122.511  0.00  0.00    +0.040 C 
ATOM     19  C   LIG A   1      -9.043  -3.220 123.614  0.00  0.00    +0.010 C 
ATOM     20  C   LIG A   1      -8.199  -3.331 124.929  0.00  0.00    +0.032 C 
ENDROOT
BRANCH   9  21
ATOM     21  O   LIG A   1      -6.474   5.919 125.172  0.00  0.00    -0.389 OA
ATOM     22  H   LIG A   1      -6.657   5.844 126.126  0.00  0.00    +0.210 HD
ENDBRANCH   9  21
BRANCH  10  23
ATOM     23  O   LIG A   1      -6.159   4.046 127.056  0.00  0.00    -0.389 OA
ATOM     24  H   LIG A   1      -5.635   4.714 127.544  0.00  0.00    +0.210 HD
ENDBRANCH  10  23
BRANCH  20  25
ATOM     25  C   LIG A   1      -8.969  -2.727 126.154  0.00  0.00    +0.092 C 
ATOM     26  C   LIG A   1      -9.069  -1.193 126.126  0.00  0.00    +0.044 C 
BRANCH  25  27
ATOM     27  O   LIG A   1     -10.302  -3.252 126.139  0.00  0.00    -0.386 OA
ATOM     28  H   LIG A   1     -10.485  -3.455 125.199  0.00  0.00    +0.210 HD
ENDBRANCH  25  27
BRANCH  25  29
ATOM     29  C   LIG A   1      -8.361  -3.146 127.562  0.00  0.00    +0.146 C 
BRANCH  29  30
ATOM     30  O   LIG A   1      -9.355  -3.973 128.206  0.00  0.00    -0.389 OA
ATOM     31  H   LIG A   1      -8.967  -4.342 129.017  0.00  0.00    +0.210 HD
ENDBRANCH  29  30
BRANCH  29  32
ATOM     32  C   LIG A   1      -7.977  -1.977 128.495  0.00  0.00    +0.037 C 
BRANCH  32  33
ATOM     33  C   LIG A   1      -7.664  -2.425 129.939  0.00  0.00    +0.036 C 
BRANCH  33  34
ATOM     34  C   LIG A   1      -6.185  -2.792 130.205  0.00  0.00    +0.061 C 
ATOM     35  C   LIG A   1      -6.036  -4.314 130.329  0.00  0.00    +0.041 C 
ATOM     36  C   LIG A   1      -5.242  -2.274 129.119  0.00  0.00    +0.041 C 
BRANCH  34  37
ATOM     37  O   LIG A   1      -5.770  -2.205 131.440  0.00  0.00    -0.389 OA
ATOM     38  H   LIG A   1      -4.978  -2.675 131.753  0.00  0.00    +0.210 HD
ENDBRANCH  34  37
ENDBRANCH  33  34
ENDBRANCH  32  33
ENDBRANCH  29  32
ENDBRANCH  25  29
ENDBRANCH  20  25
BRANCH   3  39
ATOM     39  O   LIG A   1      -5.880  -1.871 122.384  0.00  0.00    -0.384 OA
ATOM     40  H   LIG A   1      -6.082  -1.248 121.666  0.00  0.00    +0.211 HD
ENDBRANCH   3  39
TORSDOF 11
ENDMDL
MODEL 2
REMARK VINA RESULT:      -8.2      6.024      9.325
REMARK  Name = NuBBE_1227
REMARK  16 active torsions:
REMARK  status: ('A' for Active; 'I' for Inactive)
REMARK    1  A    between atoms: C_1  and  C_2
REMARK    2  A    between atoms: C_3  and  O_39
REMARK    3  A    between atoms: C_10  and  O_12
REMARK    4  A    between atoms: C_13  and  O_15
REMARK    5  A    between atoms: C_17  and  C_18
REMARK    6  A    between atoms: C_25  and  C_27
REMARK    7  A    between atoms: C_27  and  C_28
REMARK    8  A    between atoms: C_27  and  O_37
REMARK    9  A    between atoms: C_27  and  C_38
REMARK   10  A    between atoms: C_28  and  O_30
REMARK   11  A    between atoms: C_28  and  C_31
REMARK   12  A    between atoms: C_31  and  C_32
REMARK   13  A    between atoms: C_32  and  C_33
REMARK   14  A    between atoms: C_33  and  C_34
REMARK   15  A    between atoms: C_33  and  C_35
REMARK   16  A    between atoms: C_33  and  O_36
REMARK                            x       y       z     vdW  Elec       q    Type
REMARK                         _______ _______ _______ _____ _____    ______ ____
ROOT
ATOM      1  C   LIG A   1      -8.081   4.560 134.825  0.00  0.00    +0.014 C 
ATOM      2  C   LIG A   1      -7.812   4.416 133.281  0.00  0.00    +0.006 C 
ATOM      3  C   LIG A   1      -6.986   3.128 132.977  0.00  0.00    +0.093 C 
ATOM      4  C   LIG A   1      -6.283   3.121 131.616  0.00  0.00    -0.031 C 
ATOM      5  C   LIG A   1      -6.305   2.065 130.780  0.00  0.00    +0.049 C 
ATOM      6  C   LIG A   1      -5.409   1.974 129.599  0.00  0.00    +0.160 C 
ATOM      7  C   LIG A   1      -4.297   3.003 129.494  0.00  0.00    +0.069 C 
ATOM      8  C   LIG A   1      -3.587   2.946 128.137  0.00  0.00    +0.045 C 
ATOM      9  C   LIG A   1      -2.426   3.937 128.081  0.00  0.00    +0.144 C 
ATOM     10  C   LIG A   1      -2.816   5.364 128.501  0.00  0.00    +0.144 C 
ATOM     11  C   LIG A   1      -3.641   5.409 129.791  0.00  0.00    +0.042 C 
ATOM     12  C   LIG A   1      -4.840   4.410 129.835  0.00  0.00    -0.013 C 
ATOM     13  C   LIG A   1      -5.906   4.843 128.787  0.00  0.00    +0.012 C 
ATOM     14  C   LIG A   1      -5.445   4.367 131.307  0.00  0.00    +0.025 C 
ATOM     15  C   LIG A   1      -6.238   5.649 131.611  0.00  0.00    +0.009 C 
ATOM     16  C   LIG A   1      -6.985   5.666 132.938  0.00  0.00    +0.011 C 
ATOM     17  O   LIG A   1      -5.513   1.015 128.844  0.00  0.00    -0.292 OA
ATOM     18  C   LIG A   1      -8.022   2.032 133.251  0.00  0.00    +0.040 C 
ATOM     19  C   LIG A   1      -9.336   2.574 132.692  0.00  0.00    +0.010 C 
ATOM     20  C   LIG A   1      -9.245   4.136 132.642  0.00  0.00    +0.032 C 
ENDROOT
BRANCH   9  21
ATOM     21  O   LIG A   1      -1.909   3.993 126.746  0.00  0.00    -0.389 OA
ATOM     22  H   LIG A   1      -2.659   4.170 126.149  0.00  0.00    +0.210 HD
ENDBRANCH   9  21
BRANCH  10  23
ATOM     23  O   LIG A   1      -3.536   5.999 127.442  0.00  0.00    -0.389 OA
ATOM     24  H   LIG A   1      -3.122   5.657 126.623  0.00  0.00    +0.210 HD
ENDBRANCH  10  23
BRANCH  20  25
ATOM     25  C   LIG A   1      -9.725   4.692 131.258  0.00  0.00    +0.092 C 
ATOM     26  C   LIG A   1      -9.021   4.046 130.053  0.00  0.00    +0.044 C 
BRANCH  25  27
ATOM     27  O   LIG A   1     -11.128   4.424 131.138  0.00  0.00    -0.386 OA
ATOM     28  H   LIG A   1     -11.274   4.257 130.184  0.00  0.00    +0.210 HD
ENDBRANCH  25  27
BRANCH  25  29
ATOM     29  C   LIG A   1      -9.579   6.268 131.115  0.00  0.00    +0.146 C 
BRANCH  29  30
ATOM     30  O   LIG A   1     -10.660   6.849 131.876  0.00  0.00    -0.389 OA
ATOM     31  H   LIG A   1     -10.874   6.251 132.611  0.00  0.00    +0.210 HD
ENDBRANCH  29  30
BRANCH  29  32
ATOM     32  C   LIG A   1      -9.613   6.812 129.669  0.00  0.00    +0.037 C 
BRANCH  32  33
ATOM     33  C   LIG A   1     -10.749   7.829 129.426  0.00  0.00    +0.036 C 
BRANCH  33  34
ATOM     34  C   LIG A   1     -11.869   7.345 128.475  0.00  0.00    +0.061 C 
ATOM     35  C   LIG A   1     -13.135   8.187 128.684  0.00  0.00    +0.041 C 
ATOM     36  C   LIG A   1     -11.460   7.396 127.004  0.00  0.00    +0.041 C 
BRANCH  34  37
ATOM     37  O   LIG A   1     -12.187   5.985 128.778  0.00  0.00    -0.389 OA
ATOM     38  H   LIG A   1     -12.760   5.971 129.564  0.00  0.00    +0.210 HD
ENDBRANCH  34  37
ENDBRANCH  33  34
ENDBRANCH  32  33
ENDBRANCH  29  32
ENDBRANCH  25  29
ENDBRANCH  20  25
BRANCH   3  39
ATOM     39  O   LIG A   1      -5.927   2.990 133.932  0.00  0.00    -0.384 OA
ATOM     40  H   LIG A   1      -5.147   3.435 133.563  0.00  0.00    +0.211 HD
ENDBRANCH   3  39
TORSDOF 11
ENDMDL
MODEL 3
REMARK VINA RESULT:      -8.1      4.810      7.950
REMARK  Name = NuBBE_1227
REMARK  16 active torsions:
REMARK  status: ('A' for Active; 'I' for Inactive)
REMARK    1  A    between atoms: C_1  and  C_2
REMARK    2  A    between atoms: C_3  and  O_39
REMARK    3  A    between atoms: C_10  and  O_12
REMARK    4  A    between atoms: C_13  and  O_15
REMARK    5  A    between atoms: C_17  and  C_18
REMARK    6  A    between atoms: C_25  and  C_27
REMARK    7  A    between atoms: C_27  and  C_28
REMARK    8  A    between atoms: C_27  and  O_37
REMARK    9  A    between atoms: C_27  and  C_38
REMARK   10  A    between atoms: C_28  and  O_30
REMARK   11  A    between atoms: C_28  and  C_31
REMARK   12  A    between atoms: C_31  and  C_32
REMARK   13  A    between atoms: C_32  and  C_33
REMARK   14  A    between atoms: C_33  and  C_34
REMARK   15  A    between atoms: C_33  and  C_35
REMARK   16  A    between atoms: C_33  and  O_36
REMARK                            x       y       z     vdW  Elec       q    Type
REMARK                         _______ _______ _______ _____ _____    ______ ____
ROOT
ATOM      1  C   LIG A   1      -6.519   3.096 132.399  0.00  0.00    +0.014 C 
ATOM      2  C   LIG A   1      -7.169   3.394 130.997  0.00  0.00    +0.006 C 
ATOM      3  C   LIG A   1      -7.443   2.070 130.218  0.00  0.00    +0.093 C 
ATOM      4  C   LIG A   1      -7.633   2.241 128.707  0.00  0.00    -0.031 C 
ATOM      5  C   LIG A   1      -8.625   1.648 128.016  0.00  0.00    +0.049 C 
ATOM      6  C   LIG A   1      -8.638   1.606 126.532  0.00  0.00    +0.160 C 
ATOM      7  C   LIG A   1      -7.374   2.048 125.816  0.00  0.00    +0.069 C 
ATOM      8  C   LIG A   1      -7.583   2.172 124.303  0.00  0.00    +0.045 C 
ATOM      9  C   LIG A   1      -6.281   2.545 123.596  0.00  0.00    +0.144 C 
ATOM     10  C   LIG A   1      -5.576   3.765 124.212  0.00  0.00    +0.144 C 
ATOM     11  C   LIG A   1      -5.485   3.701 125.741  0.00  0.00    +0.042 C 
ATOM     12  C   LIG A   1      -6.823   3.341 126.459  0.00  0.00    -0.013 C 
ATOM     13  C   LIG A   1      -7.836   4.508 126.272  0.00  0.00    +0.012 C 
ATOM     14  C   LIG A   1      -6.539   3.050 127.999  0.00  0.00    +0.025 C 
ATOM     15  C   LIG A   1      -6.246   4.355 128.759  0.00  0.00    +0.009 C 
ATOM     16  C   LIG A   1      -6.098   4.222 130.268  0.00  0.00    +0.011 C 
ATOM     17  O   LIG A   1      -9.595   1.100 125.958  0.00  0.00    -0.292 OA
ATOM     18  C   LIG A   1      -8.610   1.482 131.021  0.00  0.00    +0.040 C 
ATOM     19  C   LIG A   1      -9.494   2.676 131.377  0.00  0.00    +0.010 C 
ATOM     20  C   LIG A   1      -8.616   3.972 131.333  0.00  0.00    +0.032 C 
ENDROOT
BRANCH   9  21
ATOM     21  O   LIG A   1      -6.551   2.837 122.219  0.00  0.00    -0.389 OA
ATOM     22  H   LIG A   1      -5.707   3.089 121.803  0.00  0.00    +0.210 HD
ENDBRANCH   9  21
BRANCH  10  23
ATOM     23  O   LIG A   1      -6.248   4.963 123.815  0.00  0.00    -0.389 OA
ATOM     24  H   LIG A   1      -6.487   4.811 122.877  0.00  0.00    +0.210 HD
ENDBRANCH  10  23
BRANCH  20  25
ATOM     25  C   LIG A   1      -9.326   5.115 130.529  0.00  0.00    +0.092 C 
ATOM     26  C   LIG A   1      -8.618   6.476 130.632  0.00  0.00    +0.044 C 
BRANCH  25  27
ATOM     27  O   LIG A   1      -9.345   4.736 129.148  0.00  0.00    -0.386 OA
ATOM     28  H   LIG A   1      -9.958   5.368 128.719  0.00  0.00    +0.210 HD
ENDBRANCH  25  27
BRANCH  25  29
ATOM     29  C   LIG A   1     -10.848   5.331 130.933  0.00  0.00    +0.146 C 
BRANCH  29  30
ATOM     30  O   LIG A   1     -11.635   4.611 129.960  0.00  0.00    -0.389 OA
ATOM     31  H   LIG A   1     -11.072   4.423 129.190  0.00  0.00    +0.210 HD
ENDBRANCH  29  30
BRANCH  29  32
ATOM     32  C   LIG A   1     -11.318   6.801 130.993  0.00  0.00    +0.037 C 
BRANCH  32  33
ATOM     33  C   LIG A   1     -12.568   7.079 130.129  0.00  0.00    +0.036 C 
BRANCH  33  34
ATOM     34  C   LIG A   1     -12.276   7.622 128.710  0.00  0.00    +0.061 C 
ATOM     35  C   LIG A   1     -13.412   8.548 128.259  0.00  0.00    +0.041 C 
ATOM     36  C   LIG A   1     -10.945   8.368 128.624  0.00  0.00    +0.041 C 
BRANCH  34  37
ATOM     37  O   LIG A   1     -12.206   6.528 127.793  0.00  0.00    -0.389 OA
ATOM     38  H   LIG A   1     -11.476   5.945 128.065  0.00  0.00    +0.210 HD
ENDBRANCH  34  37
ENDBRANCH  33  34
ENDBRANCH  32  33
ENDBRANCH  29  32
ENDBRANCH  25  29
ENDBRANCH  20  25
BRANCH   3  39
ATOM     39  O   LIG A   1      -6.323   1.187 130.345  0.00  0.00    -0.384 OA
ATOM     40  H   LIG A   1      -5.716   1.386 129.614  0.00  0.00    +0.211 HD
ENDBRANCH   3  39
TORSDOF 11
ENDMDL
MODEL 4
REMARK VINA RESULT:      -8.0      6.182      9.843
REMARK  Name = NuBBE_1227
REMARK  16 active torsions:
REMARK  status: ('A' for Active; 'I' for Inactive)
REMARK    1  A    between atoms: C_1  and  C_2
REMARK    2  A    between atoms: C_3  and  O_39
REMARK    3  A    between atoms: C_10  and  O_12
REMARK    4  A    between atoms: C_13  and  O_15
REMARK    5  A    between atoms: C_17  and  C_18
REMARK    6  A    between atoms: C_25  and  C_27
REMARK    7  A    between atoms: C_27  and  C_28
REMARK    8  A    between atoms: C_27  and  O_37
REMARK    9  A    between atoms: C_27  and  C_38
REMARK   10  A    between atoms: C_28  and  O_30
REMARK   11  A    between atoms: C_28  and  C_31
REMARK   12  A    between atoms: C_31  and  C_32
REMARK   13  A    between atoms: C_32  and  C_33
REMARK   14  A    between atoms: C_33  and  C_34
REMARK   15  A    between atoms: C_33  and  C_35
REMARK   16  A    between atoms: C_33  and  O_36
REMARK                            x       y       z     vdW  Elec       q    Type
REMARK                         _______ _______ _______ _____ _____    ______ ____
ROOT
ATOM      1  C   LIG A   1     -10.474   6.086 132.533  0.00  0.00    +0.014 C 
ATOM      2  C   LIG A   1      -9.081   5.484 132.116  0.00  0.00    +0.006 C 
ATOM      3  C   LIG A   1      -8.254   5.071 133.374  0.00  0.00    +0.093 C 
ATOM      4  C   LIG A   1      -6.750   4.914 133.130  0.00  0.00    -0.031 C 
ATOM      5  C   LIG A   1      -6.035   3.867 133.585  0.00  0.00    +0.049 C 
ATOM      6  C   LIG A   1      -4.550   3.861 133.573  0.00  0.00    +0.160 C 
ATOM      7  C   LIG A   1      -3.855   5.172 133.249  0.00  0.00    +0.069 C 
ATOM      8  C   LIG A   1      -2.347   4.990 133.049  0.00  0.00    +0.045 C 
ATOM      9  C   LIG A   1      -1.659   6.331 132.799  0.00  0.00    +0.144 C 
ATOM     10  C   LIG A   1      -2.321   7.162 131.687  0.00  0.00    +0.144 C 
ATOM     11  C   LIG A   1      -3.846   7.233 131.814  0.00  0.00    +0.042 C 
ATOM     12  C   LIG A   1      -4.546   5.858 132.049  0.00  0.00    -0.013 C 
ATOM     13  C   LIG A   1      -4.396   4.982 130.771  0.00  0.00    +0.012 C 
ATOM     14  C   LIG A   1      -6.076   6.095 132.423  0.00  0.00    +0.025 C 
ATOM     15  C   LIG A   1      -6.883   6.526 131.187  0.00  0.00    +0.009 C 
ATOM     16  C   LIG A   1      -8.387   6.646 131.387  0.00  0.00    +0.011 C 
ATOM     17  O   LIG A   1      -3.954   2.858 133.949  0.00  0.00    -0.292 OA
ATOM     18  C   LIG A   1      -9.031   3.840 133.856  0.00  0.00    +0.040 C 
ATOM     19  C   LIG A   1      -9.426   3.091 132.585  0.00  0.00    +0.010 C 
ATOM     20  C   LIG A   1      -9.432   4.107 131.394  0.00  0.00    +0.032 C 
ENDROOT
BRANCH   9  21
ATOM     21  O   LIG A   1      -0.292   6.106 132.431  0.00  0.00    -0.389 OA
ATOM     22  H   LIG A   1       0.163   6.967 132.457  0.00  0.00    +0.210 HD
ENDBRANCH   9  21
BRANCH  10  23
ATOM     23  O   LIG A   1      -1.964   6.630 130.409  0.00  0.00    -0.389 OA
ATOM     24  H   LIG A   1      -1.387   7.314 130.010  0.00  0.00    +0.210 HD
ENDBRANCH  10  23
BRANCH  20  25
ATOM     25  C   LIG A   1      -8.667   3.535 130.152  0.00  0.00    +0.092 C 
ATOM     26  C   LIG A   1      -7.442   2.681 130.518  0.00  0.00    +0.044 C 
BRANCH  25  27
ATOM     27  O   LIG A   1      -9.575   2.704 129.419  0.00  0.00    -0.386 OA
ATOM     28  H   LIG A   1      -9.519   3.019 128.494  0.00  0.00    +0.210 HD
ENDBRANCH  25  27
BRANCH  25  29
ATOM     29  C   LIG A   1      -8.188   4.650 129.125  0.00  0.00    +0.146 C 
BRANCH  29  30
ATOM     30  O   LIG A   1      -9.378   5.138 128.467  0.00  0.00    -0.389 OA
ATOM     31  H   LIG A   1      -9.575   6.026 128.810  0.00  0.00    +0.210 HD
ENDBRANCH  29  30
BRANCH  29  32
ATOM     32  C   LIG A   1      -7.165   4.184 128.065  0.00  0.00    +0.037 C 
BRANCH  32  33
ATOM     33  C   LIG A   1      -7.817   3.480 126.856  0.00  0.00    +0.036 C 
BRANCH  33  34
ATOM     34  C   LIG A   1      -7.779   4.281 125.533  0.00  0.00    +0.061 C 
ATOM     35  C   LIG A   1      -6.432   5.001 125.394  0.00  0.00    +0.041 C 
ATOM     36  C   LIG A   1      -8.019   3.405 124.304  0.00  0.00    +0.041 C 
BRANCH  34  37
ATOM     37  O   LIG A   1      -8.811   5.270 125.554  0.00  0.00    -0.389 OA
ATOM     38  H   LIG A   1      -8.590   5.929 126.235  0.00  0.00    +0.210 HD
ENDBRANCH  34  37
ENDBRANCH  33  34
ENDBRANCH  32  33
ENDBRANCH  29  32
ENDBRANCH  25  29
ENDBRANCH  20  25
BRANCH   3  39
ATOM     39  O   LIG A   1      -8.355   6.085 134.380  0.00  0.00    -0.384 OA
ATOM     40  H   LIG A   1      -7.539   6.049 134.907  0.00  0.00    +0.211 HD
ENDBRANCH   3  39
TORSDOF 11
ENDMDL
MODEL 5
REMARK VINA RESULT:      -8.0      3.140      6.758
REMARK  Name = NuBBE_1227
REMARK  16 active torsions:
REMARK  status: ('A' for Active; 'I' for Inactive)
REMARK    1  A    between atoms: C_1  and  C_2
REMARK    2  A    between atoms: C_3  and  O_39
REMARK    3  A    between atoms: C_10  and  O_12
REMARK    4  A    between atoms: C_13  and  O_15
REMARK    5  A    between atoms: C_17  and  C_18
REMARK    6  A    between atoms: C_25  and  C_27
REMARK    7  A    between atoms: C_27  and  C_28
REMARK    8  A    between atoms: C_27  and  O_37
REMARK    9  A    between atoms: C_27  and  C_38
REMARK   10  A    between atoms: C_28  and  O_30
REMARK   11  A    between atoms: C_28  and  C_31
REMARK   12  A    between atoms: C_31  and  C_32
REMARK   13  A    between atoms: C_32  and  C_33
REMARK   14  A    between atoms: C_33  and  C_34
REMARK   15  A    between atoms: C_33  and  C_35
REMARK   16  A    between atoms: C_33  and  O_36
REMARK                            x       y       z     vdW  Elec       q    Type
REMARK                         _______ _______ _______ _____ _____    ______ ____
ROOT
ATOM      1  C   LIG A   1      -3.466  -2.251 131.566  0.00  0.00    +0.014 C 
ATOM      2  C   LIG A   1      -4.836  -1.938 130.856  0.00  0.00    +0.006 C 
ATOM      3  C   LIG A   1      -5.477  -3.240 130.282  0.00  0.00    +0.093 C 
ATOM      4  C   LIG A   1      -6.538  -3.012 129.201  0.00  0.00    -0.031 C 
ATOM      5  C   LIG A   1      -7.725  -3.647 129.188  0.00  0.00    +0.049 C 
ATOM      6  C   LIG A   1      -8.623  -3.618 128.005  0.00  0.00    +0.160 C 
ATOM      7  C   LIG A   1      -8.054  -3.043 126.719  0.00  0.00    +0.069 C 
ATOM      8  C   LIG A   1      -9.131  -2.863 125.644  0.00  0.00    +0.045 C 
ATOM      9  C   LIG A   1      -8.525  -2.355 124.337  0.00  0.00    +0.144 C 
ATOM     10  C   LIG A   1      -7.633  -1.114 124.516  0.00  0.00    +0.144 C 
ATOM     11  C   LIG A   1      -6.644  -1.244 125.678  0.00  0.00    +0.042 C 
ATOM     12  C   LIG A   1      -7.272  -1.744 127.017  0.00  0.00    -0.013 C 
ATOM     13  C   LIG A   1      -8.235  -0.653 127.569  0.00  0.00    +0.012 C 
ATOM     14  C   LIG A   1      -6.114  -2.085 128.055  0.00  0.00    +0.025 C 
ATOM     15  C   LIG A   1      -5.469  -0.800 128.600  0.00  0.00    +0.009 C 
ATOM     16  C   LIG A   1      -4.443  -0.993 129.708  0.00  0.00    +0.011 C 
ATOM     17  O   LIG A   1      -9.715  -4.169 128.071  0.00  0.00    -0.292 OA
ATOM     18  C   LIG A   1      -5.909  -3.956 131.567  0.00  0.00    +0.040 C 
ATOM     19  C   LIG A   1      -6.445  -2.855 132.480  0.00  0.00    +0.010 C 
ATOM     20  C   LIG A   1      -5.813  -1.493 132.034  0.00  0.00    +0.032 C 
ENDROOT
BRANCH   9  21
ATOM     21  O   LIG A   1      -9.575  -2.019 123.421  0.00  0.00    -0.389 OA
ATOM     22  H   LIG A   1      -9.549  -1.054 123.289  0.00  0.00    +0.210 HD
ENDBRANCH   9  21
BRANCH  10  23
ATOM     23  O   LIG A   1      -8.450   0.045 124.700  0.00  0.00    -0.389 OA
ATOM     24  H   LIG A   1      -9.089   0.016 123.959  0.00  0.00    +0.210 HD
ENDBRANCH  10  23
BRANCH  20  25
ATOM     25  C   LIG A   1      -6.901  -0.372 131.912  0.00  0.00    +0.092 C 
ATOM     26  C   LIG A   1      -8.140  -0.796 131.106  0.00  0.00    +0.044 C 
BRANCH  25  27
ATOM     27  O   LIG A   1      -7.336  -0.033 133.234  0.00  0.00    -0.386 OA
ATOM     28  H   LIG A   1      -7.478   0.936 133.215  0.00  0.00    +0.210 HD
ENDBRANCH  25  27
BRANCH  25  29
ATOM     29  C   LIG A   1      -6.357   0.983 131.282  0.00  0.00    +0.146 C 
BRANCH  29  30
ATOM     30  O   LIG A   1      -5.687   1.689 132.350  0.00  0.00    -0.389 OA
ATOM     31  H   LIG A   1      -6.187   1.548 133.171  0.00  0.00    +0.210 HD
ENDBRANCH  29  30
BRANCH  29  32
ATOM     32  C   LIG A   1      -7.426   1.899 130.647  0.00  0.00    +0.037 C 
BRANCH  32  33
ATOM     33  C   LIG A   1      -7.678   3.192 131.451  0.00  0.00    +0.036 C 
BRANCH  33  34
ATOM     34  C   LIG A   1      -8.797   3.095 132.515  0.00  0.00    +0.061 C 
ATOM     35  C   LIG A   1      -9.361   4.491 132.811  0.00  0.00    +0.041 C 
ATOM     36  C   LIG A   1      -9.933   2.164 132.094  0.00  0.00    +0.041 C 
BRANCH  34  37
ATOM     37  O   LIG A   1      -8.249   2.573 133.727  0.00  0.00    -0.389 OA
ATOM     38  H   LIG A   1      -8.641   1.697 133.889  0.00  0.00    +0.210 HD
ENDBRANCH  34  37
ENDBRANCH  33  34
ENDBRANCH  32  33
ENDBRANCH  29  32
ENDBRANCH  25  29
ENDBRANCH  20  25
BRANCH   3  39
ATOM     39  O   LIG A   1      -4.473  -4.038 129.643  0.00  0.00    -0.384 OA
ATOM     40  H   LIG A   1      -3.610  -3.693 129.924  0.00  0.00    +0.211 HD
ENDBRANCH   3  39
TORSDOF 11
ENDMDL
MODEL 6
REMARK VINA RESULT:      -8.0      3.683      7.365
REMARK  Name = NuBBE_1227
REMARK  16 active torsions:
REMARK  status: ('A' for Active; 'I' for Inactive)
REMARK    1  A    between atoms: C_1  and  C_2
REMARK    2  A    between atoms: C_3  and  O_39
REMARK    3  A    between atoms: C_10  and  O_12
REMARK    4  A    between atoms: C_13  and  O_15
REMARK    5  A    between atoms: C_17  and  C_18
REMARK    6  A    between atoms: C_25  and  C_27
REMARK    7  A    between atoms: C_27  and  C_28
REMARK    8  A    between atoms: C_27  and  O_37
REMARK    9  A    between atoms: C_27  and  C_38
REMARK   10  A    between atoms: C_28  and  O_30
REMARK   11  A    between atoms: C_28  and  C_31
REMARK   12  A    between atoms: C_31  and  C_32
REMARK   13  A    between atoms: C_32  and  C_33
REMARK   14  A    between atoms: C_33  and  C_34
REMARK   15  A    between atoms: C_33  and  C_35
REMARK   16  A    between atoms: C_33  and  O_36
REMARK                            x       y       z     vdW  Elec       q    Type
REMARK                         _______ _______ _______ _____ _____    ______ ____
ROOT
ATOM      1  C   LIG A   1      -4.118   4.026 126.665  0.00  0.00    +0.014 C 
ATOM      2  C   LIG A   1      -5.471   3.221 126.632  0.00  0.00    +0.006 C 
ATOM      3  C   LIG A   1      -5.252   1.745 127.090  0.00  0.00    +0.093 C 
ATOM      4  C   LIG A   1      -6.358   0.772 126.669  0.00  0.00    -0.031 C 
ATOM      5  C   LIG A   1      -6.904  -0.131 127.506  0.00  0.00    +0.049 C 
ATOM      6  C   LIG A   1      -7.772  -1.234 127.021  0.00  0.00    +0.160 C 
ATOM      7  C   LIG A   1      -7.835  -1.455 125.519  0.00  0.00    +0.069 C 
ATOM      8  C   LIG A   1      -8.923  -2.462 125.132  0.00  0.00    +0.045 C 
ATOM      9  C   LIG A   1      -8.919  -2.725 123.627  0.00  0.00    +0.144 C 
ATOM     10  C   LIG A   1      -8.951  -1.442 122.779  0.00  0.00    +0.144 C 
ATOM     11  C   LIG A   1      -7.952  -0.381 123.252  0.00  0.00    +0.042 C 
ATOM     12  C   LIG A   1      -7.976  -0.101 124.788  0.00  0.00    -0.013 C 
ATOM     13  C   LIG A   1      -9.326   0.576 125.164  0.00  0.00    +0.012 C 
ATOM     14  C   LIG A   1      -6.731   0.811 125.182  0.00  0.00    +0.025 C 
ATOM     15  C   LIG A   1      -6.939   2.259 124.708  0.00  0.00    +0.009 C 
ATOM     16  C   LIG A   1      -5.879   3.258 125.150  0.00  0.00    +0.011 C 
ATOM     17  O   LIG A   1      -8.285  -1.991 127.835  0.00  0.00    -0.292 OA
ATOM     18  C   LIG A   1      -4.997   1.929 128.590  0.00  0.00    +0.040 C 
ATOM     19  C   LIG A   1      -5.973   3.016 129.034  0.00  0.00    +0.010 C 
ATOM     20  C   LIG A   1      -6.361   3.873 127.782  0.00  0.00    +0.032 C 
ENDROOT
BRANCH   9  21
ATOM     21  O   LIG A   1     -10.060  -3.518 123.277  0.00  0.00    -0.389 OA
ATOM     22  H   LIG A   1     -10.805  -3.216 123.827  0.00  0.00    +0.210 HD
ENDBRANCH   9  21
BRANCH  10  23
ATOM     23  O   LIG A   1     -10.274  -0.898 122.779  0.00  0.00    -0.389 OA
ATOM     24  H   LIG A   1     -10.733  -1.367 122.052  0.00  0.00    +0.210 HD
ENDBRANCH  10  23
BRANCH  20  25
ATOM     25  C   LIG A   1      -7.911   4.086 127.694  0.00  0.00    +0.092 C 
ATOM     26  C   LIG A   1      -8.355   4.914 126.476  0.00  0.00    +0.044 C 
BRANCH  25  27
ATOM     27  O   LIG A   1      -8.528   2.797 127.593  0.00  0.00    -0.386 OA
ATOM     28  H   LIG A   1      -9.480   2.980 127.451  0.00  0.00    +0.210 HD
ENDBRANCH  25  27
BRANCH  25  29
ATOM     29  C   LIG A   1      -8.540   4.759 128.990  0.00  0.00    +0.146 C 
BRANCH  29  30
ATOM     30  O   LIG A   1      -9.426   3.777 129.570  0.00  0.00    -0.389 OA
ATOM     31  H   LIG A   1      -9.183   2.902 129.223  0.00  0.00    +0.210 HD
ENDBRANCH  29  30
BRANCH  29  32
ATOM     32  C   LIG A   1      -9.313   6.074 128.748  0.00  0.00    +0.037 C 
BRANCH  32  33
ATOM     33  C   LIG A   1      -9.876   6.698 130.043  0.00  0.00    +0.036 C 
BRANCH  33  34
ATOM     34  C   LIG A   1     -11.420   6.726 130.138  0.00  0.00    +0.061 C 
ATOM     35  C   LIG A   1     -11.858   6.600 131.603  0.00  0.00    +0.041 C 
ATOM     36  C   LIG A   1     -12.028   7.990 129.531  0.00  0.00    +0.041 C 
BRANCH  34  37
ATOM     37  O   LIG A   1     -11.955   5.612 129.419  0.00  0.00    -0.389 OA
ATOM     38  H   LIG A   1     -11.696   5.697 128.485  0.00  0.00    +0.210 HD
ENDBRANCH  34  37
ENDBRANCH  33  34
ENDBRANCH  32  33
ENDBRANCH  29  32
ENDBRANCH  25  29
ENDBRANCH  20  25
BRANCH   3  39
ATOM     39  O   LIG A   1      -4.060   1.220 126.495  0.00  0.00    -0.384 OA
ATOM     40  H   LIG A   1      -3.917   0.336 126.870  0.00  0.00    +0.211 HD
ENDBRANCH   3  39
TORSDOF 11
ENDMDL
MODEL 7
REMARK VINA RESULT:      -7.9      6.553      9.912
REMARK  Name = NuBBE_1227
REMARK  16 active torsions:
REMARK  status: ('A' for Active; 'I' for Inactive)
REMARK    1  A    between atoms: C_1  and  C_2
REMARK    2  A    between atoms: C_3  and  O_39
REMARK    3  A    between atoms: C_10  and  O_12
REMARK    4  A    between atoms: C_13  and  O_15
REMARK    5  A    between atoms: C_17  and  C_18
REMARK    6  A    between atoms: C_25  and  C_27
REMARK    7  A    between atoms: C_27  and  C_28
REMARK    8  A    between atoms: C_27  and  O_37
REMARK    9  A    between atoms: C_27  and  C_38
REMARK   10  A    between atoms: C_28  and  O_30
REMARK   11  A    between atoms: C_28  and  C_31
REMARK   12  A    between atoms: C_31  and  C_32
REMARK   13  A    between atoms: C_32  and  C_33
REMARK   14  A    between atoms: C_33  and  C_34
REMARK   15  A    between atoms: C_33  and  C_35
REMARK   16  A    between atoms: C_33  and  O_36
REMARK                            x       y       z     vdW  Elec       q    Type
REMARK                         _______ _______ _______ _____ _____    ______ ____
ROOT
ATOM      1  C   LIG A   1      -9.556   2.021 132.421  0.00  0.00    +0.014 C 
ATOM      2  C   LIG A   1      -8.530   3.131 131.980  0.00  0.00    +0.006 C 
ATOM      3  C   LIG A   1      -7.332   2.503 131.202  0.00  0.00    +0.093 C 
ATOM      4  C   LIG A   1      -6.081   3.384 131.132  0.00  0.00    -0.031 C 
ATOM      5  C   LIG A   1      -5.381   3.582 129.998  0.00  0.00    +0.049 C 
ATOM      6  C   LIG A   1      -4.036   4.212 129.999  0.00  0.00    +0.160 C 
ATOM      7  C   LIG A   1      -3.368   4.414 131.348  0.00  0.00    +0.069 C 
ATOM      8  C   LIG A   1      -2.099   5.266 131.240  0.00  0.00    +0.045 C 
ATOM      9  C   LIG A   1      -1.404   5.393 132.595  0.00  0.00    +0.144 C 
ATOM     10  C   LIG A   1      -2.343   5.846 133.726  0.00  0.00    +0.144 C 
ATOM     11  C   LIG A   1      -3.671   5.081 133.751  0.00  0.00    +0.042 C 
ATOM     12  C   LIG A   1      -4.387   4.973 132.368  0.00  0.00    -0.013 C 
ATOM     13  C   LIG A   1      -4.868   6.386 131.928  0.00  0.00    +0.012 C 
ATOM     14  C   LIG A   1      -5.600   3.945 132.475  0.00  0.00    +0.025 C 
ATOM     15  C   LIG A   1      -6.770   4.558 133.263  0.00  0.00    +0.009 C 
ATOM     16  C   LIG A   1      -8.042   3.725 133.312  0.00  0.00    +0.011 C 
ATOM     17  O   LIG A   1      -3.472   4.416 128.931  0.00  0.00    -0.292 OA
ATOM     18  C   LIG A   1      -8.001   2.108 129.881  0.00  0.00    +0.040 C 
ATOM     19  C   LIG A   1      -8.959   3.252 129.558  0.00  0.00    +0.010 C 
ATOM     20  C   LIG A   1      -9.309   3.996 130.891  0.00  0.00    +0.032 C 
ENDROOT
BRANCH   9  21
ATOM     21  O   LIG A   1      -0.336   6.343 132.497  0.00  0.00    -0.389 OA
ATOM     22  H   LIG A   1      -0.457   6.993 133.213  0.00  0.00    +0.210 HD
ENDBRANCH   9  21
BRANCH  10  23
ATOM     23  O   LIG A   1      -2.593   7.249 133.613  0.00  0.00    -0.389 OA
ATOM     24  H   LIG A   1      -3.518   7.360 133.916  0.00  0.00    +0.210 HD
ENDBRANCH  10  23
BRANCH  20  25
ATOM     25  C   LIG A   1      -9.179   5.549 130.730  0.00  0.00    +0.092 C 
ATOM     26  C   LIG A   1      -9.485   6.333 132.017  0.00  0.00    +0.044 C 
BRANCH  25  27
ATOM     27  O   LIG A   1      -7.828   5.841 130.352  0.00  0.00    -0.386 OA
ATOM     28  H   LIG A   1      -7.290   5.617 131.139  0.00  0.00    +0.210 HD
ENDBRANCH  25  27
BRANCH  25  29
ATOM     29  C   LIG A   1     -10.085   6.151 129.571  0.00  0.00    +0.146 C 
BRANCH  29  30
ATOM     30  O   LIG A   1      -9.467   7.395 129.174  0.00  0.00    -0.389 OA
ATOM     31  H   LIG A   1      -8.619   7.193 128.745  0.00  0.00    +0.210 HD
ENDBRANCH  29  30
BRANCH  29  32
ATOM     32  C   LIG A   1     -11.563   6.404 129.945  0.00  0.00    +0.037 C 
BRANCH  32  33
ATOM     33  C   LIG A   1     -11.954   7.897 129.914  0.00  0.00    +0.036 C 
BRANCH  33  34
ATOM     34  C   LIG A   1     -12.598   8.378 128.593  0.00  0.00    +0.061 C 
ATOM     35  C   LIG A   1     -13.479   7.269 128.004  0.00  0.00    +0.041 C 
ATOM     36  C   LIG A   1     -13.428   9.649 128.768  0.00  0.00    +0.041 C 
BRANCH  34  37
ATOM     37  O   LIG A   1     -11.567   8.674 127.648  0.00  0.00    -0.389 OA
ATOM     38  H   LIG A   1     -11.960   8.688 126.759  0.00  0.00    +0.210 HD
ENDBRANCH  34  37
ENDBRANCH  33  34
ENDBRANCH  32  33
ENDBRANCH  29  32
ENDBRANCH  25  29
ENDBRANCH  20  25
BRANCH   3  39
ATOM     39  O   LIG A   1      -6.896   1.307 131.858  0.00  0.00    -0.384 OA
ATOM     40  H   LIG A   1      -6.511   0.730 131.178  0.00  0.00    +0.211 HD
ENDBRANCH   3  39
TORSDOF 11
ENDMDL
MODEL 8
REMARK VINA RESULT:      -7.7      6.677      9.594
REMARK  Name = NuBBE_1227
REMARK  16 active torsions:
REMARK  status: ('A' for Active; 'I' for Inactive)
REMARK    1  A    between atoms: C_1  and  C_2
REMARK    2  A    between atoms: C_3  and  O_39
REMARK    3  A    between atoms: C_10  and  O_12
REMARK    4  A    between atoms: C_13  and  O_15
REMARK    5  A    between atoms: C_17  and  C_18
REMARK    6  A    between atoms: C_25  and  C_27
REMARK    7  A    between atoms: C_27  and  C_28
REMARK    8  A    between atoms: C_27  and  O_37
REMARK    9  A    between atoms: C_27  and  C_38
REMARK   10  A    between atoms: C_28  and  O_30
REMARK   11  A    between atoms: C_28  and  C_31
REMARK   12  A    between atoms: C_31  and  C_32
REMARK   13  A    between atoms: C_32  and  C_33
REMARK   14  A    between atoms: C_33  and  C_34
REMARK   15  A    between atoms: C_33  and  C_35
REMARK   16  A    between atoms: C_33  and  O_36
REMARK                            x       y       z     vdW  Elec       q    Type
REMARK                         _______ _______ _______ _____ _____    ______ ____
ROOT
ATOM      1  C   LIG A   1      -7.302   1.513 130.954  0.00  0.00    +0.014 C 
ATOM      2  C   LIG A   1      -7.733   3.022 131.078  0.00  0.00    +0.006 C 
ATOM      3  C   LIG A   1      -9.225   3.140 131.520  0.00  0.00    +0.093 C 
ATOM      4  C   LIG A   1      -9.874   4.497 131.231  0.00  0.00    -0.031 C 
ATOM      5  C   LIG A   1     -10.625   5.162 132.131  0.00  0.00    +0.049 C 
ATOM      6  C   LIG A   1     -11.459   6.331 131.754  0.00  0.00    +0.160 C 
ATOM      7  C   LIG A   1     -11.624   6.613 130.271  0.00  0.00    +0.069 C 
ATOM      8  C   LIG A   1     -12.311   7.959 130.014  0.00  0.00    +0.045 C 
ATOM      9  C   LIG A   1     -12.535   8.187 128.520  0.00  0.00    +0.144 C 
ATOM     10  C   LIG A   1     -11.268   7.983 127.672  0.00  0.00    +0.144 C 
ATOM     11  C   LIG A   1     -10.508   6.699 128.023  0.00  0.00    +0.042 C 
ATOM     12  C   LIG A   1     -10.264   6.481 129.549  0.00  0.00    -0.013 C 
ATOM     13  C   LIG A   1      -9.273   7.563 130.069  0.00  0.00    +0.012 C 
ATOM     14  C   LIG A   1      -9.709   5.009 129.795  0.00  0.00    +0.025 C 
ATOM     15  C   LIG A   1      -8.247   4.889 129.336  0.00  0.00    +0.009 C 
ATOM     16  C   LIG A   1      -7.561   3.567 129.650  0.00  0.00    +0.011 C 
ATOM     17  O   LIG A   1     -12.078   6.929 132.626  0.00  0.00    -0.292 OA
ATOM     18  C   LIG A   1      -9.145   2.683 132.981  0.00  0.00    +0.040 C 
ATOM     19  C   LIG A   1      -7.854   3.293 133.523  0.00  0.00    +0.010 C 
ATOM     20  C   LIG A   1      -6.900   3.584 132.315  0.00  0.00    +0.032 C 
ENDROOT
BRANCH   9  21
ATOM     21  O   LIG A   1     -13.002   9.525 128.305  0.00  0.00    -0.389 OA
ATOM     22  H   LIG A   1     -13.304   9.870 129.165  0.00  0.00    +0.210 HD
ENDBRANCH   9  21
BRANCH  10  23
ATOM     23  O   LIG A   1     -10.404   9.113 127.815  0.00  0.00    -0.389 OA
ATOM     24  H   LIG A   1      -9.695   8.966 127.155  0.00  0.00    +0.210 HD
ENDBRANCH  10  23
BRANCH  20  25
ATOM     25  C   LIG A   1      -6.296   5.027 132.399  0.00  0.00    +0.092 C 
ATOM     26  C   LIG A   1      -7.351   6.130 132.590  0.00  0.00    +0.044 C 
BRANCH  25  27
ATOM     27  O   LIG A   1      -5.412   5.071 133.525  0.00  0.00    -0.386 OA
ATOM     28  H   LIG A   1      -5.180   6.017 133.631  0.00  0.00    +0.210 HD
ENDBRANCH  25  27
BRANCH  25  29
ATOM     29  C   LIG A   1      -5.407   5.423 131.142  0.00  0.00    +0.146 C 
BRANCH  29  30
ATOM     30  O   LIG A   1      -4.355   4.437 131.060  0.00  0.00    -0.389 OA
ATOM     31  H   LIG A   1      -4.395   4.018 130.184  0.00  0.00    +0.210 HD
ENDBRANCH  29  30
BRANCH  29  32
ATOM     32  C   LIG A   1      -4.788   6.838 131.184  0.00  0.00    +0.037 C 
BRANCH  32  33
ATOM     33  C   LIG A   1      -3.272   6.850 130.889  0.00  0.00    +0.036 C 
BRANCH  33  34
ATOM     34  C   LIG A   1      -2.366   7.060 132.125  0.00  0.00    +0.061 C 
ATOM     35  C   LIG A   1      -0.919   6.681 131.786  0.00  0.00    +0.041 C 
ATOM     36  C   LIG A   1      -2.408   8.494 132.652  0.00  0.00    +0.041 C 
BRANCH  34  37
ATOM     37  O   LIG A   1      -2.810   6.208 133.183  0.00  0.00    -0.389 OA
ATOM     38  H   LIG A   1      -2.166   5.487 133.288  0.00  0.00    +0.210 HD
ENDBRANCH  34  37
ENDBRANCH  33  34
ENDBRANCH  32  33
ENDBRANCH  29  32
ENDBRANCH  25  29
ENDBRANCH  20  25
BRANCH   3  39
ATOM     39  O   LIG A   1     -10.025   2.195 130.799  0.00  0.00    -0.384 OA
ATOM     40  H   LIG A   1      -9.517   1.928 130.015  0.00  0.00    +0.211 HD
ENDBRANCH   3  39
TORSDOF 11
ENDMDL
MODEL 9
REMARK VINA RESULT:      -7.6      3.369      6.844
REMARK  Name = NuBBE_1227
REMARK  16 active torsions:
REMARK  status: ('A' for Active; 'I' for Inactive)
REMARK    1  A    between atoms: C_1  and  C_2
REMARK    2  A    between atoms: C_3  and  O_39
REMARK    3  A    between atoms: C_10  and  O_12
REMARK    4  A    between atoms: C_13  and  O_15
REMARK    5  A    between atoms: C_17  and  C_18
REMARK    6  A    between atoms: C_25  and  C_27
REMARK    7  A    between atoms: C_27  and  C_28
REMARK    8  A    between atoms: C_27  and  O_37
REMARK    9  A    between atoms: C_27  and  C_38
REMARK   10  A    between atoms: C_28  and  O_30
REMARK   11  A    between atoms: C_28  and  C_31
REMARK   12  A    between atoms: C_31  and  C_32
REMARK   13  A    between atoms: C_32  and  C_33
REMARK   14  A    between atoms: C_33  and  C_34
REMARK   15  A    between atoms: C_33  and  C_35
REMARK   16  A    between atoms: C_33  and  O_36
REMARK                            x       y       z     vdW  Elec       q    Type
REMARK                         _______ _______ _______ _____ _____    ______ ____
ROOT
ATOM      1  C   LIG A   1      -5.725  -4.563 130.694  0.00  0.00    +0.014 C 
ATOM      2  C   LIG A   1      -6.059  -3.075 130.302  0.00  0.00    +0.006 C 
ATOM      3  C   LIG A   1      -5.256  -2.073 131.189  0.00  0.00    +0.093 C 
ATOM      4  C   LIG A   1      -5.823  -0.650 131.224  0.00  0.00    -0.031 C 
ATOM      5  C   LIG A   1      -5.059   0.451 131.087  0.00  0.00    +0.049 C 
ATOM      6  C   LIG A   1      -5.575   1.811 131.387  0.00  0.00    +0.160 C 
ATOM      7  C   LIG A   1      -6.922   1.903 132.082  0.00  0.00    +0.069 C 
ATOM      8  C   LIG A   1      -7.445   3.342 132.136  0.00  0.00    +0.045 C 
ATOM      9  C   LIG A   1      -8.763   3.420 132.904  0.00  0.00    +0.144 C 
ATOM     10  C   LIG A   1      -9.818   2.411 132.418  0.00  0.00    +0.144 C 
ATOM     11  C   LIG A   1      -9.259   0.996 132.237  0.00  0.00    +0.042 C 
ATOM     12  C   LIG A   1      -7.923   0.919 131.433  0.00  0.00    -0.013 C 
ATOM     13  C   LIG A   1      -8.191   1.323 129.954  0.00  0.00    +0.012 C 
ATOM     14  C   LIG A   1      -7.319  -0.550 131.542  0.00  0.00    +0.025 C 
ATOM     15  C   LIG A   1      -8.128  -1.540 130.687  0.00  0.00    +0.009 C 
ATOM     16  C   LIG A   1      -7.564  -2.951 130.596  0.00  0.00    +0.011 C 
ATOM     17  O   LIG A   1      -4.851   2.780 131.192  0.00  0.00    -0.292 OA
ATOM     18  C   LIG A   1      -3.834  -2.261 130.647  0.00  0.00    +0.040 C 
ATOM     19  C   LIG A   1      -3.996  -2.406 129.135  0.00  0.00    +0.010 C 
ATOM     20  C   LIG A   1      -5.455  -2.894 128.839  0.00  0.00    +0.032 C 
ENDROOT
BRANCH   9  21
ATOM     21  O   LIG A   1      -9.316   4.737 132.774  0.00  0.00    -0.389 OA
ATOM     22  H   LIG A   1      -8.953   5.278 133.498  0.00  0.00    +0.210 HD
ENDBRANCH   9  21
BRANCH  10  23
ATOM     23  O   LIG A   1     -10.393   2.867 131.191  0.00  0.00    -0.389 OA
ATOM     24  H   LIG A   1     -10.984   3.602 131.455  0.00  0.00    +0.210 HD
ENDBRANCH  10  23
BRANCH  20  25
ATOM     25  C   LIG A   1      -6.120  -2.046 127.701  0.00  0.00    +0.092 C 
ATOM     26  C   LIG A   1      -5.810  -0.542 127.786  0.00  0.00    +0.044 C 
BRANCH  25  27
ATOM     27  O   LIG A   1      -5.621  -2.524 126.446  0.00  0.00    -0.386 OA
ATOM     28  H   LIG A   1      -5.222  -1.740 126.015  0.00  0.00    +0.210 HD
ENDBRANCH  25  27
BRANCH  25  29
ATOM     29  C   LIG A   1      -7.699  -2.209 127.621  0.00  0.00    +0.146 C 
BRANCH  29  30
ATOM     30  O   LIG A   1      -7.956  -3.620 127.445  0.00  0.00    -0.389 OA
ATOM     31  H   LIG A   1      -8.869  -3.802 127.722  0.00  0.00    +0.210 HD
ENDBRANCH  29  30
BRANCH  29  32
ATOM     32  C   LIG A   1      -8.395  -1.412 126.495  0.00  0.00    +0.037 C 
BRANCH  32  33
ATOM     33  C   LIG A   1      -9.221  -2.300 125.539  0.00  0.00    +0.036 C 
BRANCH  33  34
ATOM     34  C   LIG A   1      -8.500  -2.699 124.230  0.00  0.00    +0.061 C 
ATOM     35  C   LIG A   1      -9.521  -3.202 123.202  0.00  0.00    +0.041 C 
ATOM     36  C   LIG A   1      -7.690  -1.552 123.626  0.00  0.00    +0.041 C 
BRANCH  34  37
ATOM     37  O   LIG A   1      -7.586  -3.764 124.503  0.00  0.00    -0.389 OA
ATOM     38  H   LIG A   1      -7.197  -4.058 123.662  0.00  0.00    +0.210 HD
ENDBRANCH  34  37
ENDBRANCH  33  34
ENDBRANCH  32  33
ENDBRANCH  29  32
ENDBRANCH  25  29
ENDBRANCH  20  25
BRANCH   3  39
ATOM     39  O   LIG A   1      -5.274  -2.504 132.554  0.00  0.00    -0.384 OA
ATOM     40  H   LIG A   1      -5.302  -3.475 132.549  0.00  0.00    +0.211 HD
ENDBRANCH   3  39
TORSDOF 11
ENDMDL
