MODEL 1
REMARK VINA RESULT:      -7.6      0.000      0.000
REMARK  Name = NuBBE_2355
REMARK  7 active torsions:
REMARK  status: ('A' for Active; 'I' for Inactive)
REMARK    1  A    between atoms: C_1  and  C_2
REMARK    2  A    between atoms: C_10  and  C_11
REMARK    3  A    between atoms: C_11  and  C_12
REMARK    4  A    between atoms: C_11  and  O_13
REMARK    5  A    between atoms: C_11  and  C_14
REMARK    6  A    between atoms: C_16  and  C_17
REMARK    7  A    between atoms: C_16  and  C_18
REMARK                            x       y       z     vdW  Elec       q    Type
REMARK                         _______ _______ _______ _____ _____    ______ ____
ROOT
ATOM      1  C   LIG A   1      -6.633  -0.251 125.871  0.00  0.00    +0.016 C 
ATOM      2  C   LIG A   1      -6.603  -1.795 125.766  0.00  0.00    -0.007 C 
ATOM      3  C   LIG A   1      -7.917  -2.389 125.138  0.00  0.00    +0.005 C 
ATOM      4  C   LIG A   1      -9.114  -2.220 126.086  0.00  0.00    +0.009 C 
ATOM      5  C   LIG A   1      -8.866  -2.973 127.392  0.00  0.00    +0.031 C 
ATOM      6  C   LIG A   1      -7.456  -2.863 127.910  0.00  0.00    -0.069 C 
ATOM      7  C   LIG A   1      -6.441  -2.320 127.209  0.00  0.00    -0.064 C 
ATOM      8  C   LIG A   1      -5.082  -2.226 127.872  0.00  0.00    +0.031 C 
ATOM      9  C   LIG A   1      -5.224  -1.829 129.339  0.00  0.00    +0.011 C 
ATOM     10  C   LIG A   1      -6.156  -2.763 130.144  0.00  0.00    +0.024 C 
ATOM     11  C   LIG A   1      -7.216  -3.473 129.270  0.00  0.00    +0.037 C 
ATOM     12  C   LIG A   1      -8.200  -1.974 123.650  0.00  0.00    -0.031 C 
ATOM     13  C   LIG A   1      -9.052  -3.090 122.988  0.00  0.00    +0.011 C 
ATOM     14  C   LIG A   1      -9.007  -0.668 123.497  0.00  0.00    +0.011 C 
ATOM     15  C   LIG A   1      -6.873  -1.839 122.860  0.00  0.00    +0.007 C 
ATOM     16  C   LIG A   1      -5.751  -2.674 123.463  0.00  0.00    +0.001 C 
ATOM     17  C   LIG A   1      -5.390  -2.220 124.880  0.00  0.00    +0.011 C 
ENDROOT
BRANCH  10  18
ATOM     18  C   LIG A   1      -6.762  -2.050 131.395  0.00  0.00    +0.064 C 
ATOM     19  C   LIG A   1      -7.300  -3.061 132.418  0.00  0.00    +0.041 C 
ATOM     20  C   LIG A   1      -7.866  -1.044 131.047  0.00  0.00    +0.041 C 
BRANCH  18  21
ATOM     21  O   LIG A   1      -5.724  -1.314 132.056  0.00  0.00    -0.389 OA
ATOM     22  H   LIG A   1      -6.120  -0.854 132.816  0.00  0.00    +0.210 HD
ENDBRANCH  18  21
ENDBRANCH  10  18
TORSDOF 2
ENDMDL
MODEL 2
REMARK VINA RESULT:      -7.4      1.307      2.800
REMARK  Name = NuBBE_2355
REMARK  7 active torsions:
REMARK  status: ('A' for Active; 'I' for Inactive)
REMARK    1  A    between atoms: C_1  and  C_2
REMARK    2  A    between atoms: C_10  and  C_11
REMARK    3  A    between atoms: C_11  and  C_12
REMARK    4  A    between atoms: C_11  and  O_13
REMARK    5  A    between atoms: C_11  and  C_14
REMARK    6  A    between atoms: C_16  and  C_17
REMARK    7  A    between atoms: C_16  and  C_18
REMARK                            x       y       z     vdW  Elec       q    Type
REMARK                         _______ _______ _______ _____ _____    ______ ____
ROOT
ATOM      1  C   LIG A   1      -6.967  -4.051 125.051  0.00  0.00    +0.016 C 
ATOM      2  C   LIG A   1      -7.791  -2.764 125.294  0.00  0.00    -0.007 C 
ATOM      3  C   LIG A   1      -7.121  -1.484 124.674  0.00  0.00    +0.005 C 
ATOM      4  C   LIG A   1      -5.834  -1.109 125.425  0.00  0.00    +0.009 C 
ATOM      5  C   LIG A   1      -6.147  -0.784 126.884  0.00  0.00    +0.031 C 
ATOM      6  C   LIG A   1      -7.166  -1.697 127.515  0.00  0.00    -0.069 C 
ATOM      7  C   LIG A   1      -7.889  -2.601 126.827  0.00  0.00    -0.064 C 
ATOM      8  C   LIG A   1      -8.842  -3.492 127.597  0.00  0.00    +0.031 C 
ATOM      9  C   LIG A   1      -8.216  -3.940 128.915  0.00  0.00    +0.011 C 
ATOM     10  C   LIG A   1      -7.736  -2.767 129.800  0.00  0.00    +0.024 C 
ATOM     11  C   LIG A   1      -7.389  -1.493 128.995  0.00  0.00    +0.037 C 
ATOM     12  C   LIG A   1      -6.986  -1.484 123.109  0.00  0.00    -0.031 C 
ATOM     13  C   LIG A   1      -6.973  -0.011 122.622  0.00  0.00    +0.011 C 
ATOM     14  C   LIG A   1      -5.684  -2.124 122.583  0.00  0.00    +0.011 C 
ATOM     15  C   LIG A   1      -8.196  -2.203 122.459  0.00  0.00    +0.007 C 
ATOM     16  C   LIG A   1      -9.431  -2.184 123.350  0.00  0.00    +0.001 C 
ATOM     17  C   LIG A   1      -9.208  -2.942 124.662  0.00  0.00    +0.011 C 
ENDROOT
BRANCH  10  18
ATOM     18  C   LIG A   1      -6.608  -3.202 130.788  0.00  0.00    +0.064 C 
ATOM     19  C   LIG A   1      -5.988  -4.548 130.384  0.00  0.00    +0.041 C 
ATOM     20  C   LIG A   1      -7.073  -3.275 132.248  0.00  0.00    +0.041 C 
BRANCH  18  21
ATOM     21  O   LIG A   1      -5.551  -2.234 130.738  0.00  0.00    -0.389 OA
ATOM     22  H   LIG A   1      -5.584  -1.797 129.870  0.00  0.00    +0.210 HD
ENDBRANCH  18  21
ENDBRANCH  10  18
TORSDOF 2
ENDMDL
MODEL 3
REMARK VINA RESULT:      -7.3      3.668      5.946
REMARK  Name = NuBBE_2355
REMARK  7 active torsions:
REMARK  status: ('A' for Active; 'I' for Inactive)
REMARK    1  A    between atoms: C_1  and  C_2
REMARK    2  A    between atoms: C_10  and  C_11
REMARK    3  A    between atoms: C_11  and  C_12
REMARK    4  A    between atoms: C_11  and  O_13
REMARK    5  A    between atoms: C_11  and  C_14
REMARK    6  A    between atoms: C_16  and  C_17
REMARK    7  A    between atoms: C_16  and  C_18
REMARK                            x       y       z     vdW  Elec       q    Type
REMARK                         _______ _______ _______ _____ _____    ______ ____
ROOT
ATOM      1  C   LIG A   1      -9.679  -0.314 125.474  0.00  0.00    +0.016 C 
ATOM      2  C   LIG A   1      -8.614  -0.519 124.371  0.00  0.00    -0.007 C 
ATOM      3  C   LIG A   1      -7.561  -1.627 124.737  0.00  0.00    +0.005 C 
ATOM      4  C   LIG A   1      -6.652  -1.174 125.889  0.00  0.00    +0.009 C 
ATOM      5  C   LIG A   1      -5.863   0.071 125.484  0.00  0.00    +0.031 C 
ATOM      6  C   LIG A   1      -6.660   1.076 124.694  0.00  0.00    -0.069 C 
ATOM      7  C   LIG A   1      -7.895   0.839 124.211  0.00  0.00    -0.064 C 
ATOM      8  C   LIG A   1      -8.605   1.959 123.477  0.00  0.00    +0.031 C 
ATOM      9  C   LIG A   1      -8.357   3.298 124.167  0.00  0.00    +0.011 C 
ATOM     10  C   LIG A   1      -6.858   3.631 124.347  0.00  0.00    +0.024 C 
ATOM     11  C   LIG A   1      -5.954   2.378 124.404  0.00  0.00    +0.037 C 
ATOM     12  C   LIG A   1      -8.138  -3.079 124.895  0.00  0.00    -0.031 C 
ATOM     13  C   LIG A   1      -7.005  -4.090 124.575  0.00  0.00    +0.011 C 
ATOM     14  C   LIG A   1      -8.628  -3.417 126.319  0.00  0.00    +0.011 C 
ATOM     15  C   LIG A   1      -9.300  -3.315 123.896  0.00  0.00    +0.007 C 
ATOM     16  C   LIG A   1      -9.209  -2.409 122.675  0.00  0.00    +0.001 C 
ATOM     17  C   LIG A   1      -9.330  -0.928 123.045  0.00  0.00    +0.011 C 
ENDROOT
BRANCH  10  18
ATOM     18  C   LIG A   1      -6.616   4.624 125.528  0.00  0.00    +0.064 C 
ATOM     19  C   LIG A   1      -5.225   4.435 126.152  0.00  0.00    +0.041 C 
ATOM     20  C   LIG A   1      -7.682   4.532 126.628  0.00  0.00    +0.041 C 
BRANCH  18  21
ATOM     21  O   LIG A   1      -6.658   5.965 125.022  0.00  0.00    -0.389 OA
ATOM     22  H   LIG A   1      -5.824   6.403 125.263  0.00  0.00    +0.210 HD
ENDBRANCH  18  21
ENDBRANCH  10  18
TORSDOF 2
ENDMDL
MODEL 4
REMARK VINA RESULT:      -7.3      7.300      9.892
REMARK  Name = NuBBE_2355
REMARK  7 active torsions:
REMARK  status: ('A' for Active; 'I' for Inactive)
REMARK    1  A    between atoms: C_1  and  C_2
REMARK    2  A    between atoms: C_10  and  C_11
REMARK    3  A    between atoms: C_11  and  C_12
REMARK    4  A    between atoms: C_11  and  O_13
REMARK    5  A    between atoms: C_11  and  C_14
REMARK    6  A    between atoms: C_16  and  C_17
REMARK    7  A    between atoms: C_16  and  C_18
REMARK                            x       y       z     vdW  Elec       q    Type
REMARK                         _______ _______ _______ _____ _____    ______ ____
ROOT
ATOM      1  C   LIG A   1      -7.540   4.524 129.291  0.00  0.00    +0.016 C 
ATOM      2  C   LIG A   1      -8.242   4.592 130.669  0.00  0.00    -0.007 C 
ATOM      3  C   LIG A   1      -8.846   3.210 131.114  0.00  0.00    +0.005 C 
ATOM      4  C   LIG A   1     -10.044   2.817 130.237  0.00  0.00    +0.009 C 
ATOM      5  C   LIG A   1     -11.160   3.853 130.367  0.00  0.00    +0.031 C 
ATOM      6  C   LIG A   1     -10.676   5.279 130.411  0.00  0.00    -0.069 C 
ATOM      7  C   LIG A   1      -9.379   5.626 130.521  0.00  0.00    -0.064 C 
ATOM      8  C   LIG A   1      -9.028   7.100 130.500  0.00  0.00    +0.031 C 
ATOM      9  C   LIG A   1      -9.877   7.842 129.472  0.00  0.00    +0.011 C 
ATOM     10  C   LIG A   1     -11.397   7.650 129.672  0.00  0.00    +0.024 C 
ATOM     11  C   LIG A   1     -11.759   6.331 130.393  0.00  0.00    +0.037 C 
ATOM     12  C   LIG A   1      -7.802   2.060 131.345  0.00  0.00    -0.031 C 
ATOM     13  C   LIG A   1      -8.398   1.062 132.374  0.00  0.00    +0.011 C 
ATOM     14  C   LIG A   1      -7.476   1.235 130.083  0.00  0.00    +0.011 C 
ATOM     15  C   LIG A   1      -6.483   2.632 131.926  0.00  0.00    +0.007 C 
ATOM     16  C   LIG A   1      -6.695   3.945 132.667  0.00  0.00    +0.001 C 
ATOM     17  C   LIG A   1      -7.206   5.053 131.743  0.00  0.00    +0.011 C 
ENDROOT
BRANCH  10  18
ATOM     18  C   LIG A   1     -12.196   7.872 128.348  0.00  0.00    +0.064 C 
ATOM     19  C   LIG A   1     -13.457   6.997 128.293  0.00  0.00    +0.041 C 
ATOM     20  C   LIG A   1     -11.358   7.634 127.086  0.00  0.00    +0.041 C 
BRANCH  18  21
ATOM     21  O   LIG A   1     -12.641   9.234 128.299  0.00  0.00    -0.389 OA
ATOM     22  H   LIG A   1     -13.596   9.231 128.116  0.00  0.00    +0.210 HD
ENDBRANCH  18  21
ENDBRANCH  10  18
TORSDOF 2
ENDMDL
MODEL 5
REMARK VINA RESULT:      -7.3      2.496      6.490
REMARK  Name = NuBBE_2355
REMARK  7 active torsions:
REMARK  status: ('A' for Active; 'I' for Inactive)
REMARK    1  A    between atoms: C_1  and  C_2
REMARK    2  A    between atoms: C_10  and  C_11
REMARK    3  A    between atoms: C_11  and  C_12
REMARK    4  A    between atoms: C_11  and  O_13
REMARK    5  A    between atoms: C_11  and  C_14
REMARK    6  A    between atoms: C_16  and  C_17
REMARK    7  A    between atoms: C_16  and  C_18
REMARK                            x       y       z     vdW  Elec       q    Type
REMARK                         _______ _______ _______ _____ _____    ______ ____
ROOT
ATOM      1  C   LIG A   1      -8.131  -0.971 129.376  0.00  0.00    +0.016 C 
ATOM      2  C   LIG A   1      -7.144  -2.129 129.090  0.00  0.00    -0.007 C 
ATOM      3  C   LIG A   1      -5.639  -1.690 129.202  0.00  0.00    +0.005 C 
ATOM      4  C   LIG A   1      -5.250  -0.737 128.062  0.00  0.00    +0.009 C 
ATOM      5  C   LIG A   1      -5.410  -1.432 126.712  0.00  0.00    +0.031 C 
ATOM      6  C   LIG A   1      -6.640  -2.296 126.604  0.00  0.00    -0.069 C 
ATOM      7  C   LIG A   1      -7.437  -2.597 127.648  0.00  0.00    -0.064 C 
ATOM      8  C   LIG A   1      -8.673  -3.434 127.388  0.00  0.00    +0.031 C 
ATOM      9  C   LIG A   1      -9.342  -3.016 126.081  0.00  0.00    +0.011 C 
ATOM     10  C   LIG A   1      -8.394  -3.056 124.862  0.00  0.00    +0.024 C 
ATOM     11  C   LIG A   1      -6.904  -2.879 125.237  0.00  0.00    +0.037 C 
ATOM     12  C   LIG A   1      -5.177  -1.223 130.629  0.00  0.00    -0.031 C 
ATOM     13  C   LIG A   1      -3.652  -1.481 130.755  0.00  0.00    +0.011 C 
ATOM     14  C   LIG A   1      -5.384   0.282 130.903  0.00  0.00    +0.011 C 
ATOM     15  C   LIG A   1      -5.903  -2.038 131.730  0.00  0.00    +0.007 C 
ATOM     16  C   LIG A   1      -6.370  -3.400 131.233  0.00  0.00    +0.001 C 
ATOM     17  C   LIG A   1      -7.406  -3.281 130.112  0.00  0.00    +0.011 C 
ENDROOT
BRANCH  10  18
ATOM     18  C   LIG A   1      -8.863  -2.097 123.722  0.00  0.00    +0.064 C 
ATOM     19  C   LIG A   1      -7.884  -2.100 122.539  0.00  0.00    +0.041 C 
ATOM     20  C   LIG A   1      -9.084  -0.654 124.194  0.00  0.00    +0.041 C 
BRANCH  18  21
ATOM     21  O   LIG A   1     -10.120  -2.563 123.213  0.00  0.00    -0.389 OA
ATOM     22  H   LIG A   1     -10.084  -2.524 122.242  0.00  0.00    +0.210 HD
ENDBRANCH  18  21
ENDBRANCH  10  18
TORSDOF 2
ENDMDL
MODEL 6
REMARK VINA RESULT:      -7.0      3.229      5.593
REMARK  Name = NuBBE_2355
REMARK  7 active torsions:
REMARK  status: ('A' for Active; 'I' for Inactive)
REMARK    1  A    between atoms: C_1  and  C_2
REMARK    2  A    between atoms: C_10  and  C_11
REMARK    3  A    between atoms: C_11  and  C_12
REMARK    4  A    between atoms: C_11  and  O_13
REMARK    5  A    between atoms: C_11  and  C_14
REMARK    6  A    between atoms: C_16  and  C_17
REMARK    7  A    between atoms: C_16  and  C_18
REMARK                            x       y       z     vdW  Elec       q    Type
REMARK                         _______ _______ _______ _____ _____    ______ ____
ROOT
ATOM      1  C   LIG A   1      -5.673  -1.425 126.236  0.00  0.00    +0.016 C 
ATOM      2  C   LIG A   1      -7.143  -0.986 126.033  0.00  0.00    -0.007 C 
ATOM      3  C   LIG A   1      -7.747  -1.488 124.672  0.00  0.00    +0.005 C 
ATOM      4  C   LIG A   1      -7.101  -0.772 123.477  0.00  0.00    +0.009 C 
ATOM      5  C   LIG A   1      -7.365   0.731 123.553  0.00  0.00    +0.031 C 
ATOM      6  C   LIG A   1      -7.261   1.307 124.941  0.00  0.00    -0.069 C 
ATOM      7  C   LIG A   1      -7.138   0.558 126.055  0.00  0.00    -0.064 C 
ATOM      8  C   LIG A   1      -6.990   1.270 127.384  0.00  0.00    +0.031 C 
ATOM      9  C   LIG A   1      -6.083   2.489 127.245  0.00  0.00    +0.011 C 
ATOM     10  C   LIG A   1      -6.541   3.478 126.149  0.00  0.00    +0.024 C 
ATOM     11  C   LIG A   1      -7.373   2.810 125.030  0.00  0.00    +0.037 C 
ATOM     12  C   LIG A   1      -7.855  -3.047 124.515  0.00  0.00    -0.031 C 
ATOM     13  C   LIG A   1      -9.015  -3.358 123.531  0.00  0.00    +0.011 C 
ATOM     14  C   LIG A   1      -6.597  -3.716 123.924  0.00  0.00    +0.011 C 
ATOM     15  C   LIG A   1      -8.182  -3.709 125.879  0.00  0.00    +0.007 C 
ATOM     16  C   LIG A   1      -8.885  -2.755 126.835  0.00  0.00    +0.001 C 
ATOM     17  C   LIG A   1      -8.007  -1.556 127.203  0.00  0.00    +0.011 C 
ENDROOT
BRANCH  10  18
ATOM     18  C   LIG A   1      -5.359   4.344 125.608  0.00  0.00    +0.064 C 
ATOM     19  C   LIG A   1      -5.403   4.472 124.078  0.00  0.00    +0.041 C 
ATOM     20  C   LIG A   1      -3.981   3.825 126.035  0.00  0.00    +0.041 C 
BRANCH  18  21
ATOM     21  O   LIG A   1      -5.482   5.673 126.133  0.00  0.00    -0.389 OA
ATOM     22  H   LIG A   1      -5.622   6.279 125.385  0.00  0.00    +0.210 HD
ENDBRANCH  18  21
ENDBRANCH  10  18
TORSDOF 2
ENDMDL
MODEL 7
REMARK VINA RESULT:      -6.9      2.411      6.625
REMARK  Name = NuBBE_2355
REMARK  7 active torsions:
REMARK  status: ('A' for Active; 'I' for Inactive)
REMARK    1  A    between atoms: C_1  and  C_2
REMARK    2  A    between atoms: C_10  and  C_11
REMARK    3  A    between atoms: C_11  and  C_12
REMARK    4  A    between atoms: C_11  and  O_13
REMARK    5  A    between atoms: C_11  and  C_14
REMARK    6  A    between atoms: C_16  and  C_17
REMARK    7  A    between atoms: C_16  and  C_18
REMARK                            x       y       z     vdW  Elec       q    Type
REMARK                         _______ _______ _______ _____ _____    ______ ____
ROOT
ATOM      1  C   LIG A   1      -5.661  -0.636 129.779  0.00  0.00    +0.016 C 
ATOM      2  C   LIG A   1      -7.180  -0.891 129.933  0.00  0.00    -0.007 C 
ATOM      3  C   LIG A   1      -7.501  -2.116 130.865  0.00  0.00    +0.005 C 
ATOM      4  C   LIG A   1      -7.085  -3.441 130.207  0.00  0.00    +0.009 C 
ATOM      5  C   LIG A   1      -7.861  -3.655 128.909  0.00  0.00    +0.031 C 
ATOM      6  C   LIG A   1      -8.035  -2.408 128.081  0.00  0.00    -0.069 C 
ATOM      7  C   LIG A   1      -7.714  -1.173 128.512  0.00  0.00    -0.064 C 
ATOM      8  C   LIG A   1      -7.892  -0.012 127.555  0.00  0.00    +0.031 C 
ATOM      9  C   LIG A   1      -7.462  -0.405 126.144  0.00  0.00    +0.011 C 
ATOM     10  C   LIG A   1      -8.180  -1.664 125.608  0.00  0.00    +0.024 C 
ATOM     11  C   LIG A   1      -8.669  -2.614 126.726  0.00  0.00    +0.037 C 
ATOM     12  C   LIG A   1      -7.050  -1.961 132.361  0.00  0.00    -0.031 C 
ATOM     13  C   LIG A   1      -7.976  -2.842 133.241  0.00  0.00    +0.011 C 
ATOM     14  C   LIG A   1      -5.609  -2.435 132.643  0.00  0.00    +0.011 C 
ATOM     15  C   LIG A   1      -7.193  -0.488 132.823  0.00  0.00    +0.007 C 
ATOM     16  C   LIG A   1      -8.233   0.276 132.015  0.00  0.00    +0.001 C 
ATOM     17  C   LIG A   1      -7.849   0.385 130.536  0.00  0.00    +0.011 C 
ENDROOT
BRANCH  10  18
ATOM     18  C   LIG A   1      -7.349  -2.387 124.501  0.00  0.00    +0.064 C 
ATOM     19  C   LIG A   1      -7.664  -3.889 124.445  0.00  0.00    +0.041 C 
ATOM     20  C   LIG A   1      -5.835  -2.191 124.652  0.00  0.00    +0.041 C 
BRANCH  18  21
ATOM     21  O   LIG A   1      -7.711  -1.846 123.223  0.00  0.00    -0.389 OA
ATOM     22  H   LIG A   1      -8.521  -1.321 123.338  0.00  0.00    +0.210 HD
ENDBRANCH  18  21
ENDBRANCH  10  18
TORSDOF 2
ENDMDL
MODEL 8
REMARK VINA RESULT:      -6.9      1.334      2.414
REMARK  Name = NuBBE_2355
REMARK  7 active torsions:
REMARK  status: ('A' for Active; 'I' for Inactive)
REMARK    1  A    between atoms: C_1  and  C_2
REMARK    2  A    between atoms: C_10  and  C_11
REMARK    3  A    between atoms: C_11  and  C_12
REMARK    4  A    between atoms: C_11  and  O_13
REMARK    5  A    between atoms: C_11  and  C_14
REMARK    6  A    between atoms: C_16  and  C_17
REMARK    7  A    between atoms: C_16  and  C_18
REMARK                            x       y       z     vdW  Elec       q    Type
REMARK                         _______ _______ _______ _____ _____    ______ ____
ROOT
ATOM      1  C   LIG A   1      -6.238  -2.872 125.623  0.00  0.00    +0.016 C 
ATOM      2  C   LIG A   1      -7.710  -2.500 125.924  0.00  0.00    -0.007 C 
ATOM      3  C   LIG A   1      -8.140  -1.137 125.271  0.00  0.00    +0.005 C 
ATOM      4  C   LIG A   1      -7.434   0.051 125.943  0.00  0.00    +0.009 C 
ATOM      5  C   LIG A   1      -7.814   0.127 127.421  0.00  0.00    +0.031 C 
ATOM      6  C   LIG A   1      -7.887  -1.211 128.109  0.00  0.00    -0.069 C 
ATOM      7  C   LIG A   1      -7.819  -2.391 127.461  0.00  0.00    -0.064 C 
ATOM      8  C   LIG A   1      -7.853  -3.663 128.283  0.00  0.00    +0.031 C 
ATOM      9  C   LIG A   1      -7.028  -3.504 129.558  0.00  0.00    +0.011 C 
ATOM     10  C   LIG A   1      -7.449  -2.291 130.418  0.00  0.00    +0.024 C 
ATOM     11  C   LIG A   1      -8.117  -1.161 129.600  0.00  0.00    +0.037 C 
ATOM     12  C   LIG A   1      -8.118  -1.104 123.701  0.00  0.00    -0.031 C 
ATOM     13  C   LIG A   1      -9.150  -0.048 123.222  0.00  0.00    +0.011 C 
ATOM     14  C   LIG A   1      -6.763  -0.689 123.092  0.00  0.00    +0.011 C 
ATOM     15  C   LIG A   1      -8.527  -2.484 123.123  0.00  0.00    +0.007 C 
ATOM     16  C   LIG A   1      -9.388  -3.287 124.088  0.00  0.00    +0.001 C 
ATOM     17  C   LIG A   1      -8.639  -3.631 125.380  0.00  0.00    +0.011 C 
ENDROOT
BRANCH  10  18
ATOM     18  C   LIG A   1      -6.286  -1.789 131.332  0.00  0.00    +0.064 C 
ATOM     19  C   LIG A   1      -6.655  -0.483 132.052  0.00  0.00    +0.041 C 
ATOM     20  C   LIG A   1      -4.962  -1.599 130.583  0.00  0.00    +0.041 C 
BRANCH  18  21
ATOM     21  O   LIG A   1      -6.047  -2.765 132.355  0.00  0.00    -0.389 OA
ATOM     22  H   LIG A   1      -5.662  -3.553 131.934  0.00  0.00    +0.210 HD
ENDBRANCH  18  21
ENDBRANCH  10  18
TORSDOF 2
ENDMDL
MODEL 9
REMARK VINA RESULT:      -6.9      1.642      3.109
REMARK  Name = NuBBE_2355
REMARK  7 active torsions:
REMARK  status: ('A' for Active; 'I' for Inactive)
REMARK    1  A    between atoms: C_1  and  C_2
REMARK    2  A    between atoms: C_10  and  C_11
REMARK    3  A    between atoms: C_11  and  C_12
REMARK    4  A    between atoms: C_11  and  O_13
REMARK    5  A    between atoms: C_11  and  C_14
REMARK    6  A    between atoms: C_16  and  C_17
REMARK    7  A    between atoms: C_16  and  C_18
REMARK                            x       y       z     vdW  Elec       q    Type
REMARK                         _______ _______ _______ _____ _____    ______ ____
ROOT
ATOM      1  C   LIG A   1      -6.229  -2.345 127.283  0.00  0.00    +0.016 C 
ATOM      2  C   LIG A   1      -7.710  -2.041 127.615  0.00  0.00    -0.007 C 
ATOM      3  C   LIG A   1      -8.205  -0.680 127.003  0.00  0.00    +0.005 C 
ATOM      4  C   LIG A   1      -7.537   0.518 127.695  0.00  0.00    +0.009 C 
ATOM      5  C   LIG A   1      -7.898   0.541 129.179  0.00  0.00    +0.031 C 
ATOM      6  C   LIG A   1      -7.907  -0.816 129.834  0.00  0.00    -0.069 C 
ATOM      7  C   LIG A   1      -7.800  -1.975 129.155  0.00  0.00    -0.064 C 
ATOM      8  C   LIG A   1      -7.771  -3.267 129.945  0.00  0.00    +0.031 C 
ATOM      9  C   LIG A   1      -6.934  -3.107 131.211  0.00  0.00    +0.011 C 
ATOM     10  C   LIG A   1      -7.391  -1.934 132.108  0.00  0.00    +0.024 C 
ATOM     11  C   LIG A   1      -8.116  -0.813 131.329  0.00  0.00    +0.037 C 
ATOM     12  C   LIG A   1      -8.208  -0.607 125.434  0.00  0.00    -0.031 C 
ATOM     13  C   LIG A   1      -9.289   0.417 124.997  0.00  0.00    +0.011 C 
ATOM     14  C   LIG A   1      -6.879  -0.122 124.817  0.00  0.00    +0.011 C 
ATOM     15  C   LIG A   1      -8.569  -1.987 124.826  0.00  0.00    +0.007 C 
ATOM     16  C   LIG A   1      -9.382  -2.849 125.782  0.00  0.00    +0.001 C 
ATOM     17  C   LIG A   1      -8.601  -3.194 127.054  0.00  0.00    +0.011 C 
ENDROOT
BRANCH  10  18
ATOM     18  C   LIG A   1      -6.236  -1.408 133.018  0.00  0.00    +0.064 C 
ATOM     19  C   LIG A   1      -5.126  -0.737 132.196  0.00  0.00    +0.041 C 
ATOM     20  C   LIG A   1      -5.621  -2.495 133.909  0.00  0.00    +0.041 C 
BRANCH  18  21
ATOM     21  O   LIG A   1      -6.760  -0.402 133.895  0.00  0.00    -0.389 OA
ATOM     22  H   LIG A   1      -6.141   0.349 133.893  0.00  0.00    +0.210 HD
ENDBRANCH  18  21
ENDBRANCH  10  18
TORSDOF 2
ENDMDL
