MODEL 1
REMARK VINA RESULT:      -7.5      0.000      0.000
REMARK  Name = NuBBE_2431
REMARK  4 active torsions:
REMARK  status: ('A' for Active; 'I' for Inactive)
REMARK    1  A    between atoms: C_6  and  C_9
REMARK    2  A    between atoms: C_16  and  O_20
REMARK    3  A    between atoms: C_18  and  O_19
REMARK    4  A    between atoms: O_20  and  C_21
REMARK                            x       y       z     vdW  Elec       q    Type
REMARK                         _______ _______ _______ _____ _____    ______ ____
ROOT
ATOM      1  O   LIG A   1      -8.574   3.730 126.059  0.00  0.00    -0.292 OA
ATOM      2  C   LIG A   1      -8.401   3.032 125.069  0.00  0.00    +0.174 C 
ATOM      3  C   LIG A   1      -8.699   1.573 125.034  0.00  0.00    +0.101 A 
ATOM      4  C   LIG A   1      -8.624   0.933 123.795  0.00  0.00    +0.139 A 
ATOM      5  O   LIG A   1      -8.329   1.557 122.616  0.00  0.00    -0.483 OA
ATOM      6  C   LIG A   1      -8.544   2.973 122.632  0.00  0.00    +0.211 C 
ATOM      7  C   LIG A   1      -7.820   3.611 123.802  0.00  0.00    +0.129 C 
ATOM      8  C   LIG A   1      -8.820  -0.444 123.680  0.00  0.00    +0.092 A 
ATOM      9  C   LIG A   1      -9.125  -1.203 124.805  0.00  0.00    +0.127 A 
ATOM     10  C   LIG A   1      -9.221  -0.570 126.048  0.00  0.00    +0.092 A 
ATOM     11  C   LIG A   1      -9.004   0.809 126.165  0.00  0.00    +0.134 A 
ENDROOT
BRANCH   6  12
ATOM     12  C   LIG A   1      -8.069   3.519 121.297  0.00  0.00    -0.007 A 
ATOM     13  C   LIG A   1      -6.705   3.760 121.083  0.00  0.00    +0.007 A 
ATOM     14  C   LIG A   1      -6.261   4.296 119.871  0.00  0.00    +0.000 A 
ATOM     15  C   LIG A   1      -7.173   4.593 118.860  0.00  0.00    +0.000 A 
ATOM     16  C   LIG A   1      -8.530   4.350 119.054  0.00  0.00    +0.000 A 
ATOM     17  C   LIG A   1      -8.974   3.810 120.261  0.00  0.00    +0.007 A 
ENDBRANCH   6  12
BRANCH  11  18
ATOM     18  O   LIG A   1      -9.073   1.383 127.401  0.00  0.00    -0.506 OA
ATOM     19  H   LIG A   1      -9.585   2.206 127.364  0.00  0.00    +0.292 HD
ENDBRANCH  11  18
BRANCH   9  20
ATOM     20  O   LIG A   1      -9.342  -2.554 124.810  0.00  0.00    -0.495 OA
ATOM     21  C   LIG A   1      -9.461  -3.178 123.534  0.00  0.00    +0.277 C 
ENDBRANCH   9  20
TORSDOF 3
ENDMDL
MODEL 2
REMARK VINA RESULT:      -7.4      9.275     10.276
REMARK  Name = NuBBE_2431
REMARK  4 active torsions:
REMARK  status: ('A' for Active; 'I' for Inactive)
REMARK    1  A    between atoms: C_6  and  C_9
REMARK    2  A    between atoms: C_16  and  O_20
REMARK    3  A    between atoms: C_18  and  O_19
REMARK    4  A    between atoms: O_20  and  C_21
REMARK                            x       y       z     vdW  Elec       q    Type
REMARK                         _______ _______ _______ _____ _____    ______ ____
ROOT
ATOM      1  O   LIG A   1      -9.681   5.144 133.240  0.00  0.00    -0.292 OA
ATOM      2  C   LIG A   1      -9.144   5.669 132.274  0.00  0.00    +0.174 C 
ATOM      3  C   LIG A   1      -9.880   6.495 131.277  0.00  0.00    +0.101 A 
ATOM      4  C   LIG A   1      -9.121   7.179 130.325  0.00  0.00    +0.139 A 
ATOM      5  O   LIG A   1      -7.756   7.167 130.267  0.00  0.00    -0.483 OA
ATOM      6  C   LIG A   1      -7.120   6.791 131.494  0.00  0.00    +0.211 C 
ATOM      7  C   LIG A   1      -7.673   5.473 132.001  0.00  0.00    +0.129 C 
ATOM      8  C   LIG A   1      -9.730   7.921 129.313  0.00  0.00    +0.092 A 
ATOM      9  C   LIG A   1     -11.116   8.014 129.251  0.00  0.00    +0.127 A 
ATOM     10  C   LIG A   1     -11.887   7.349 130.209  0.00  0.00    +0.092 A 
ATOM     11  C   LIG A   1     -11.274   6.588 131.214  0.00  0.00    +0.134 A 
ENDROOT
BRANCH   6  12
ATOM     12  C   LIG A   1      -5.627   6.723 131.229  0.00  0.00    -0.007 A 
ATOM     13  C   LIG A   1      -4.848   5.735 131.846  0.00  0.00    +0.007 A 
ATOM     14  C   LIG A   1      -3.468   5.686 131.637  0.00  0.00    +0.000 A 
ATOM     15  C   LIG A   1      -2.850   6.619 130.808  0.00  0.00    +0.000 A 
ATOM     16  C   LIG A   1      -3.612   7.601 130.179  0.00  0.00    +0.000 A 
ATOM     17  C   LIG A   1      -4.990   7.649 130.382  0.00  0.00    +0.007 A 
ENDBRANCH   6  12
BRANCH  11  18
ATOM     18  O   LIG A   1     -12.062   5.926 132.110  0.00  0.00    -0.506 OA
ATOM     19  H   LIG A   1     -11.656   5.080 132.356  0.00  0.00    +0.292 HD
ENDBRANCH  11  18
BRANCH   9  20
ATOM     20  O   LIG A   1     -11.819   8.716 128.310  0.00  0.00    -0.495 OA
ATOM     21  C   LIG A   1     -13.120   9.153 128.692  0.00  0.00    +0.277 C 
ENDBRANCH   9  20
TORSDOF 3
ENDMDL
MODEL 3
REMARK VINA RESULT:      -7.2      7.275     10.799
REMARK  Name = NuBBE_2431
REMARK  4 active torsions:
REMARK  status: ('A' for Active; 'I' for Inactive)
REMARK    1  A    between atoms: C_6  and  C_9
REMARK    2  A    between atoms: C_16  and  O_20
REMARK    3  A    between atoms: C_18  and  O_19
REMARK    4  A    between atoms: O_20  and  C_21
REMARK                            x       y       z     vdW  Elec       q    Type
REMARK                         _______ _______ _______ _____ _____    ______ ____
ROOT
ATOM      1  O   LIG A   1      -8.943   5.246 127.471  0.00  0.00    -0.292 OA
ATOM      2  C   LIG A   1      -9.337   5.765 128.506  0.00  0.00    +0.174 C 
ATOM      3  C   LIG A   1     -10.454   6.748 128.556  0.00  0.00    +0.101 A 
ATOM      4  C   LIG A   1     -10.919   7.129 129.816  0.00  0.00    +0.139 A 
ATOM      5  O   LIG A   1     -10.440   6.639 130.999  0.00  0.00    -0.483 OA
ATOM      6  C   LIG A   1      -9.756   5.386 130.882  0.00  0.00    +0.211 C 
ATOM      7  C   LIG A   1      -8.670   5.468 129.827  0.00  0.00    +0.129 C 
ATOM      8  C   LIG A   1     -11.916   8.094 129.958  0.00  0.00    +0.092 A 
ATOM      9  C   LIG A   1     -12.488   8.678 128.833  0.00  0.00    +0.127 A 
ATOM     10  C   LIG A   1     -12.045   8.292 127.565  0.00  0.00    +0.092 A 
ATOM     11  C   LIG A   1     -11.030   7.336 127.425  0.00  0.00    +0.134 A 
ENDROOT
BRANCH   6  12
ATOM     12  C   LIG A   1      -9.200   5.044 132.253  0.00  0.00    -0.007 A 
ATOM     13  C   LIG A   1      -8.521   6.017 132.999  0.00  0.00    +0.007 A 
ATOM     14  C   LIG A   1      -7.975   5.702 134.245  0.00  0.00    +0.000 A 
ATOM     15  C   LIG A   1      -8.103   4.414 134.762  0.00  0.00    +0.000 A 
ATOM     16  C   LIG A   1      -8.783   3.439 134.037  0.00  0.00    +0.000 A 
ATOM     17  C   LIG A   1      -9.334   3.753 132.795  0.00  0.00    +0.007 A 
ENDBRANCH   6  12
BRANCH  11  18
ATOM     18  O   LIG A   1     -10.601   7.012 126.170  0.00  0.00    -0.506 OA
ATOM     19  H   LIG A   1     -10.554   6.048 126.068  0.00  0.00    +0.292 HD
ENDBRANCH  11  18
BRANCH   9  20
ATOM     20  O   LIG A   1     -13.473   9.628 128.852  0.00  0.00    -0.495 OA
ATOM     21  C   LIG A   1     -13.359  10.634 129.854  0.00  0.00    +0.277 C 
ENDBRANCH   9  20
TORSDOF 3
ENDMDL
MODEL 4
REMARK VINA RESULT:      -7.2      9.002     10.086
REMARK  Name = NuBBE_2431
REMARK  4 active torsions:
REMARK  status: ('A' for Active; 'I' for Inactive)
REMARK    1  A    between atoms: C_6  and  C_9
REMARK    2  A    between atoms: C_16  and  O_20
REMARK    3  A    between atoms: C_18  and  O_19
REMARK    4  A    between atoms: O_20  and  C_21
REMARK                            x       y       z     vdW  Elec       q    Type
REMARK                         _______ _______ _______ _____ _____    ______ ____
ROOT
ATOM      1  O   LIG A   1      -9.315   4.614 133.528  0.00  0.00    -0.292 OA
ATOM      2  C   LIG A   1      -9.099   5.447 132.660  0.00  0.00    +0.174 C 
ATOM      3  C   LIG A   1      -7.732   5.894 132.275  0.00  0.00    +0.101 A 
ATOM      4  C   LIG A   1      -7.616   6.717 131.152  0.00  0.00    +0.139 A 
ATOM      5  O   LIG A   1      -8.665   7.111 130.371  0.00  0.00    -0.483 OA
ATOM      6  C   LIG A   1      -9.827   6.281 130.482  0.00  0.00    +0.211 C 
ATOM      7  C   LIG A   1     -10.235   6.126 131.935  0.00  0.00    +0.129 C 
ATOM      8  C   LIG A   1      -6.383   7.236 130.760  0.00  0.00    +0.092 A 
ATOM      9  C   LIG A   1      -5.232   6.917 131.472  0.00  0.00    +0.127 A 
ATOM     10  C   LIG A   1      -5.330   6.079 132.586  0.00  0.00    +0.092 A 
ATOM     11  C   LIG A   1      -6.573   5.573 132.991  0.00  0.00    +0.134 A 
ENDROOT
BRANCH   6  12
ATOM     12  C   LIG A   1     -10.921   6.915 129.642  0.00  0.00    -0.007 A 
ATOM     13  C   LIG A   1     -10.622   7.996 128.801  0.00  0.00    +0.007 A 
ATOM     14  C   LIG A   1     -11.629   8.610 128.051  0.00  0.00    +0.000 A 
ATOM     15  C   LIG A   1     -12.941   8.150 128.130  0.00  0.00    +0.000 A 
ATOM     16  C   LIG A   1     -13.251   7.070 128.953  0.00  0.00    +0.000 A 
ATOM     17  C   LIG A   1     -12.247   6.453 129.698  0.00  0.00    +0.007 A 
ENDBRANCH   6  12
BRANCH  11  18
ATOM     18  O   LIG A   1      -6.632   4.787 134.105  0.00  0.00    -0.506 OA
ATOM     19  H   LIG A   1      -6.113   3.978 133.975  0.00  0.00    +0.292 HD
ENDBRANCH  11  18
BRANCH   9  20
ATOM     20  O   LIG A   1      -3.972   7.362 131.176  0.00  0.00    -0.495 OA
ATOM     21  C   LIG A   1      -3.817   8.032 129.928  0.00  0.00    +0.277 C 
ENDBRANCH   9  20
TORSDOF 3
ENDMDL
MODEL 5
REMARK VINA RESULT:      -7.1      2.980      7.622
REMARK  Name = NuBBE_2431
REMARK  4 active torsions:
REMARK  status: ('A' for Active; 'I' for Inactive)
REMARK    1  A    between atoms: C_6  and  C_9
REMARK    2  A    between atoms: C_16  and  O_20
REMARK    3  A    between atoms: C_18  and  O_19
REMARK    4  A    between atoms: O_20  and  C_21
REMARK                            x       y       z     vdW  Elec       q    Type
REMARK                         _______ _______ _______ _____ _____    ______ ____
ROOT
ATOM      1  O   LIG A   1      -9.626  -2.490 123.778  0.00  0.00    -0.292 OA
ATOM      2  C   LIG A   1      -8.942  -1.844 124.560  0.00  0.00    +0.174 C 
ATOM      3  C   LIG A   1      -8.960  -0.357 124.629  0.00  0.00    +0.101 A 
ATOM      4  C   LIG A   1      -8.266   0.246 125.680  0.00  0.00    +0.139 A 
ATOM      5  O   LIG A   1      -7.603  -0.434 126.661  0.00  0.00    -0.483 OA
ATOM      6  C   LIG A   1      -8.026  -1.793 126.824  0.00  0.00    +0.211 C 
ATOM      7  C   LIG A   1      -7.978  -2.529 125.498  0.00  0.00    +0.129 C 
ATOM      8  C   LIG A   1      -8.174   1.634 125.783  0.00  0.00    +0.092 A 
ATOM      9  C   LIG A   1      -8.801   2.449 124.847  0.00  0.00    +0.127 A 
ATOM     10  C   LIG A   1      -9.514   1.858 123.800  0.00  0.00    +0.092 A 
ATOM     11  C   LIG A   1      -9.590   0.463 123.686  0.00  0.00    +0.134 A 
ENDROOT
BRANCH   6  12
ATOM     12  C   LIG A   1      -7.123  -2.428 127.866  0.00  0.00    -0.007 A 
ATOM     13  C   LIG A   1      -7.675  -3.216 128.886  0.00  0.00    +0.007 A 
ATOM     14  C   LIG A   1      -6.857  -3.776 129.870  0.00  0.00    +0.000 A 
ATOM     15  C   LIG A   1      -5.481  -3.558 129.846  0.00  0.00    +0.000 A 
ATOM     16  C   LIG A   1      -4.917  -2.786 128.834  0.00  0.00    +0.000 A 
ATOM     17  C   LIG A   1      -5.731  -2.231 127.847  0.00  0.00    +0.007 A 
ENDBRANCH   6  12
BRANCH  11  18
ATOM     18  O   LIG A   1     -10.267  -0.075 122.630  0.00  0.00    -0.506 OA
ATOM     19  H   LIG A   1     -10.646   0.627 122.079  0.00  0.00    +0.292 HD
ENDBRANCH  11  18
BRANCH   9  20
ATOM     20  O   LIG A   1      -8.783   3.817 124.852  0.00  0.00    -0.495 OA
ATOM     21  C   LIG A   1      -7.963   4.432 125.842  0.00  0.00    +0.277 C 
ENDBRANCH   9  20
TORSDOF 3
ENDMDL
MODEL 6
REMARK VINA RESULT:      -7.1      3.000      6.397
REMARK  Name = NuBBE_2431
REMARK  4 active torsions:
REMARK  status: ('A' for Active; 'I' for Inactive)
REMARK    1  A    between atoms: C_6  and  C_9
REMARK    2  A    between atoms: C_16  and  O_20
REMARK    3  A    between atoms: C_18  and  O_19
REMARK    4  A    between atoms: O_20  and  C_21
REMARK                            x       y       z     vdW  Elec       q    Type
REMARK                         _______ _______ _______ _____ _____    ______ ____
ROOT
ATOM      1  O   LIG A   1      -7.989   3.451 122.964  0.00  0.00    -0.292 OA
ATOM      2  C   LIG A   1      -7.489   2.530 123.593  0.00  0.00    +0.174 C 
ATOM      3  C   LIG A   1      -6.378   2.712 124.568  0.00  0.00    +0.101 A 
ATOM      4  C   LIG A   1      -6.018   1.609 125.346  0.00  0.00    +0.139 A 
ATOM      5  O   LIG A   1      -6.635   0.392 125.296  0.00  0.00    -0.483 OA
ATOM      6  C   LIG A   1      -7.955   0.424 124.740  0.00  0.00    +0.211 C 
ATOM      7  C   LIG A   1      -7.948   1.107 123.386  0.00  0.00    +0.129 C 
ATOM      8  C   LIG A   1      -4.945   1.671 126.235  0.00  0.00    +0.092 A 
ATOM      9  C   LIG A   1      -4.226   2.852 126.382  0.00  0.00    +0.127 A 
ATOM     10  C   LIG A   1      -4.587   3.968 125.623  0.00  0.00    +0.092 A 
ATOM     11  C   LIG A   1      -5.653   3.899 124.716  0.00  0.00    +0.134 A 
ENDROOT
BRANCH   6  12
ATOM     12  C   LIG A   1      -8.448  -1.009 124.658  0.00  0.00    -0.007 A 
ATOM     13  C   LIG A   1      -8.734  -1.583 123.411  0.00  0.00    +0.007 A 
ATOM     14  C   LIG A   1      -9.223  -2.889 123.326  0.00  0.00    +0.000 A 
ATOM     15  C   LIG A   1      -9.428  -3.637 124.483  0.00  0.00    +0.000 A 
ATOM     16  C   LIG A   1      -9.139  -3.085 125.728  0.00  0.00    +0.000 A 
ATOM     17  C   LIG A   1      -8.646  -1.784 125.815  0.00  0.00    +0.007 A 
ENDBRANCH   6  12
BRANCH  11  18
ATOM     18  O   LIG A   1      -5.952   5.001 123.967  0.00  0.00    -0.506 OA
ATOM     19  H   LIG A   1      -6.023   5.785 124.534  0.00  0.00    +0.292 HD
ENDBRANCH  11  18
BRANCH   9  20
ATOM     20  O   LIG A   1      -3.163   3.029 127.225  0.00  0.00    -0.495 OA
ATOM     21  C   LIG A   1      -1.877   3.088 126.614  0.00  0.00    +0.277 C 
ENDBRANCH   9  20
TORSDOF 3
ENDMDL
MODEL 7
REMARK VINA RESULT:      -7.0      8.254     10.368
REMARK  Name = NuBBE_2431
REMARK  4 active torsions:
REMARK  status: ('A' for Active; 'I' for Inactive)
REMARK    1  A    between atoms: C_6  and  C_9
REMARK    2  A    between atoms: C_16  and  O_20
REMARK    3  A    between atoms: C_18  and  O_19
REMARK    4  A    between atoms: O_20  and  C_21
REMARK                            x       y       z     vdW  Elec       q    Type
REMARK                         _______ _______ _______ _____ _____    ______ ____
ROOT
ATOM      1  O   LIG A   1      -9.705   2.425 130.884  0.00  0.00    -0.292 OA
ATOM      2  C   LIG A   1      -9.774   3.564 131.324  0.00  0.00    +0.174 C 
ATOM      3  C   LIG A   1      -9.008   4.031 132.513  0.00  0.00    +0.101 A 
ATOM      4  C   LIG A   1      -9.043   5.396 132.804  0.00  0.00    +0.139 A 
ATOM      5  O   LIG A   1      -9.702   6.331 132.057  0.00  0.00    -0.483 OA
ATOM      6  C   LIG A   1      -9.981   5.920 130.714  0.00  0.00    +0.211 C 
ATOM      7  C   LIG A   1     -10.697   4.583 130.702  0.00  0.00    +0.129 C 
ATOM      8  C   LIG A   1      -8.410   5.910 133.936  0.00  0.00    +0.092 A 
ATOM      9  C   LIG A   1      -7.705   5.066 134.787  0.00  0.00    +0.127 A 
ATOM     10  C   LIG A   1      -7.647   3.700 134.497  0.00  0.00    +0.092 A 
ATOM     11  C   LIG A   1      -8.299   3.182 133.370  0.00  0.00    +0.134 A 
ENDROOT
BRANCH   6  12
ATOM     12  C   LIG A   1     -10.803   7.018 130.064  0.00  0.00    -0.007 A 
ATOM     13  C   LIG A   1     -12.026   7.407 130.630  0.00  0.00    +0.007 A 
ATOM     14  C   LIG A   1     -12.808   8.391 130.020  0.00  0.00    +0.000 A 
ATOM     15  C   LIG A   1     -12.377   9.000 128.843  0.00  0.00    +0.000 A 
ATOM     16  C   LIG A   1     -11.160   8.632 128.275  0.00  0.00    +0.000 A 
ATOM     17  C   LIG A   1     -10.376   7.653 128.885  0.00  0.00    +0.007 A 
ENDBRANCH   6  12
BRANCH  11  18
ATOM     18  O   LIG A   1      -8.248   1.838 133.140  0.00  0.00    -0.506 OA
ATOM     19  H   LIG A   1      -7.711   1.399 133.819  0.00  0.00    +0.292 HD
ENDBRANCH  11  18
BRANCH   9  20
ATOM     20  O   LIG A   1      -7.044   5.459 135.919  0.00  0.00    -0.495 OA
ATOM     21  C   LIG A   1      -7.737   6.367 136.770  0.00  0.00    +0.277 C 
ENDBRANCH   9  20
TORSDOF 3
ENDMDL
MODEL 8
REMARK VINA RESULT:      -6.9      7.909      8.840
REMARK  Name = NuBBE_2431
REMARK  4 active torsions:
REMARK  status: ('A' for Active; 'I' for Inactive)
REMARK    1  A    between atoms: C_6  and  C_9
REMARK    2  A    between atoms: C_16  and  O_20
REMARK    3  A    between atoms: C_18  and  O_19
REMARK    4  A    between atoms: O_20  and  C_21
REMARK                            x       y       z     vdW  Elec       q    Type
REMARK                         _______ _______ _______ _____ _____    ______ ____
ROOT
ATOM      1  O   LIG A   1      -6.847   6.383 132.388  0.00  0.00    -0.292 OA
ATOM      2  C   LIG A   1      -7.796   5.936 131.758  0.00  0.00    +0.174 C 
ATOM      3  C   LIG A   1      -8.284   4.536 131.898  0.00  0.00    +0.101 A 
ATOM      4  C   LIG A   1      -9.479   4.205 131.256  0.00  0.00    +0.139 A 
ATOM      5  O   LIG A   1     -10.242   5.083 130.539  0.00  0.00    -0.483 OA
ATOM      6  C   LIG A   1     -10.002   6.460 130.850  0.00  0.00    +0.211 C 
ATOM      7  C   LIG A   1      -8.523   6.782 130.743  0.00  0.00    +0.129 C 
ATOM      8  C   LIG A   1      -9.974   2.901 131.277  0.00  0.00    +0.092 A 
ATOM      9  C   LIG A   1      -9.293   1.905 131.968  0.00  0.00    +0.127 A 
ATOM     10  C   LIG A   1      -8.104   2.227 132.630  0.00  0.00    +0.092 A 
ATOM     11  C   LIG A   1      -7.598   3.533 132.592  0.00  0.00    +0.134 A 
ENDROOT
BRANCH   6  12
ATOM     12  C   LIG A   1     -10.842   7.294 129.900  0.00  0.00    -0.007 A 
ATOM     13  C   LIG A   1     -12.110   7.742 130.293  0.00  0.00    +0.007 A 
ATOM     14  C   LIG A   1     -12.906   8.480 129.412  0.00  0.00    +0.000 A 
ATOM     15  C   LIG A   1     -12.444   8.779 128.133  0.00  0.00    +0.000 A 
ATOM     16  C   LIG A   1     -11.182   8.349 127.731  0.00  0.00    +0.000 A 
ATOM     17  C   LIG A   1     -10.384   7.618 128.610  0.00  0.00    +0.007 A 
ENDBRANCH   6  12
BRANCH  11  18
ATOM     18  O   LIG A   1      -6.417   3.799 133.222  0.00  0.00    -0.506 OA
ATOM     19  H   LIG A   1      -5.718   3.971 132.572  0.00  0.00    +0.292 HD
ENDBRANCH  11  18
BRANCH   9  20
ATOM     20  O   LIG A   1      -9.686   0.598 132.061  0.00  0.00    -0.495 OA
ATOM     21  C   LIG A   1      -8.662  -0.380 131.907  0.00  0.00    +0.277 C 
ENDBRANCH   9  20
TORSDOF 3
ENDMDL
MODEL 9
REMARK VINA RESULT:      -6.7      3.756      5.006
REMARK  Name = NuBBE_2431
REMARK  4 active torsions:
REMARK  status: ('A' for Active; 'I' for Inactive)
REMARK    1  A    between atoms: C_6  and  C_9
REMARK    2  A    between atoms: C_16  and  O_20
REMARK    3  A    between atoms: C_18  and  O_19
REMARK    4  A    between atoms: O_20  and  C_21
REMARK                            x       y       z     vdW  Elec       q    Type
REMARK                         _______ _______ _______ _____ _____    ______ ____
ROOT
ATOM      1  O   LIG A   1      -9.903  -0.176 125.526  0.00  0.00    -0.292 OA
ATOM      2  C   LIG A   1      -8.681  -0.226 125.550  0.00  0.00    +0.174 C 
ATOM      3  C   LIG A   1      -7.901  -1.405 125.083  0.00  0.00    +0.101 A 
ATOM      4  C   LIG A   1      -6.514  -1.265 124.999  0.00  0.00    +0.139 A 
ATOM      5  O   LIG A   1      -5.833  -0.116 125.286  0.00  0.00    -0.483 OA
ATOM      6  C   LIG A   1      -6.634   1.070 125.239  0.00  0.00    +0.211 C 
ATOM      7  C   LIG A   1      -7.867   0.916 126.108  0.00  0.00    +0.129 C 
ATOM      8  C   LIG A   1      -5.700  -2.338 124.637  0.00  0.00    +0.092 A 
ATOM      9  C   LIG A   1      -6.265  -3.569 124.322  0.00  0.00    +0.127 A 
ATOM     10  C   LIG A   1      -7.653  -3.717 124.384  0.00  0.00    +0.092 A 
ATOM     11  C   LIG A   1      -8.469  -2.644 124.767  0.00  0.00    +0.134 A 
ENDROOT
BRANCH   6  12
ATOM     12  C   LIG A   1      -5.759   2.227 125.683  0.00  0.00    -0.007 A 
ATOM     13  C   LIG A   1      -4.535   1.978 126.320  0.00  0.00    +0.007 A 
ATOM     14  C   LIG A   1      -3.739   3.036 126.765  0.00  0.00    +0.000 A 
ATOM     15  C   LIG A   1      -4.153   4.353 126.578  0.00  0.00    +0.000 A 
ATOM     16  C   LIG A   1      -5.361   4.617 125.938  0.00  0.00    +0.000 A 
ATOM     17  C   LIG A   1      -6.155   3.562 125.488  0.00  0.00    +0.007 A 
ENDBRANCH   6  12
BRANCH  11  18
ATOM     18  O   LIG A   1      -9.817  -2.839 124.849  0.00  0.00    -0.506 OA
ATOM     19  H   LIG A   1     -10.266  -2.408 124.104  0.00  0.00    +0.292 HD
ENDBRANCH  11  18
BRANCH   9  20
ATOM     20  O   LIG A   1      -5.567  -4.686 123.949  0.00  0.00    -0.495 OA
ATOM     21  C   LIG A   1      -4.203  -4.485 123.589  0.00  0.00    +0.277 C 
ENDBRANCH   9  20
TORSDOF 3
ENDMDL
