MODEL 1
REMARK VINA RESULT:      -8.6      0.000      0.000
REMARK  Name = NuBBE_1290
REMARK  9 active torsions:
REMARK  status: ('A' for Active; 'I' for Inactive)
REMARK    1  A    between atoms: C_1  and  C_2
REMARK    2  A    between atoms: C_9  and  C_17
REMARK    3  A    between atoms: C_10  and  C_12
REMARK    4  A    between atoms: C_12  and  C_13
REMARK    5  A    between atoms: C_13  and  O_15
REMARK    6  A    between atoms: O_15  and  C_16
REMARK    7  A    between atoms: C_22  and  C_25
REMARK    8  A    between atoms: C_30  and  C_31
REMARK    9  A    between atoms: C_32  and  C_35
REMARK                            x       y       z     vdW  Elec       q    Type
REMARK                         _______ _______ _______ _____ _____    ______ ____
ROOT
ATOM      1  C   LIG A   1      -8.440   7.750 130.234  0.00  0.00    +0.019 C 
ATOM      2  C   LIG A   1      -8.932   6.296 130.454  0.00  0.00    +0.024 C 
ATOM      3  C   LIG A   1      -9.461   6.158 131.925  0.00  0.00    +0.158 C 
ATOM      4  C   LIG A   1      -8.354   5.990 132.962  0.00  0.00    +0.153 C 
ATOM      5  C   LIG A   1      -6.963   5.710 132.450  0.00  0.00    +0.046 C 
ATOM      6  C   LIG A   1      -6.533   5.307 131.032  0.00  0.00    +0.040 C 
ATOM      7  C   LIG A   1      -7.783   5.293 130.059  0.00  0.00    +0.026 C 
ATOM      8  C   LIG A   1      -5.664   4.048 130.758  0.00  0.00    +0.020 C 
ATOM      9  C   LIG A   1      -5.394   6.371 130.874  0.00  0.00    +0.162 C 
ATOM     10  O   LIG A   1      -5.188   7.014 129.852  0.00  0.00    -0.292 OA
ATOM     11  C   LIG A   1      -4.481   6.557 132.122  0.00  0.00    +0.043 C 
ATOM     12  C   LIG A   1      -4.797   6.034 133.342  0.00  0.00    -0.014 C 
ATOM     13  C   LIG A   1      -6.088   5.229 133.601  0.00  0.00    +0.016 C 
ATOM     14  C   LIG A   1      -7.067   5.518 134.772  0.00  0.00    +0.171 C 
ATOM     15  O   LIG A   1      -8.419   5.334 134.220  0.00  0.00    -0.373 OA
ATOM     16  C   LIG A   1      -5.732   3.737 133.724  0.00  0.00    +0.018 C 
ATOM     17  O   LIG A   1     -10.535   5.211 131.938  0.00  0.00    -0.366 OA
ATOM     18  C   LIG A   1     -11.211   5.351 130.691  0.00  0.00    +0.146 C 
ATOM     19  C   LIG A   1     -10.274   6.084 129.791  0.00  0.00    -0.033 C 
ATOM     20  C   LIG A   1     -10.928   6.772 128.842  0.00  0.00    -0.063 C 
ATOM     21  C   LIG A   1     -10.360   7.426 127.631  0.00  0.00    +0.040 C 
ATOM     22  C   LIG A   1     -12.401   6.883 129.218  0.00  0.00    +0.051 C 
ATOM     23  C   LIG A   1     -12.425   6.261 130.647  0.00  0.00    +0.048 C 
ENDROOT
BRANCH  22  24
ATOM     24  C   LIG A   1     -12.896   8.310 129.222  0.00  0.00    -0.003 A 
ATOM     25  C   LIG A   1     -12.790   9.285 130.265  0.00  0.00    +0.045 A 
ATOM     26  C   LIG A   1     -13.399  10.430 129.815  0.00  0.00    +0.195 A 
ATOM     27  O   LIG A   1     -13.864  10.245 128.555  0.00  0.00    -0.471 OA
ATOM     28  C   LIG A   1     -13.559   8.970 128.202  0.00  0.00    +0.199 A 
ENDBRANCH  22  24
BRANCH   7  29
ATOM     29  C   LIG A   1      -8.313   3.847 129.731  0.00  0.00    +0.126 C 
BRANCH  29  30
ATOM     30  C   LIG A   1      -8.414   3.433 128.276  0.00  0.00    +0.307 C 
ATOM     31  O   LIG A   1      -8.651   2.295 127.861  0.00  0.00    -0.251 OA
BRANCH  30  32
ATOM     32  O   LIG A   1      -8.134   4.510 127.484  0.00  0.00    -0.468 OA
ATOM     33  C   LIG A   1      -7.802   4.181 126.132  0.00  0.00    +0.280 C 
ENDBRANCH  30  32
ENDBRANCH  29  30
ENDBRANCH   7  29
TORSDOF 4
ENDMDL
MODEL 2
REMARK VINA RESULT:      -8.3      6.043      8.251
REMARK  Name = NuBBE_1290
REMARK  9 active torsions:
REMARK  status: ('A' for Active; 'I' for Inactive)
REMARK    1  A    between atoms: C_1  and  C_2
REMARK    2  A    between atoms: C_9  and  C_17
REMARK    3  A    between atoms: C_10  and  C_12
REMARK    4  A    between atoms: C_12  and  C_13
REMARK    5  A    between atoms: C_13  and  O_15
REMARK    6  A    between atoms: O_15  and  C_16
REMARK    7  A    between atoms: C_22  and  C_25
REMARK    8  A    between atoms: C_30  and  C_31
REMARK    9  A    between atoms: C_32  and  C_35
REMARK                            x       y       z     vdW  Elec       q    Type
REMARK                         _______ _______ _______ _____ _____    ______ ____
ROOT
ATOM      1  C   LIG A   1      -5.623   0.393 126.199  0.00  0.00    +0.019 C 
ATOM      2  C   LIG A   1      -7.156   0.208 126.330  0.00  0.00    +0.024 C 
ATOM      3  C   LIG A   1      -7.735   1.377 127.202  0.00  0.00    +0.158 C 
ATOM      4  C   LIG A   1      -7.535   1.180 128.703  0.00  0.00    +0.153 C 
ATOM      5  C   LIG A   1      -7.078  -0.179 129.167  0.00  0.00    +0.046 C 
ATOM      6  C   LIG A   1      -7.028  -1.492 128.370  0.00  0.00    +0.040 C 
ATOM      7  C   LIG A   1      -7.461  -1.242 126.868  0.00  0.00    +0.026 C 
ATOM      8  C   LIG A   1      -7.702  -2.795 128.882  0.00  0.00    +0.020 C 
ATOM      9  C   LIG A   1      -5.554  -1.876 128.736  0.00  0.00    +0.162 C 
ATOM     10  O   LIG A   1      -4.743  -2.336 127.942  0.00  0.00    -0.292 OA
ATOM     11  C   LIG A   1      -5.162  -1.659 130.228  0.00  0.00    +0.043 C 
ATOM     12  C   LIG A   1      -5.946  -0.953 131.093  0.00  0.00    -0.014 C 
ATOM     13  C   LIG A   1      -7.275  -0.292 130.673  0.00  0.00    +0.016 C 
ATOM     14  C   LIG A   1      -7.637   1.189 130.971  0.00  0.00    +0.171 C 
ATOM     15  O   LIG A   1      -8.329   1.683 129.768  0.00  0.00    -0.373 OA
ATOM     16  C   LIG A   1      -8.445  -1.120 131.235  0.00  0.00    +0.018 C 
ATOM     17  O   LIG A   1      -9.055   1.683 126.740  0.00  0.00    -0.366 OA
ATOM     18  C   LIG A   1      -9.052   1.454 125.334  0.00  0.00    +0.146 C 
ATOM     19  C   LIG A   1      -7.852   0.617 125.051  0.00  0.00    -0.033 C 
ATOM     20  C   LIG A   1      -7.401   0.794 123.799  0.00  0.00    -0.063 C 
ATOM     21  C   LIG A   1      -6.389  -0.018 123.067  0.00  0.00    +0.040 C 
ATOM     22  C   LIG A   1      -8.025   2.053 123.207  0.00  0.00    +0.051 C 
ATOM     23  C   LIG A   1      -8.794   2.645 124.427  0.00  0.00    +0.048 C 
ENDROOT
BRANCH  22  24
ATOM     24  C   LIG A   1      -6.994   3.020 122.675  0.00  0.00    -0.003 A 
ATOM     25  C   LIG A   1      -6.641   3.283 121.313  0.00  0.00    +0.045 A 
ATOM     26  C   LIG A   1      -5.644   4.226 121.326  0.00  0.00    +0.195 A 
ATOM     27  O   LIG A   1      -5.360   4.586 122.601  0.00  0.00    -0.471 OA
ATOM     28  C   LIG A   1      -6.174   3.859 123.410  0.00  0.00    +0.199 A 
ENDBRANCH  22  24
BRANCH   7  29
ATOM     29  C   LIG A   1      -8.924  -1.725 126.542  0.00  0.00    +0.126 C 
BRANCH  29  30
ATOM     30  C   LIG A   1      -9.104  -2.823 125.512  0.00  0.00    +0.307 C 
ATOM     31  O   LIG A   1      -8.660  -3.972 125.595  0.00  0.00    -0.251 OA
BRANCH  30  32
ATOM     32  O   LIG A   1      -9.783  -2.324 124.438  0.00  0.00    -0.468 OA
ATOM     33  C   LIG A   1      -9.150  -2.555 123.177  0.00  0.00    +0.280 C 
ENDBRANCH  30  32
ENDBRANCH  29  30
ENDBRANCH   7  29
TORSDOF 4
ENDMDL
MODEL 3
REMARK VINA RESULT:      -7.9      5.641      8.551
REMARK  Name = NuBBE_1290
REMARK  9 active torsions:
REMARK  status: ('A' for Active; 'I' for Inactive)
REMARK    1  A    between atoms: C_1  and  C_2
REMARK    2  A    between atoms: C_9  and  C_17
REMARK    3  A    between atoms: C_10  and  C_12
REMARK    4  A    between atoms: C_12  and  C_13
REMARK    5  A    between atoms: C_13  and  O_15
REMARK    6  A    between atoms: O_15  and  C_16
REMARK    7  A    between atoms: C_22  and  C_25
REMARK    8  A    between atoms: C_30  and  C_31
REMARK    9  A    between atoms: C_32  and  C_35
REMARK                            x       y       z     vdW  Elec       q    Type
REMARK                         _______ _______ _______ _____ _____    ______ ____
ROOT
ATOM      1  C   LIG A   1      -6.410   0.465 128.042  0.00  0.00    +0.019 C 
ATOM      2  C   LIG A   1      -6.444  -0.628 129.142  0.00  0.00    +0.024 C 
ATOM      3  C   LIG A   1      -7.824  -0.555 129.886  0.00  0.00    +0.158 C 
ATOM      4  C   LIG A   1      -7.903   0.560 130.925  0.00  0.00    +0.153 C 
ATOM      5  C   LIG A   1      -6.615   1.251 131.297  0.00  0.00    +0.046 C 
ATOM      6  C   LIG A   1      -5.176   0.824 130.973  0.00  0.00    +0.040 C 
ATOM      7  C   LIG A   1      -5.177  -0.475 130.066  0.00  0.00    +0.026 C 
ATOM      8  C   LIG A   1      -4.091   0.671 132.075  0.00  0.00    +0.020 C 
ATOM      9  C   LIG A   1      -4.693   2.205 130.412  0.00  0.00    +0.162 C 
ATOM     10  O   LIG A   1      -3.989   2.337 129.418  0.00  0.00    -0.292 OA
ATOM     11  C   LIG A   1      -5.149   3.450 131.229  0.00  0.00    +0.043 C 
ATOM     12  C   LIG A   1      -6.103   3.374 132.203  0.00  0.00    -0.014 C 
ATOM     13  C   LIG A   1      -6.826   2.062 132.570  0.00  0.00    +0.016 C 
ATOM     14  C   LIG A   1      -8.370   1.926 132.678  0.00  0.00    +0.171 C 
ATOM     15  O   LIG A   1      -8.699   0.612 132.101  0.00  0.00    -0.373 OA
ATOM     16  C   LIG A   1      -6.275   1.544 133.910  0.00  0.00    +0.018 C 
ATOM     17  O   LIG A   1      -8.193  -1.876 130.297  0.00  0.00    -0.366 OA
ATOM     18  C   LIG A   1      -7.693  -2.762 129.299  0.00  0.00    +0.146 C 
ATOM     19  C   LIG A   1      -6.676  -1.991 128.530  0.00  0.00    -0.033 C 
ATOM     20  C   LIG A   1      -6.546  -2.446 127.274  0.00  0.00    -0.063 C 
ATOM     21  C   LIG A   1      -5.489  -2.108 126.281  0.00  0.00    +0.040 C 
ATOM     22  C   LIG A   1      -7.731  -3.343 126.933  0.00  0.00    +0.051 C 
ATOM     23  C   LIG A   1      -8.641  -3.178 128.188  0.00  0.00    +0.048 C 
ENDROOT
BRANCH  22  24
ATOM     24  C   LIG A   1      -8.441  -2.918 125.669  0.00  0.00    -0.003 A 
ATOM     25  C   LIG A   1      -8.563  -3.633 124.435  0.00  0.00    +0.045 A 
ATOM     26  C   LIG A   1      -9.281  -2.840 123.576  0.00  0.00    +0.195 A 
ATOM     27  O   LIG A   1      -9.633  -1.685 124.191  0.00  0.00    -0.471 OA
ATOM     28  C   LIG A   1      -9.126  -1.736 125.451  0.00  0.00    +0.199 A 
ENDBRANCH  22  24
BRANCH   7  29
ATOM     29  C   LIG A   1      -4.823  -1.794 130.850  0.00  0.00    +0.126 C 
BRANCH  29  30
ATOM     30  C   LIG A   1      -3.674  -2.643 130.342  0.00  0.00    +0.307 C 
ATOM     31  O   LIG A   1      -2.520  -2.254 130.140  0.00  0.00    -0.251 OA
BRANCH  30  32
ATOM     32  O   LIG A   1      -4.131  -3.902 130.075  0.00  0.00    -0.468 OA
ATOM     33  C   LIG A   1      -4.998  -4.441 131.077  0.00  0.00    +0.280 C 
ENDBRANCH  30  32
ENDBRANCH  29  30
ENDBRANCH   7  29
TORSDOF 4
ENDMDL
MODEL 4
REMARK VINA RESULT:      -7.8      2.917      6.867
REMARK  Name = NuBBE_1290
REMARK  9 active torsions:
REMARK  status: ('A' for Active; 'I' for Inactive)
REMARK    1  A    between atoms: C_1  and  C_2
REMARK    2  A    between atoms: C_9  and  C_17
REMARK    3  A    between atoms: C_10  and  C_12
REMARK    4  A    between atoms: C_12  and  C_13
REMARK    5  A    between atoms: C_13  and  O_15
REMARK    6  A    between atoms: O_15  and  C_16
REMARK    7  A    between atoms: C_22  and  C_25
REMARK    8  A    between atoms: C_30  and  C_31
REMARK    9  A    between atoms: C_32  and  C_35
REMARK                            x       y       z     vdW  Elec       q    Type
REMARK                         _______ _______ _______ _____ _____    ______ ____
ROOT
ATOM      1  C   LIG A   1      -5.088   2.237 128.971  0.00  0.00    +0.019 C 
ATOM      2  C   LIG A   1      -6.085   3.400 128.728  0.00  0.00    +0.024 C 
ATOM      3  C   LIG A   1      -5.537   4.302 127.566  0.00  0.00    +0.158 C 
ATOM      4  C   LIG A   1      -4.441   5.269 128.004  0.00  0.00    +0.153 C 
ATOM      5  C   LIG A   1      -4.217   5.435 129.486  0.00  0.00    +0.046 C 
ATOM      6  C   LIG A   1      -5.110   4.965 130.644  0.00  0.00    +0.040 C 
ATOM      7  C   LIG A   1      -6.349   4.150 130.088  0.00  0.00    +0.026 C 
ATOM      8  C   LIG A   1      -5.598   5.933 131.757  0.00  0.00    +0.020 C 
ATOM      9  C   LIG A   1      -3.983   4.262 131.474  0.00  0.00    +0.162 C 
ATOM     10  O   LIG A   1      -4.114   3.183 132.039  0.00  0.00    -0.292 OA
ATOM     11  C   LIG A   1      -2.642   5.048 131.573  0.00  0.00    +0.043 C 
ATOM     12  C   LIG A   1      -2.373   6.134 130.791  0.00  0.00    -0.014 C 
ATOM     13  C   LIG A   1      -3.359   6.670 129.732  0.00  0.00    +0.016 C 
ATOM     14  C   LIG A   1      -2.965   6.976 128.260  0.00  0.00    +0.171 C 
ATOM     15  O   LIG A   1      -4.102   6.528 127.439  0.00  0.00    -0.373 OA
ATOM     16  C   LIG A   1      -4.007   7.963 130.259  0.00  0.00    +0.018 C 
ATOM     17  O   LIG A   1      -6.649   4.838 126.841  0.00  0.00    -0.366 OA
ATOM     18  C   LIG A   1      -7.670   3.845 126.877  0.00  0.00    +0.146 C 
ATOM     19  C   LIG A   1      -7.301   2.909 127.977  0.00  0.00    -0.033 C 
ATOM     20  C   LIG A   1      -7.797   1.678 127.774  0.00  0.00    -0.063 C 
ATOM     21  C   LIG A   1      -7.853   0.543 128.738  0.00  0.00    +0.040 C 
ATOM     22  C   LIG A   1      -8.249   1.544 126.324  0.00  0.00    +0.051 C 
ATOM     23  C   LIG A   1      -7.764   2.888 125.702  0.00  0.00    +0.048 C 
ENDROOT
BRANCH  22  24
ATOM     24  C   LIG A   1      -7.634   0.352 125.629  0.00  0.00    -0.003 A 
ATOM     25  C   LIG A   1      -6.252   0.101 125.352  0.00  0.00    +0.045 A 
ATOM     26  C   LIG A   1      -6.182  -1.100 124.690  0.00  0.00    +0.195 A 
ATOM     27  O   LIG A   1      -7.423  -1.626 124.550  0.00  0.00    -0.471 OA
ATOM     28  C   LIG A   1      -8.293  -0.751 125.116  0.00  0.00    +0.199 A 
ENDBRANCH  22  24
BRANCH   7  29
ATOM     29  C   LIG A   1      -7.695   4.967 130.090  0.00  0.00    +0.126 C 
BRANCH  29  30
ATOM     30  C   LIG A   1      -8.928   4.316 130.687  0.00  0.00    +0.307 C 
ATOM     31  O   LIG A   1      -8.977   3.706 131.760  0.00  0.00    -0.251 OA
BRANCH  30  32
ATOM     32  O   LIG A   1      -9.972   4.452 129.818  0.00  0.00    -0.468 OA
ATOM     33  C   LIG A   1     -11.176   4.949 130.410  0.00  0.00    +0.280 C 
ENDBRANCH  30  32
ENDBRANCH  29  30
ENDBRANCH   7  29
TORSDOF 4
ENDMDL
MODEL 5
REMARK VINA RESULT:      -7.8      4.231      7.803
REMARK  Name = NuBBE_1290
REMARK  9 active torsions:
REMARK  status: ('A' for Active; 'I' for Inactive)
REMARK    1  A    between atoms: C_1  and  C_2
REMARK    2  A    between atoms: C_9  and  C_17
REMARK    3  A    between atoms: C_10  and  C_12
REMARK    4  A    between atoms: C_12  and  C_13
REMARK    5  A    between atoms: C_13  and  O_15
REMARK    6  A    between atoms: O_15  and  C_16
REMARK    7  A    between atoms: C_22  and  C_25
REMARK    8  A    between atoms: C_30  and  C_31
REMARK    9  A    between atoms: C_32  and  C_35
REMARK                            x       y       z     vdW  Elec       q    Type
REMARK                         _______ _______ _______ _____ _____    ______ ____
ROOT
ATOM      1  C   LIG A   1      -8.584   1.685 127.230  0.00  0.00    +0.019 C 
ATOM      2  C   LIG A   1      -7.230   1.332 127.899  0.00  0.00    +0.024 C 
ATOM      3  C   LIG A   1      -7.504   0.412 129.141  0.00  0.00    +0.158 C 
ATOM      4  C   LIG A   1      -7.971   1.174 130.378  0.00  0.00    +0.153 C 
ATOM      5  C   LIG A   1      -7.852   2.677 130.350  0.00  0.00    +0.046 C 
ATOM      6  C   LIG A   1      -7.083   3.554 129.351  0.00  0.00    +0.040 C 
ATOM      7  C   LIG A   1      -6.442   2.660 128.212  0.00  0.00    +0.026 C 
ATOM      8  C   LIG A   1      -6.042   4.612 129.810  0.00  0.00    +0.020 C 
ATOM      9  C   LIG A   1      -8.252   4.550 129.039  0.00  0.00    +0.162 C 
ATOM     10  O   LIG A   1      -8.521   4.968 127.920  0.00  0.00    -0.292 OA
ATOM     11  C   LIG A   1      -9.070   5.022 130.278  0.00  0.00    +0.043 C 
ATOM     12  C   LIG A   1      -8.954   4.425 131.499  0.00  0.00    -0.014 C 
ATOM     13  C   LIG A   1      -8.022   3.224 131.762  0.00  0.00    +0.016 C 
ATOM     14  C   LIG A   1      -8.475   1.915 132.465  0.00  0.00    +0.171 C 
ATOM     15  O   LIG A   1      -7.805   0.819 131.744  0.00  0.00    -0.373 OA
ATOM     16  C   LIG A   1      -6.792   3.707 132.551  0.00  0.00    +0.018 C 
ATOM     17  O   LIG A   1      -6.406  -0.494 129.291  0.00  0.00    -0.366 OA
ATOM     18  C   LIG A   1      -5.939  -0.782 127.976  0.00  0.00    +0.146 C 
ATOM     19  C   LIG A   1      -6.498   0.282 127.094  0.00  0.00    -0.033 C 
ATOM     20  C   LIG A   1      -6.639  -0.140 125.827  0.00  0.00    -0.063 C 
ATOM     21  C   LIG A   1      -6.934   0.677 124.617  0.00  0.00    +0.040 C 
ATOM     22  C   LIG A   1      -6.537  -1.660 125.784  0.00  0.00    +0.051 C 
ATOM     23  C   LIG A   1      -6.472  -2.031 127.297  0.00  0.00    +0.048 C 
ENDROOT
BRANCH  22  24
ATOM     24  C   LIG A   1      -7.721  -2.305 125.102  0.00  0.00    -0.003 A 
ATOM     25  C   LIG A   1      -7.784  -2.891 123.797  0.00  0.00    +0.045 A 
ATOM     26  C   LIG A   1      -9.071  -3.332 123.612  0.00  0.00    +0.195 A 
ATOM     27  O   LIG A   1      -9.814  -3.079 124.717  0.00  0.00    -0.471 OA
ATOM     28  C   LIG A   1      -8.998  -2.462 125.611  0.00  0.00    +0.199 A 
ENDBRANCH  22  24
BRANCH   7  29
ATOM     29  C   LIG A   1      -4.894   2.432 128.382  0.00  0.00    +0.126 C 
BRANCH  29  30
ATOM     30  C   LIG A   1      -3.979   2.834 127.241  0.00  0.00    +0.307 C 
ATOM     31  O   LIG A   1      -4.313   2.974 126.061  0.00  0.00    -0.251 OA
BRANCH  30  32
ATOM     32  O   LIG A   1      -2.703   2.957 127.711  0.00  0.00    -0.468 OA
ATOM     33  C   LIG A   1      -1.701   3.031 126.694  0.00  0.00    +0.280 C 
ENDBRANCH  30  32
ENDBRANCH  29  30
ENDBRANCH   7  29
TORSDOF 4
ENDMDL
MODEL 6
REMARK VINA RESULT:      -7.6      3.155      7.023
REMARK  Name = NuBBE_1290
REMARK  9 active torsions:
REMARK  status: ('A' for Active; 'I' for Inactive)
REMARK    1  A    between atoms: C_1  and  C_2
REMARK    2  A    between atoms: C_9  and  C_17
REMARK    3  A    between atoms: C_10  and  C_12
REMARK    4  A    between atoms: C_12  and  C_13
REMARK    5  A    between atoms: C_13  and  O_15
REMARK    6  A    between atoms: O_15  and  C_16
REMARK    7  A    between atoms: C_22  and  C_25
REMARK    8  A    between atoms: C_30  and  C_31
REMARK    9  A    between atoms: C_32  and  C_35
REMARK                            x       y       z     vdW  Elec       q    Type
REMARK                         _______ _______ _______ _____ _____    ______ ____
ROOT
ATOM      1  C   LIG A   1      -8.391   2.845 128.780  0.00  0.00    +0.019 C 
ATOM      2  C   LIG A   1      -7.123   2.926 129.669  0.00  0.00    +0.024 C 
ATOM      3  C   LIG A   1      -7.381   2.121 130.991  0.00  0.00    +0.158 C 
ATOM      4  C   LIG A   1      -8.211   2.882 132.022  0.00  0.00    +0.153 C 
ATOM      5  C   LIG A   1      -8.439   4.352 131.776  0.00  0.00    +0.046 C 
ATOM      6  C   LIG A   1      -7.738   5.270 130.764  0.00  0.00    +0.040 C 
ATOM      7  C   LIG A   1      -6.727   4.437 129.873  0.00  0.00    +0.026 C 
ATOM      8  C   LIG A   1      -7.061   6.603 131.187  0.00  0.00    +0.020 C 
ATOM      9  C   LIG A   1      -9.036   5.895 130.149  0.00  0.00    +0.162 C 
ATOM     10  O   LIG A   1      -9.204   6.096 128.952  0.00  0.00    -0.292 OA
ATOM     11  C   LIG A   1     -10.136   6.289 131.179  0.00  0.00    +0.043 C 
ATOM     12  C   LIG A   1     -10.091   5.889 132.483  0.00  0.00    -0.014 C 
ATOM     13  C   LIG A   1      -8.964   5.002 133.051  0.00  0.00    +0.016 C 
ATOM     14  C   LIG A   1      -9.213   3.713 133.882  0.00  0.00    +0.171 C 
ATOM     15  O   LIG A   1      -8.197   2.745 133.436  0.00  0.00    -0.373 OA
ATOM     16  C   LIG A   1      -8.029   5.869 133.912  0.00  0.00    +0.018 C 
ATOM     17  O   LIG A   1      -6.144   1.545 131.425  0.00  0.00    -0.366 OA
ATOM     18  C   LIG A   1      -5.410   1.230 130.245  0.00  0.00    +0.146 C 
ATOM     19  C   LIG A   1      -6.045   2.007 129.142  0.00  0.00    -0.033 C 
ATOM     20  C   LIG A   1      -5.871   1.416 127.949  0.00  0.00    -0.063 C 
ATOM     21  C   LIG A   1      -6.141   1.982 126.598  0.00  0.00    +0.040 C 
ATOM     22  C   LIG A   1      -5.415  -0.024 128.157  0.00  0.00    +0.051 C 
ATOM     23  C   LIG A   1      -5.520  -0.184 129.704  0.00  0.00    +0.048 C 
ENDROOT
BRANCH  22  24
ATOM     24  C   LIG A   1      -6.287  -1.023 127.432  0.00  0.00    -0.003 A 
ATOM     25  C   LIG A   1      -7.666  -1.331 127.664  0.00  0.00    +0.045 A 
ATOM     26  C   LIG A   1      -8.018  -2.312 126.770  0.00  0.00    +0.195 A 
ATOM     27  O   LIG A   1      -6.961  -2.626 125.983  0.00  0.00    -0.471 OA
ATOM     28  C   LIG A   1      -5.922  -1.848 126.384  0.00  0.00    +0.199 A 
ENDBRANCH  22  24
BRANCH   7  29
ATOM     29  C   LIG A   1      -5.218   4.628 130.282  0.00  0.00    +0.126 C 
BRANCH  29  30
ATOM     30  C   LIG A   1      -4.263   5.200 129.251  0.00  0.00    +0.307 C 
ATOM     31  O   LIG A   1      -4.499   6.143 128.491  0.00  0.00    -0.251 OA
BRANCH  30  32
ATOM     32  O   LIG A   1      -3.114   4.463 129.248  0.00  0.00    -0.468 OA
ATOM     33  C   LIG A   1      -2.877   3.740 128.038  0.00  0.00    +0.280 C 
ENDBRANCH  30  32
ENDBRANCH  29  30
ENDBRANCH   7  29
TORSDOF 4
ENDMDL
MODEL 7
REMARK VINA RESULT:      -7.5      3.153      7.264
REMARK  Name = NuBBE_1290
REMARK  9 active torsions:
REMARK  status: ('A' for Active; 'I' for Inactive)
REMARK    1  A    between atoms: C_1  and  C_2
REMARK    2  A    between atoms: C_9  and  C_17
REMARK    3  A    between atoms: C_10  and  C_12
REMARK    4  A    between atoms: C_12  and  C_13
REMARK    5  A    between atoms: C_13  and  O_15
REMARK    6  A    between atoms: O_15  and  C_16
REMARK    7  A    between atoms: C_22  and  C_25
REMARK    8  A    between atoms: C_30  and  C_31
REMARK    9  A    between atoms: C_32  and  C_35
REMARK                            x       y       z     vdW  Elec       q    Type
REMARK                         _______ _______ _______ _____ _____    ______ ____
ROOT
ATOM      1  C   LIG A   1      -4.880   4.791 133.211  0.00  0.00    +0.019 C 
ATOM      2  C   LIG A   1      -5.137   5.218 131.743  0.00  0.00    +0.024 C 
ATOM      3  C   LIG A   1      -6.076   6.476 131.739  0.00  0.00    +0.158 C 
ATOM      4  C   LIG A   1      -7.551   6.142 131.950  0.00  0.00    +0.153 C 
ATOM      5  C   LIG A   1      -7.950   4.691 131.863  0.00  0.00    +0.046 C 
ATOM      6  C   LIG A   1      -7.130   3.506 131.332  0.00  0.00    +0.040 C 
ATOM      7  C   LIG A   1      -5.674   3.981 130.928  0.00  0.00    +0.026 C 
ATOM      8  C   LIG A   1      -7.674   2.549 130.235  0.00  0.00    +0.020 C 
ATOM      9  C   LIG A   1      -7.362   2.555 132.556  0.00  0.00    +0.162 C 
ATOM     10  O   LIG A   1      -6.494   1.853 133.058  0.00  0.00    -0.292 OA
ATOM     11  C   LIG A   1      -8.819   2.525 133.106  0.00  0.00    +0.043 C 
ATOM     12  C   LIG A   1      -9.760   3.440 132.730  0.00  0.00    -0.014 C 
ATOM     13  C   LIG A   1      -9.466   4.590 131.745  0.00  0.00    +0.016 C 
ATOM     14  C   LIG A   1      -9.819   6.077 132.022  0.00  0.00    +0.171 C 
ATOM     15  O   LIG A   1      -8.689   6.863 131.498  0.00  0.00    -0.373 OA
ATOM     16  C   LIG A   1     -10.110   4.263 130.386  0.00  0.00    +0.018 C 
ATOM     17  O   LIG A   1      -5.733   7.299 130.619  0.00  0.00    -0.366 OA
ATOM     18  C   LIG A   1      -4.328   7.158 130.431  0.00  0.00    +0.146 C 
ATOM     19  C   LIG A   1      -3.930   5.931 131.177  0.00  0.00    -0.033 C 
ATOM     20  C   LIG A   1      -2.648   5.978 131.571  0.00  0.00    -0.063 C 
ATOM     21  C   LIG A   1      -1.818   4.872 132.124  0.00  0.00    +0.040 C 
ATOM     22  C   LIG A   1      -2.133   7.409 131.457  0.00  0.00    +0.051 C 
ATOM     23  C   LIG A   1      -3.424   8.194 131.074  0.00  0.00    +0.048 C 
ENDROOT
BRANCH  22  24
ATOM     24  C   LIG A   1      -1.532   7.918 132.746  0.00  0.00    -0.003 A 
ATOM     25  C   LIG A   1      -0.155   7.938 133.138  0.00  0.00    +0.045 A 
ATOM     26  C   LIG A   1      -0.100   8.477 134.399  0.00  0.00    +0.195 A 
ATOM     27  O   LIG A   1      -1.344   8.813 134.817  0.00  0.00    -0.471 OA
ATOM     28  C   LIG A   1      -2.203   8.476 133.820  0.00  0.00    +0.199 A 
ENDBRANCH  22  24
BRANCH   7  29
ATOM     29  C   LIG A   1      -5.466   4.129 129.374  0.00  0.00    +0.126 C 
BRANCH  29  30
ATOM     30  C   LIG A   1      -4.466   3.213 128.694  0.00  0.00    +0.307 C 
ATOM     31  O   LIG A   1      -4.730   2.150 128.124  0.00  0.00    -0.251 OA
BRANCH  30  32
ATOM     32  O   LIG A   1      -3.208   3.716 128.866  0.00  0.00    -0.468 OA
ATOM     33  C   LIG A   1      -2.575   4.154 127.661  0.00  0.00    +0.280 C 
ENDBRANCH  30  32
ENDBRANCH  29  30
ENDBRANCH   7  29
TORSDOF 4
ENDMDL
MODEL 8
REMARK VINA RESULT:      -7.5      5.941      8.146
REMARK  Name = NuBBE_1290
REMARK  9 active torsions:
REMARK  status: ('A' for Active; 'I' for Inactive)
REMARK    1  A    between atoms: C_1  and  C_2
REMARK    2  A    between atoms: C_9  and  C_17
REMARK    3  A    between atoms: C_10  and  C_12
REMARK    4  A    between atoms: C_12  and  C_13
REMARK    5  A    between atoms: C_13  and  O_15
REMARK    6  A    between atoms: O_15  and  C_16
REMARK    7  A    between atoms: C_22  and  C_25
REMARK    8  A    between atoms: C_30  and  C_31
REMARK    9  A    between atoms: C_32  and  C_35
REMARK                            x       y       z     vdW  Elec       q    Type
REMARK                         _______ _______ _______ _____ _____    ______ ____
ROOT
ATOM      1  C   LIG A   1      -5.036  -0.273 131.575  0.00  0.00    +0.019 C 
ATOM      2  C   LIG A   1      -6.394  -1.012 131.461  0.00  0.00    +0.024 C 
ATOM      3  C   LIG A   1      -7.154  -0.887 132.829  0.00  0.00    +0.158 C 
ATOM      4  C   LIG A   1      -6.661  -1.860 133.897  0.00  0.00    +0.153 C 
ATOM      5  C   LIG A   1      -5.736  -2.964 133.451  0.00  0.00    +0.046 C 
ATOM      6  C   LIG A   1      -5.414  -3.419 132.019  0.00  0.00    +0.040 C 
ATOM      7  C   LIG A   1      -6.144  -2.487 130.968  0.00  0.00    +0.026 C 
ATOM      8  C   LIG A   1      -5.559  -4.900 131.571  0.00  0.00    +0.020 C 
ATOM      9  C   LIG A   1      -3.855  -3.410 132.167  0.00  0.00    +0.162 C 
ATOM     10  O   LIG A   1      -3.084  -2.989 131.314  0.00  0.00    -0.292 OA
ATOM     11  C   LIG A   1      -3.309  -4.013 133.496  0.00  0.00    +0.043 C 
ATOM     12  C   LIG A   1      -4.121  -4.289 134.558  0.00  0.00    -0.014 C 
ATOM     13  C   LIG A   1      -5.639  -4.016 134.548  0.00  0.00    +0.016 C 
ATOM     14  C   LIG A   1      -6.387  -3.247 135.673  0.00  0.00    +0.171 C 
ATOM     15  O   LIG A   1      -7.385  -2.407 134.990  0.00  0.00    -0.373 OA
ATOM     16  C   LIG A   1      -6.387  -5.353 134.400  0.00  0.00    +0.018 C 
ATOM     17  O   LIG A   1      -8.561  -0.842 132.568  0.00  0.00    -0.366 OA
ATOM     18  C   LIG A   1      -8.719  -0.164 131.325  0.00  0.00    +0.146 C 
ATOM     19  C   LIG A   1      -7.382  -0.188 130.666  0.00  0.00    -0.033 C 
ATOM     20  C   LIG A   1      -7.220   0.845 129.824  0.00  0.00    -0.063 C 
ATOM     21  C   LIG A   1      -6.141   1.044 128.816  0.00  0.00    +0.040 C 
ATOM     22  C   LIG A   1      -8.290   1.896 130.096  0.00  0.00    +0.051 C 
ATOM     23  C   LIG A   1      -8.994   1.329 131.366  0.00  0.00    +0.048 C 
ENDROOT
BRANCH  22  24
ATOM     24  C   LIG A   1      -7.710   3.268 130.345  0.00  0.00    -0.003 A 
ATOM     25  C   LIG A   1      -6.861   3.694 131.417  0.00  0.00    +0.045 A 
ATOM     26  C   LIG A   1      -6.607   5.029 131.228  0.00  0.00    +0.195 A 
ATOM     27  O   LIG A   1      -7.223   5.466 130.103  0.00  0.00    -0.471 OA
ATOM     28  C   LIG A   1      -7.884   4.404 129.574  0.00  0.00    +0.199 A 
ENDBRANCH  22  24
BRANCH   7  29
ATOM     29  C   LIG A   1      -7.419  -3.143 130.317  0.00  0.00    +0.126 C 
BRANCH  29  30
ATOM     30  C   LIG A   1      -7.575  -3.068 128.810  0.00  0.00    +0.307 C 
ATOM     31  O   LIG A   1      -6.784  -2.533 128.027  0.00  0.00    -0.251 OA
BRANCH  30  32
ATOM     32  O   LIG A   1      -8.767  -3.629 128.455  0.00  0.00    -0.468 OA
ATOM     33  C   LIG A   1      -9.011  -3.661 127.046  0.00  0.00    +0.280 C 
ENDBRANCH  30  32
ENDBRANCH  29  30
ENDBRANCH   7  29
TORSDOF 4
ENDMDL
MODEL 9
REMARK VINA RESULT:      -7.5      7.131     10.086
REMARK  Name = NuBBE_1290
REMARK  9 active torsions:
REMARK  status: ('A' for Active; 'I' for Inactive)
REMARK    1  A    between atoms: C_1  and  C_2
REMARK    2  A    between atoms: C_9  and  C_17
REMARK    3  A    between atoms: C_10  and  C_12
REMARK    4  A    between atoms: C_12  and  C_13
REMARK    5  A    between atoms: C_13  and  O_15
REMARK    6  A    between atoms: O_15  and  C_16
REMARK    7  A    between atoms: C_22  and  C_25
REMARK    8  A    between atoms: C_30  and  C_31
REMARK    9  A    between atoms: C_32  and  C_35
REMARK                            x       y       z     vdW  Elec       q    Type
REMARK                         _______ _______ _______ _____ _____    ______ ____
ROOT
ATOM      1  C   LIG A   1      -8.639  -0.259 126.981  0.00  0.00    +0.019 C 
ATOM      2  C   LIG A   1      -7.179  -0.488 126.512  0.00  0.00    +0.024 C 
ATOM      3  C   LIG A   1      -6.327   0.780 126.870  0.00  0.00    +0.158 C 
ATOM      4  C   LIG A   1      -6.509   1.939 125.893  0.00  0.00    +0.153 C 
ATOM      5  C   LIG A   1      -7.236   1.648 124.604  0.00  0.00    +0.046 C 
ATOM      6  C   LIG A   1      -7.601   0.283 124.002  0.00  0.00    +0.040 C 
ATOM      7  C   LIG A   1      -7.179  -0.884 124.987  0.00  0.00    +0.026 C 
ATOM      8  C   LIG A   1      -7.210  -0.112 122.551  0.00  0.00    +0.020 C 
ATOM      9  C   LIG A   1      -9.109   0.601 123.720  0.00  0.00    +0.162 C 
ATOM     10  O   LIG A   1     -10.029  -0.181 123.928  0.00  0.00    -0.292 OA
ATOM     11  C   LIG A   1      -9.389   2.007 123.113  0.00  0.00    +0.043 C 
ATOM     12  C   LIG A   1      -8.438   2.985 123.069  0.00  0.00    -0.014 C 
ATOM     13  C   LIG A   1      -7.012   2.796 123.628  0.00  0.00    +0.016 C 
ATOM     14  C   LIG A   1      -6.325   3.795 124.599  0.00  0.00    +0.171 C 
ATOM     15  O   LIG A   1      -5.586   2.969 125.568  0.00  0.00    -0.373 OA
ATOM     16  C   LIG A   1      -6.032   2.626 122.454  0.00  0.00    +0.018 C 
ATOM     17  O   LIG A   1      -4.990   0.364 127.168  0.00  0.00    -0.366 OA
ATOM     18  C   LIG A   1      -5.094  -0.918 127.781  0.00  0.00    +0.146 C 
ATOM     19  C   LIG A   1      -6.458  -1.424 127.456  0.00  0.00    -0.033 C 
ATOM     20  C   LIG A   1      -6.905  -2.288 128.380  0.00  0.00    -0.063 C 
ATOM     21  C   LIG A   1      -8.096  -3.179 128.301  0.00  0.00    +0.040 C 
ATOM     22  C   LIG A   1      -6.043  -2.183 129.633  0.00  0.00    +0.051 C 
ATOM     23  C   LIG A   1      -5.119  -0.975 129.298  0.00  0.00    +0.048 C 
ENDROOT
BRANCH  22  24
ATOM     24  C   LIG A   1      -6.857  -1.935 130.881  0.00  0.00    -0.003 A 
ATOM     25  C   LIG A   1      -6.983  -2.766 132.040  0.00  0.00    +0.045 A 
ATOM     26  C   LIG A   1      -7.840  -2.130 132.904  0.00  0.00    +0.195 A 
ATOM     27  O   LIG A   1      -8.246  -0.951 132.374  0.00  0.00    -0.471 OA
ATOM     28  C   LIG A   1      -7.652  -0.836 131.158  0.00  0.00    +0.199 A 
ENDBRANCH  22  24
BRANCH   7  29
ATOM     29  C   LIG A   1      -5.870  -1.641 124.546  0.00  0.00    +0.126 C 
BRANCH  29  30
ATOM     30  C   LIG A   1      -5.939  -3.145 124.362  0.00  0.00    +0.307 C 
ATOM     31  O   LIG A   1      -6.964  -3.804 124.164  0.00  0.00    -0.251 OA
BRANCH  30  32
ATOM     32  O   LIG A   1      -4.689  -3.672 124.515  0.00  0.00    -0.468 OA
ATOM     33  C   LIG A   1      -4.258  -4.499 123.431  0.00  0.00    +0.280 C 
ENDBRANCH  30  32
ENDBRANCH  29  30
ENDBRANCH   7  29
TORSDOF 4
ENDMDL
