MODEL 1
REMARK VINA RESULT:      -7.4      0.000      0.000
REMARK  Name = NuBBE_2203
REMARK  2 active torsions:
REMARK  status: ('A' for Active; 'I' for Inactive)
REMARK    1  A    between atoms: N_15  and  O_19
REMARK    2  A    between atoms: O_19  and  C_20
REMARK                            x       y       z     vdW  Elec       q    Type
REMARK                         _______ _______ _______ _____ _____    ______ ____
ROOT
ATOM      1  O   LIG A   1      -4.239   4.026 125.133  0.00  0.00    -0.267 OA
ATOM      2  C   LIG A   1      -5.326   3.464 125.066  0.00  0.00    +0.256 A 
ATOM      3  N   LIG A   1      -6.139   3.361 123.953  0.00  0.00    -0.274 N 
ATOM      4  C   LIG A   1      -7.337   2.698 123.992  0.00  0.00    +0.085 A 
ATOM      5  C   LIG A   1      -7.965   2.759 122.703  0.00  0.00    +0.015 A 
ATOM      6  C   LIG A   1      -7.057   3.509 121.829  0.00  0.00    +0.008 A 
ATOM      7  C   LIG A   1      -5.943   3.864 122.643  0.00  0.00    +0.058 A 
ATOM      8  C   LIG A   1      -4.883   4.588 122.135  0.00  0.00    +0.027 A 
ATOM      9  C   LIG A   1      -4.946   4.961 120.788  0.00  0.00    +0.002 A 
ATOM     10  C   LIG A   1      -6.049   4.611 119.982  0.00  0.00    +0.001 A 
ATOM     11  C   LIG A   1      -7.121   3.877 120.500  0.00  0.00    +0.010 A 
ATOM     12  C   LIG A   1      -9.167   2.196 122.530  0.00  0.00    +0.084 A 
ATOM     13  C   LIG A   1      -9.822   1.516 123.711  0.00  0.00    +0.284 A 
ATOM     14  O   LIG A   1     -10.952   1.054 123.567  0.00  0.00    -0.265 OA
ATOM     15  N   LIG A   1      -9.062   1.458 124.884  0.00  0.00    -0.142 N 
ATOM     16  C   LIG A   1      -7.853   2.090 125.055  0.00  0.00    +0.109 A 
ATOM     17  C   LIG A   1      -7.081   2.152 126.278  0.00  0.00    +0.037 A 
ATOM     18  C   LIG A   1      -5.894   2.792 126.298  0.00  0.00    +0.073 A 
ENDROOT
BRANCH  15  19
ATOM     19  O   LIG A   1      -9.691   0.966 126.051  0.00  0.00    -0.411 OA
ATOM     20  C   LIG A   1      -9.359  -0.412 126.218  0.00  0.00    +0.311 C 
ENDBRANCH  15  19
TORSDOF 1
ENDMDL
MODEL 2
REMARK VINA RESULT:      -7.3      2.392      6.105
REMARK  Name = NuBBE_2203
REMARK  2 active torsions:
REMARK  status: ('A' for Active; 'I' for Inactive)
REMARK    1  A    between atoms: N_15  and  O_19
REMARK    2  A    between atoms: O_19  and  C_20
REMARK                            x       y       z     vdW  Elec       q    Type
REMARK                         _______ _______ _______ _____ _____    ______ ____
ROOT
ATOM      1  O   LIG A   1     -10.594   0.284 122.439  0.00  0.00    -0.267 OA
ATOM      2  C   LIG A   1      -9.626   0.736 123.039  0.00  0.00    +0.256 A 
ATOM      3  N   LIG A   1      -8.670   0.015 123.730  0.00  0.00    -0.274 N 
ATOM      4  C   LIG A   1      -7.620   0.628 124.361  0.00  0.00    +0.085 A 
ATOM      5  C   LIG A   1      -6.796  -0.359 124.999  0.00  0.00    +0.015 A 
ATOM      6  C   LIG A   1      -7.405  -1.662 124.711  0.00  0.00    +0.008 A 
ATOM      7  C   LIG A   1      -8.561  -1.383 123.926  0.00  0.00    +0.058 A 
ATOM      8  C   LIG A   1      -9.383  -2.396 123.475  0.00  0.00    +0.027 A 
ATOM      9  C   LIG A   1      -9.038  -3.707 123.817  0.00  0.00    +0.002 A 
ATOM     10  C   LIG A   1      -7.894  -3.983 124.595  0.00  0.00    +0.001 A 
ATOM     11  C   LIG A   1      -7.063  -2.955 125.051  0.00  0.00    +0.010 A 
ATOM     12  C   LIG A   1      -5.727   0.033 125.702  0.00  0.00    +0.084 A 
ATOM     13  C   LIG A   1      -5.428   1.511 125.799  0.00  0.00    +0.284 A 
ATOM     14  O   LIG A   1      -4.481   1.873 126.495  0.00  0.00    -0.265 OA
ATOM     15  N   LIG A   1      -6.263   2.355 125.059  0.00  0.00    -0.142 N 
ATOM     16  C   LIG A   1      -7.388   1.937 124.388  0.00  0.00    +0.109 A 
ATOM     17  C   LIG A   1      -8.343   2.781 123.701  0.00  0.00    +0.037 A 
ATOM     18  C   LIG A   1      -9.397   2.232 123.064  0.00  0.00    +0.073 A 
ENDROOT
BRANCH  15  19
ATOM     19  O   LIG A   1      -6.113   3.750 125.238  0.00  0.00    -0.411 OA
ATOM     20  C   LIG A   1      -5.287   4.271 124.198  0.00  0.00    +0.311 C 
ENDBRANCH  15  19
TORSDOF 1
ENDMDL
MODEL 3
REMARK VINA RESULT:      -7.1      2.634      6.694
REMARK  Name = NuBBE_2203
REMARK  2 active torsions:
REMARK  status: ('A' for Active; 'I' for Inactive)
REMARK    1  A    between atoms: N_15  and  O_19
REMARK    2  A    between atoms: O_19  and  C_20
REMARK                            x       y       z     vdW  Elec       q    Type
REMARK                         _______ _______ _______ _____ _____    ______ ____
ROOT
ATOM      1  O   LIG A   1      -8.912  -3.728 124.316  0.00  0.00    -0.267 OA
ATOM      2  C   LIG A   1      -8.923  -2.504 124.248  0.00  0.00    +0.256 A 
ATOM      3  N   LIG A   1      -8.659  -1.615 125.273  0.00  0.00    -0.274 N 
ATOM      4  C   LIG A   1      -8.694  -0.259 125.081  0.00  0.00    +0.085 A 
ATOM      5  C   LIG A   1      -8.388   0.412 126.312  0.00  0.00    +0.015 A 
ATOM      6  C   LIG A   1      -8.142  -0.635 127.310  0.00  0.00    +0.008 A 
ATOM      7  C   LIG A   1      -8.322  -1.871 126.625  0.00  0.00    +0.058 A 
ATOM      8  C   LIG A   1      -8.168  -3.080 127.273  0.00  0.00    +0.027 A 
ATOM      9  C   LIG A   1      -7.827  -3.045 128.629  0.00  0.00    +0.002 A 
ATOM     10  C   LIG A   1      -7.649  -1.821 129.307  0.00  0.00    +0.001 A 
ATOM     11  C   LIG A   1      -7.806  -0.598 128.647  0.00  0.00    +0.010 A 
ATOM     12  C   LIG A   1      -8.399   1.749 126.351  0.00  0.00    +0.084 A 
ATOM     13  C   LIG A   1      -8.737   2.506 125.087  0.00  0.00    +0.284 A 
ATOM     14  O   LIG A   1      -8.806   3.732 125.140  0.00  0.00    -0.265 OA
ATOM     15  N   LIG A   1      -8.930   1.729 123.940  0.00  0.00    -0.142 N 
ATOM     16  C   LIG A   1      -8.969   0.354 123.934  0.00  0.00    +0.109 A 
ATOM     17  C   LIG A   1      -9.273  -0.492 122.800  0.00  0.00    +0.037 A 
ATOM     18  C   LIG A   1      -9.256  -1.834 122.932  0.00  0.00    +0.073 A 
ENDROOT
BRANCH  15  19
ATOM     19  O   LIG A   1      -9.394   2.381 122.774  0.00  0.00    -0.411 OA
ATOM     20  C   LIG A   1      -8.290   2.988 122.105  0.00  0.00    +0.311 C 
ENDBRANCH  15  19
TORSDOF 1
ENDMDL
MODEL 4
REMARK VINA RESULT:      -7.0      2.690      5.284
REMARK  Name = NuBBE_2203
REMARK  2 active torsions:
REMARK  status: ('A' for Active; 'I' for Inactive)
REMARK    1  A    between atoms: N_15  and  O_19
REMARK    2  A    between atoms: O_19  and  C_20
REMARK                            x       y       z     vdW  Elec       q    Type
REMARK                         _______ _______ _______ _____ _____    ______ ____
ROOT
ATOM      1  O   LIG A   1      -5.319  -1.349 126.875  0.00  0.00    -0.267 OA
ATOM      2  C   LIG A   1      -5.774  -0.425 126.210  0.00  0.00    +0.256 A 
ATOM      3  N   LIG A   1      -6.796  -0.497 125.281  0.00  0.00    -0.274 N 
ATOM      4  C   LIG A   1      -7.230   0.609 124.599  0.00  0.00    +0.085 A 
ATOM      5  C   LIG A   1      -8.287   0.238 123.702  0.00  0.00    +0.015 A 
ATOM      6  C   LIG A   1      -8.502  -1.202 123.879  0.00  0.00    +0.008 A 
ATOM      7  C   LIG A   1      -7.558  -1.615 124.862  0.00  0.00    +0.058 A 
ATOM      8  C   LIG A   1      -7.479  -2.930 125.275  0.00  0.00    +0.027 A 
ATOM      9  C   LIG A   1      -8.363  -3.842 124.691  0.00  0.00    +0.002 A 
ATOM     10  C   LIG A   1      -9.298  -3.433 123.716  0.00  0.00    +0.001 A 
ATOM     11  C   LIG A   1      -9.375  -2.100 123.301  0.00  0.00    +0.010 A 
ATOM     12  C   LIG A   1      -8.836   1.170 122.913  0.00  0.00    +0.084 A 
ATOM     13  C   LIG A   1      -8.313   2.586 122.996  0.00  0.00    +0.284 A 
ATOM     14  O   LIG A   1      -8.775   3.426 122.228  0.00  0.00    -0.265 OA
ATOM     15  N   LIG A   1      -7.340   2.824 123.973  0.00  0.00    -0.142 N 
ATOM     16  C   LIG A   1      -6.752   1.841 124.735  0.00  0.00    +0.109 A 
ATOM     17  C   LIG A   1      -5.667   2.019 125.677  0.00  0.00    +0.037 A 
ATOM     18  C   LIG A   1      -5.199   0.964 126.376  0.00  0.00    +0.073 A 
ENDROOT
BRANCH  15  19
ATOM     19  O   LIG A   1      -6.718   4.094 123.985  0.00  0.00    -0.411 OA
ATOM     20  C   LIG A   1      -5.713   4.134 122.973  0.00  0.00    +0.311 C 
ENDBRANCH  15  19
TORSDOF 1
ENDMDL
MODEL 5
REMARK VINA RESULT:      -6.8      2.848      7.167
REMARK  Name = NuBBE_2203
REMARK  2 active torsions:
REMARK  status: ('A' for Active; 'I' for Inactive)
REMARK    1  A    between atoms: N_15  and  O_19
REMARK    2  A    between atoms: O_19  and  C_20
REMARK                            x       y       z     vdW  Elec       q    Type
REMARK                         _______ _______ _______ _____ _____    ______ ____
ROOT
ATOM      1  O   LIG A   1      -9.745  -3.295 123.974  0.00  0.00    -0.267 OA
ATOM      2  C   LIG A   1      -9.117  -2.257 124.149  0.00  0.00    +0.256 A 
ATOM      3  N   LIG A   1      -8.541  -1.826 125.330  0.00  0.00    -0.274 N 
ATOM      4  C   LIG A   1      -7.851  -0.646 125.408  0.00  0.00    +0.085 A 
ATOM      5  C   LIG A   1      -7.374  -0.453 126.748  0.00  0.00    +0.015 A 
ATOM      6  C   LIG A   1      -7.810  -1.621 127.520  0.00  0.00    +0.008 A 
ATOM      7  C   LIG A   1      -8.529  -2.443 126.605  0.00  0.00    +0.058 A 
ATOM      8  C   LIG A   1      -9.089  -3.640 127.002  0.00  0.00    +0.027 A 
ATOM      9  C   LIG A   1      -8.924  -4.016 128.339  0.00  0.00    +0.002 A 
ATOM     10  C   LIG A   1      -8.212  -3.203 129.245  0.00  0.00    +0.001 A 
ATOM     11  C   LIG A   1      -7.646  -1.990 128.839  0.00  0.00    +0.010 A 
ATOM     12  C   LIG A   1      -6.697   0.661 127.050  0.00  0.00    +0.084 A 
ATOM     13  C   LIG A   1      -6.461   1.682 125.960  0.00  0.00    +0.284 A 
ATOM     14  O   LIG A   1      -5.893   2.731 126.253  0.00  0.00    -0.265 OA
ATOM     15  N   LIG A   1      -6.906   1.327 124.682  0.00  0.00    -0.142 N 
ATOM     16  C   LIG A   1      -7.648   0.202 124.405  0.00  0.00    +0.109 A 
ATOM     17  C   LIG A   1      -8.224  -0.154 123.125  0.00  0.00    +0.037 A 
ATOM     18  C   LIG A   1      -8.915  -1.305 122.991  0.00  0.00    +0.073 A 
ENDROOT
BRANCH  15  19
ATOM     19  O   LIG A   1      -6.842   2.309 123.667  0.00  0.00    -0.411 OA
ATOM     20  C   LIG A   1      -7.978   3.166 123.770  0.00  0.00    +0.311 C 
ENDBRANCH  15  19
TORSDOF 1
ENDMDL
MODEL 6
REMARK VINA RESULT:      -6.8      3.201      4.924
REMARK  Name = NuBBE_2203
REMARK  2 active torsions:
REMARK  status: ('A' for Active; 'I' for Inactive)
REMARK    1  A    between atoms: N_15  and  O_19
REMARK    2  A    between atoms: O_19  and  C_20
REMARK                            x       y       z     vdW  Elec       q    Type
REMARK                         _______ _______ _______ _____ _____    ______ ____
ROOT
ATOM      1  O   LIG A   1      -6.940  -1.527 128.023  0.00  0.00    -0.267 OA
ATOM      2  C   LIG A   1      -7.292  -0.611 127.289  0.00  0.00    +0.256 A 
ATOM      3  N   LIG A   1      -7.131  -0.538 125.918  0.00  0.00    -0.274 N 
ATOM      4  C   LIG A   1      -7.573   0.538 125.195  0.00  0.00    +0.085 A 
ATOM      5  C   LIG A   1      -7.266   0.346 123.807  0.00  0.00    +0.015 A 
ATOM      6  C   LIG A   1      -6.597  -0.955 123.701  0.00  0.00    +0.008 A 
ATOM      7  C   LIG A   1      -6.533  -1.465 125.030  0.00  0.00    +0.058 A 
ATOM      8  C   LIG A   1      -5.955  -2.689 125.302  0.00  0.00    +0.027 A 
ATOM      9  C   LIG A   1      -5.434  -3.410 124.223  0.00  0.00    +0.002 A 
ATOM     10  C   LIG A   1      -5.497  -2.904 122.907  0.00  0.00    +0.001 A 
ATOM     11  C   LIG A   1      -6.084  -1.664 122.635  0.00  0.00    +0.010 A 
ATOM     12  C   LIG A   1      -7.587   1.300 122.925  0.00  0.00    +0.084 A 
ATOM     13  C   LIG A   1      -8.264   2.554 123.431  0.00  0.00    +0.284 A 
ATOM     14  O   LIG A   1      -8.502   3.455 122.630  0.00  0.00    -0.265 OA
ATOM     15  N   LIG A   1      -8.580   2.571 124.794  0.00  0.00    -0.142 N 
ATOM     16  C   LIG A   1      -8.192   1.604 125.691  0.00  0.00    +0.109 A 
ATOM     17  C   LIG A   1      -8.399   1.629 127.124  0.00  0.00    +0.037 A 
ATOM     18  C   LIG A   1      -7.982   0.597 127.886  0.00  0.00    +0.073 A 
ENDROOT
BRANCH  15  19
ATOM     19  O   LIG A   1      -9.076   3.779 125.338  0.00  0.00    -0.411 OA
ATOM     20  C   LIG A   1      -7.986   4.669 125.576  0.00  0.00    +0.311 C 
ENDBRANCH  15  19
TORSDOF 1
ENDMDL
MODEL 7
REMARK VINA RESULT:      -6.7      3.810      6.805
REMARK  Name = NuBBE_2203
REMARK  2 active torsions:
REMARK  status: ('A' for Active; 'I' for Inactive)
REMARK    1  A    between atoms: N_15  and  O_19
REMARK    2  A    between atoms: O_19  and  C_20
REMARK                            x       y       z     vdW  Elec       q    Type
REMARK                         _______ _______ _______ _____ _____    ______ ____
ROOT
ATOM      1  O   LIG A   1      -5.542   1.144 127.646  0.00  0.00    -0.267 OA
ATOM      2  C   LIG A   1      -6.242   0.537 126.844  0.00  0.00    +0.256 A 
ATOM      3  N   LIG A   1      -6.958  -0.622 127.080  0.00  0.00    -0.274 N 
ATOM      4  C   LIG A   1      -7.718  -1.213 126.106  0.00  0.00    +0.085 A 
ATOM      5  C   LIG A   1      -8.339  -2.396 126.629  0.00  0.00    +0.015 A 
ATOM      6  C   LIG A   1      -7.920  -2.505 128.030  0.00  0.00    +0.008 A 
ATOM      7  C   LIG A   1      -7.066  -1.390 128.266  0.00  0.00    +0.058 A 
ATOM      8  C   LIG A   1      -6.483  -1.179 129.499  0.00  0.00    +0.027 A 
ATOM      9  C   LIG A   1      -6.762  -2.105 130.510  0.00  0.00    +0.002 A 
ATOM     10  C   LIG A   1      -7.607  -3.210 130.276  0.00  0.00    +0.001 A 
ATOM     11  C   LIG A   1      -8.196  -3.420 129.026  0.00  0.00    +0.010 A 
ATOM     12  C   LIG A   1      -9.105  -3.145 125.827  0.00  0.00    +0.084 A 
ATOM     13  C   LIG A   1      -9.285  -2.713 124.389  0.00  0.00    +0.284 A 
ATOM     14  O   LIG A   1      -9.938  -3.434 123.639  0.00  0.00    -0.265 OA
ATOM     15  N   LIG A   1      -8.693  -1.495 124.037  0.00  0.00    -0.142 N 
ATOM     16  C   LIG A   1      -7.865  -0.770 124.862  0.00  0.00    +0.109 A 
ATOM     17  C   LIG A   1      -7.142   0.435 124.510  0.00  0.00    +0.037 A 
ATOM     18  C   LIG A   1      -6.378   1.058 125.430  0.00  0.00    +0.073 A 
ENDROOT
BRANCH  15  19
ATOM     19  O   LIG A   1      -8.709  -1.127 122.672  0.00  0.00    -0.411 OA
ATOM     20  C   LIG A   1      -9.857  -0.320 122.417  0.00  0.00    +0.311 C 
ENDBRANCH  15  19
TORSDOF 1
ENDMDL
MODEL 8
REMARK VINA RESULT:      -6.7      2.955      6.416
REMARK  Name = NuBBE_2203
REMARK  2 active torsions:
REMARK  status: ('A' for Active; 'I' for Inactive)
REMARK    1  A    between atoms: N_15  and  O_19
REMARK    2  A    between atoms: O_19  and  C_20
REMARK                            x       y       z     vdW  Elec       q    Type
REMARK                         _______ _______ _______ _____ _____    ______ ____
ROOT
ATOM      1  O   LIG A   1      -9.795  -1.014 122.765  0.00  0.00    -0.267 OA
ATOM      2  C   LIG A   1      -9.447  -0.089 123.491  0.00  0.00    +0.256 A 
ATOM      3  N   LIG A   1      -8.979  -0.184 124.788  0.00  0.00    -0.274 N 
ATOM      4  C   LIG A   1      -8.610   0.923 125.506  0.00  0.00    +0.085 A 
ATOM      5  C   LIG A   1      -8.175   0.527 126.814  0.00  0.00    +0.015 A 
ATOM      6  C   LIG A   1      -8.287  -0.935 126.869  0.00  0.00    +0.008 A 
ATOM      7  C   LIG A   1      -8.789  -1.331 125.597  0.00  0.00    +0.058 A 
ATOM      8  C   LIG A   1      -9.021  -2.659 125.298  0.00  0.00    +0.027 A 
ATOM      9  C   LIG A   1      -8.743  -3.601 126.294  0.00  0.00    +0.002 A 
ATOM     10  C   LIG A   1      -8.246  -3.208 127.554  0.00  0.00    +0.001 A 
ATOM     11  C   LIG A   1      -8.012  -1.862 127.853  0.00  0.00    +0.010 A 
ATOM     12  C   LIG A   1      -7.798   1.464 127.692  0.00  0.00    +0.084 A 
ATOM     13  C   LIG A   1      -7.847   2.914 127.268  0.00  0.00    +0.284 A 
ATOM     14  O   LIG A   1      -7.559   3.776 128.094  0.00  0.00    -0.265 OA
ATOM     15  N   LIG A   1      -8.209   3.150 125.937  0.00  0.00    -0.142 N 
ATOM     16  C   LIG A   1      -8.646   2.177 125.069  0.00  0.00    +0.109 A 
ATOM     17  C   LIG A   1      -9.134   2.384 123.721  0.00  0.00    +0.037 A 
ATOM     18  C   LIG A   1      -9.513   1.330 122.970  0.00  0.00    +0.073 A 
ENDROOT
BRANCH  15  19
ATOM     19  O   LIG A   1      -8.413   4.493 125.540  0.00  0.00    -0.411 OA
ATOM     20  C   LIG A   1      -7.157   5.074 125.189  0.00  0.00    +0.311 C 
ENDBRANCH  15  19
TORSDOF 1
ENDMDL
MODEL 9
REMARK VINA RESULT:      -6.5      4.038      6.272
REMARK  Name = NuBBE_2203
REMARK  2 active torsions:
REMARK  status: ('A' for Active; 'I' for Inactive)
REMARK    1  A    between atoms: N_15  and  O_19
REMARK    2  A    between atoms: O_19  and  C_20
REMARK                            x       y       z     vdW  Elec       q    Type
REMARK                         _______ _______ _______ _____ _____    ______ ____
ROOT
ATOM      1  O   LIG A   1      -7.876   1.824 124.801  0.00  0.00    -0.267 OA
ATOM      2  C   LIG A   1      -7.796   1.134 125.811  0.00  0.00    +0.256 A 
ATOM      3  N   LIG A   1      -8.078  -0.215 125.918  0.00  0.00    -0.274 N 
ATOM      4  C   LIG A   1      -7.945  -0.889 127.103  0.00  0.00    +0.085 A 
ATOM      5  C   LIG A   1      -8.312  -2.264 126.920  0.00  0.00    +0.015 A 
ATOM      6  C   LIG A   1      -8.680  -2.416 125.508  0.00  0.00    +0.008 A 
ATOM      7  C   LIG A   1      -8.523  -1.124 124.928  0.00  0.00    +0.058 A 
ATOM      8  C   LIG A   1      -8.791  -0.900 123.592  0.00  0.00    +0.027 A 
ATOM      9  C   LIG A   1      -9.222  -1.990 122.830  0.00  0.00    +0.002 A 
ATOM     10  C   LIG A   1      -9.378  -3.269 123.405  0.00  0.00    +0.001 A 
ATOM     11  C   LIG A   1      -9.106  -3.492 124.758  0.00  0.00    +0.010 A 
ATOM     12  C   LIG A   1      -8.282  -3.097 127.967  0.00  0.00    +0.084 A 
ATOM     13  C   LIG A   1      -7.863  -2.550 129.313  0.00  0.00    +0.284 A 
ATOM     14  O   LIG A   1      -7.895  -3.301 130.285  0.00  0.00    -0.265 OA
ATOM     15  N   LIG A   1      -7.451  -1.214 129.330  0.00  0.00    -0.142 N 
ATOM     16  C   LIG A   1      -7.541  -0.362 128.254  0.00  0.00    +0.109 A 
ATOM     17  C   LIG A   1      -7.233   1.053 128.249  0.00  0.00    +0.037 A 
ATOM     18  C   LIG A   1      -7.347   1.767 127.111  0.00  0.00    +0.073 A 
ENDROOT
BRANCH  15  19
ATOM     19  O   LIG A   1      -7.194  -0.621 130.588  0.00  0.00    -0.411 OA
ATOM     20  C   LIG A   1      -5.814  -0.784 130.911  0.00  0.00    +0.311 C 
ENDBRANCH  15  19
TORSDOF 1
ENDMDL
