MODEL 1
REMARK VINA RESULT:      -7.3      0.000      0.000
REMARK  Name = NuBBE_111
REMARK  20 active torsions:
REMARK  status: ('A' for Active; 'I' for Inactive)
REMARK    1  A    between atoms: C_2  and  C_3
REMARK    2  A    between atoms: C_2  and  O_43
REMARK    3  A    between atoms: C_6  and  O_26
REMARK    4  A    between atoms: C_8  and  C_16
REMARK    5  A    between atoms: C_10  and  C_12
REMARK    6  A    between atoms: C_12  and  C_13
REMARK    7  A    between atoms: C_13  and  O_14
REMARK    8  A    between atoms: C_16  and  C_18
REMARK    9  A    between atoms: C_16  and  O_19
REMARK   10  A    between atoms: O_19  and  C_20
REMARK   11  A    between atoms: C_20  and  C_21
REMARK   12  A    between atoms: C_21  and  C_22
REMARK   13  A    between atoms: C_23  and  C_24
REMARK   14  A    between atoms: O_26  and  C_27
REMARK   15  A    between atoms: C_30  and  C_38
REMARK   16  A    between atoms: C_32  and  O_37
REMARK   17  A    between atoms: C_34  and  O_36
REMARK   18  A    between atoms: C_38  and  O_39
REMARK   19  A    between atoms: C_40  and  O_42
REMARK   20  A    between atoms: O_43  and  C_44
REMARK                            x       y       z     vdW  Elec       q    Type
REMARK                         _______ _______ _______ _____ _____    ______ ____
ROOT
ATOM      1  C   LIG A   1      -7.079   2.745 128.148  0.00  0.00    +0.075 C 
ATOM      2  C   LIG A   1      -6.830   3.552 129.180  0.00  0.00    +0.201 C 
ATOM      3  O   LIG A   1      -7.611   3.732 130.286  0.00  0.00    -0.470 OA
ATOM      4  C   LIG A   1      -8.918   3.145 130.233  0.00  0.00    +0.316 C 
ATOM      5  C   LIG A   1      -8.818   1.685 129.665  0.00  0.00    +0.106 C 
ATOM      6  C   LIG A   1      -8.315   1.839 128.165  0.00  0.00    +0.052 C 
ENDROOT
BRANCH   5   7
ATOM      7  C   LIG A   1      -7.955   0.748 130.632  0.00  0.00    +0.183 C 
ATOM      8  C   LIG A   1      -8.324   0.958 132.115  0.00  0.00    +0.052 C 
BRANCH   7   9
ATOM      9  O   LIG A   1      -8.146  -0.665 130.316  0.00  0.00    -0.458 OA
BRANCH   9  10
ATOM     10  C   LIG A   1      -7.078  -1.522 130.373  0.00  0.00    +0.335 C 
ATOM     11  O   LIG A   1      -5.992  -1.275 130.885  0.00  0.00    -0.245 OA
BRANCH  10  12
ATOM     12  C   LIG A   1      -7.364  -2.845 129.707  0.00  0.00    +0.029 C 
ATOM     13  C   LIG A   1      -6.465  -3.999 130.064  0.00  0.00    +0.051 C 
ATOM     14  C   LIG A   1      -8.375  -2.931 128.824  0.00  0.00    -0.020 C 
ATOM     15  C   LIG A   1      -8.840  -4.089 128.013  0.00  0.00    +0.035 C 
ENDBRANCH  10  12
ENDBRANCH   9  10
ENDBRANCH   7   9
ENDBRANCH   5   7
BRANCH   1  17
ATOM     16  O   LIG A   1      -4.938   2.327 127.084  0.00  0.00    -0.245 OA
ATOM     17  C   LIG A   1      -6.071   2.753 127.022  0.00  0.00    +0.338 C 
BRANCH  17  18
ATOM     18  O   LIG A   1      -6.642   3.352 125.934  0.00  0.00    -0.465 OA
ATOM     19  C   LIG A   1      -5.865   3.399 124.737  0.00  0.00    +0.280 C 
ENDBRANCH  17  18
ENDBRANCH   1  17
BRANCH   4  20
ATOM     20  O   LIG A   1      -9.867   3.966 129.492  0.00  0.00    -0.309 OA
BRANCH  20  21
ATOM     21  C   LIG A   1     -10.779   4.666 130.372  0.00  0.00    +0.286 C 
ATOM     22  O   LIG A   1     -11.915   5.134 129.639  0.00  0.00    -0.340 OA
ATOM     23  C   LIG A   1     -12.019   6.543 129.420  0.00  0.00    +0.178 C 
ATOM     24  C   LIG A   1     -10.637   7.159 129.158  0.00  0.00    +0.177 C 
ATOM     25  C   LIG A   1      -9.873   7.115 130.483  0.00  0.00    +0.179 C 
ATOM     26  C   LIG A   1     -10.040   5.762 131.209  0.00  0.00    +0.201 C 
BRANCH  25  27
ATOM     27  O   LIG A   1      -8.494   7.458 130.280  0.00  0.00    -0.386 OA
ATOM     28  H   LIG A   1      -8.235   8.126 130.939  0.00  0.00    +0.210 HD
ENDBRANCH  25  27
BRANCH  24  29
ATOM     29  O   LIG A   1     -10.716   8.510 128.686  0.00  0.00    -0.387 OA
ATOM     30  H   LIG A   1     -10.547   9.086 129.458  0.00  0.00    +0.210 HD
ENDBRANCH  24  29
BRANCH  26  31
ATOM     31  O   LIG A   1     -10.817   6.003 132.406  0.00  0.00    -0.384 OA
ATOM     32  H   LIG A   1     -10.945   6.966 132.493  0.00  0.00    +0.210 HD
ENDBRANCH  26  31
BRANCH  23  33
ATOM     33  C   LIG A   1     -13.018   6.758 128.277  0.00  0.00    +0.190 C 
BRANCH  33  34
ATOM     34  O   LIG A   1     -12.425   6.715 126.986  0.00  0.00    -0.392 OA
ATOM     35  H   LIG A   1     -13.146   6.536 126.345  0.00  0.00    +0.209 HD
ENDBRANCH  33  34
ENDBRANCH  23  33
ENDBRANCH  20  21
ENDBRANCH   4  20
BRANCH   6  36
ATOM     36  C   LIG A   1      -8.228   0.548 127.330  0.00  0.00    +0.129 C 
BRANCH  36  37
ATOM     37  C   LIG A   1      -9.120   0.530 126.104  0.00  0.00    +0.305 C 
ATOM     38  O   LIG A   1      -9.670  -0.450 125.626  0.00  0.00    -0.251 OA
BRANCH  37  39
ATOM     39  O   LIG A   1      -9.256   1.757 125.538  0.00  0.00    -0.481 OA
ATOM     40  H   LIG A   1      -8.805   2.477 126.021  0.00  0.00    +0.295 HD
ENDBRANCH  37  39
ENDBRANCH  36  37
ENDBRANCH   6  36
TORSDOF 16
ENDMDL
MODEL 2
REMARK VINA RESULT:      -7.1      1.097      2.433
REMARK  Name = NuBBE_111
REMARK  20 active torsions:
REMARK  status: ('A' for Active; 'I' for Inactive)
REMARK    1  A    between atoms: C_2  and  C_3
REMARK    2  A    between atoms: C_2  and  O_43
REMARK    3  A    between atoms: C_6  and  O_26
REMARK    4  A    between atoms: C_8  and  C_16
REMARK    5  A    between atoms: C_10  and  C_12
REMARK    6  A    between atoms: C_12  and  C_13
REMARK    7  A    between atoms: C_13  and  O_14
REMARK    8  A    between atoms: C_16  and  C_18
REMARK    9  A    between atoms: C_16  and  O_19
REMARK   10  A    between atoms: O_19  and  C_20
REMARK   11  A    between atoms: C_20  and  C_21
REMARK   12  A    between atoms: C_21  and  C_22
REMARK   13  A    between atoms: C_23  and  C_24
REMARK   14  A    between atoms: O_26  and  C_27
REMARK   15  A    between atoms: C_30  and  C_38
REMARK   16  A    between atoms: C_32  and  O_37
REMARK   17  A    between atoms: C_34  and  O_36
REMARK   18  A    between atoms: C_38  and  O_39
REMARK   19  A    between atoms: C_40  and  O_42
REMARK   20  A    between atoms: O_43  and  C_44
REMARK                            x       y       z     vdW  Elec       q    Type
REMARK                         _______ _______ _______ _____ _____    ______ ____
ROOT
ATOM      1  C   LIG A   1      -6.852   2.630 127.273  0.00  0.00    +0.075 C 
ATOM      2  C   LIG A   1      -6.331   3.491 128.147  0.00  0.00    +0.201 C 
ATOM      3  O   LIG A   1      -6.878   3.884 129.336  0.00  0.00    -0.470 OA
ATOM      4  C   LIG A   1      -8.235   3.480 129.566  0.00  0.00    +0.316 C 
ATOM      5  C   LIG A   1      -8.410   1.972 129.168  0.00  0.00    +0.106 C 
ATOM      6  C   LIG A   1      -8.164   1.908 127.599  0.00  0.00    +0.052 C 
ENDROOT
BRANCH   5   7
ATOM      7  C   LIG A   1      -7.508   1.024 130.087  0.00  0.00    +0.183 C 
ATOM      8  C   LIG A   1      -7.343   1.592 131.512  0.00  0.00    +0.052 C 
BRANCH   7   9
ATOM      9  O   LIG A   1      -8.082  -0.314 130.199  0.00  0.00    -0.458 OA
BRANCH   9  10
ATOM     10  C   LIG A   1      -7.252  -1.404 130.266  0.00  0.00    +0.335 C 
ATOM     11  O   LIG A   1      -6.458  -1.642 131.169  0.00  0.00    -0.245 OA
BRANCH  10  12
ATOM     12  C   LIG A   1      -7.398  -2.313 129.072  0.00  0.00    +0.029 C 
ATOM     13  C   LIG A   1      -6.301  -2.271 128.041  0.00  0.00    +0.051 C 
ATOM     14  C   LIG A   1      -8.490  -3.093 128.969  0.00  0.00    -0.020 C 
ATOM     15  C   LIG A   1      -8.890  -4.040 127.892  0.00  0.00    +0.035 C 
ENDBRANCH  10  12
ENDBRANCH   9  10
ENDBRANCH   7   9
ENDBRANCH   5   7
BRANCH   1  17
ATOM     16  O   LIG A   1      -4.987   1.840 125.937  0.00  0.00    -0.245 OA
ATOM     17  C   LIG A   1      -6.065   2.390 126.007  0.00  0.00    +0.338 C 
BRANCH  17  18
ATOM     18  O   LIG A   1      -6.758   2.926 124.957  0.00  0.00    -0.465 OA
ATOM     19  C   LIG A   1      -6.012   3.688 124.008  0.00  0.00    +0.280 C 
ENDBRANCH  17  18
ENDBRANCH   1  17
BRANCH   4  20
ATOM     20  O   LIG A   1      -9.195   4.347 128.897  0.00  0.00    -0.309 OA
BRANCH  20  21
ATOM     21  C   LIG A   1      -9.045   5.731 129.296  0.00  0.00    +0.286 C 
ATOM     22  O   LIG A   1      -8.784   5.817 130.699  0.00  0.00    -0.340 OA
ATOM     23  C   LIG A   1      -9.828   6.334 131.529  0.00  0.00    +0.178 C 
ATOM     24  C   LIG A   1     -11.202   5.859 131.038  0.00  0.00    +0.177 C 
ATOM     25  C   LIG A   1     -11.478   6.585 129.720  0.00  0.00    +0.179 C 
ATOM     26  C   LIG A   1     -10.242   6.605 128.794  0.00  0.00    +0.201 C 
BRANCH  25  27
ATOM     27  O   LIG A   1     -12.634   6.032 129.073  0.00  0.00    -0.386 OA
ATOM     28  H   LIG A   1     -13.422   6.233 129.609  0.00  0.00    +0.210 HD
ENDBRANCH  25  27
BRANCH  24  29
ATOM     29  O   LIG A   1     -12.249   6.137 131.976  0.00  0.00    -0.387 OA
ATOM     30  H   LIG A   1     -12.974   6.556 131.469  0.00  0.00    +0.210 HD
ENDBRANCH  24  29
BRANCH  26  31
ATOM     31  O   LIG A   1      -9.783   7.975 128.709  0.00  0.00    -0.384 OA
ATOM     32  H   LIG A   1      -8.814   7.962 128.604  0.00  0.00    +0.210 HD
ENDBRANCH  26  31
BRANCH  23  33
ATOM     33  C   LIG A   1      -9.512   5.924 132.973  0.00  0.00    +0.190 C 
BRANCH  33  34
ATOM     34  O   LIG A   1     -10.116   4.697 133.362  0.00  0.00    -0.392 OA
ATOM     35  H   LIG A   1      -9.621   4.369 134.143  0.00  0.00    +0.209 HD
ENDBRANCH  33  34
ENDBRANCH  23  33
ENDBRANCH  20  21
ENDBRANCH   4  20
BRANCH   6  36
ATOM     36  C   LIG A   1      -8.380   0.542 126.921  0.00  0.00    +0.129 C 
BRANCH  36  37
ATOM     37  C   LIG A   1      -9.373   0.558 125.775  0.00  0.00    +0.305 C 
ATOM     38  O   LIG A   1      -9.999  -0.400 125.349  0.00  0.00    -0.251 OA
BRANCH  37  39
ATOM     39  O   LIG A   1      -9.509   1.789 125.218  0.00  0.00    -0.481 OA
ATOM     40  H   LIG A   1     -10.334   1.913 124.708  0.00  0.00    +0.295 HD
ENDBRANCH  37  39
ENDBRANCH  36  37
ENDBRANCH   6  36
TORSDOF 16
ENDMDL
MODEL 3
REMARK VINA RESULT:      -7.0      2.397      4.803
REMARK  Name = NuBBE_111
REMARK  20 active torsions:
REMARK  status: ('A' for Active; 'I' for Inactive)
REMARK    1  A    between atoms: C_2  and  C_3
REMARK    2  A    between atoms: C_2  and  O_43
REMARK    3  A    between atoms: C_6  and  O_26
REMARK    4  A    between atoms: C_8  and  C_16
REMARK    5  A    between atoms: C_10  and  C_12
REMARK    6  A    between atoms: C_12  and  C_13
REMARK    7  A    between atoms: C_13  and  O_14
REMARK    8  A    between atoms: C_16  and  C_18
REMARK    9  A    between atoms: C_16  and  O_19
REMARK   10  A    between atoms: O_19  and  C_20
REMARK   11  A    between atoms: C_20  and  C_21
REMARK   12  A    between atoms: C_21  and  C_22
REMARK   13  A    between atoms: C_23  and  C_24
REMARK   14  A    between atoms: O_26  and  C_27
REMARK   15  A    between atoms: C_30  and  C_38
REMARK   16  A    between atoms: C_32  and  O_37
REMARK   17  A    between atoms: C_34  and  O_36
REMARK   18  A    between atoms: C_38  and  O_39
REMARK   19  A    between atoms: C_40  and  O_42
REMARK   20  A    between atoms: O_43  and  C_44
REMARK                            x       y       z     vdW  Elec       q    Type
REMARK                         _______ _______ _______ _____ _____    ______ ____
ROOT
ATOM      1  C   LIG A   1      -7.833   2.589 128.610  0.00  0.00    +0.075 C 
ATOM      2  C   LIG A   1      -7.707   3.875 128.281  0.00  0.00    +0.201 C 
ATOM      3  O   LIG A   1      -8.195   4.949 128.970  0.00  0.00    -0.470 OA
ATOM      4  C   LIG A   1      -9.098   4.648 130.043  0.00  0.00    +0.316 C 
ATOM      5  C   LIG A   1      -8.528   3.457 130.893  0.00  0.00    +0.106 C 
ATOM      6  C   LIG A   1      -8.521   2.199 129.922  0.00  0.00    +0.052 C 
ENDROOT
BRANCH   5   7
ATOM      7  C   LIG A   1      -7.142   3.854 131.585  0.00  0.00    +0.183 C 
ATOM      8  C   LIG A   1      -7.003   5.381 131.761  0.00  0.00    +0.052 C 
BRANCH   7   9
ATOM      9  O   LIG A   1      -7.006   3.235 132.900  0.00  0.00    -0.458 OA
BRANCH   9  10
ATOM     10  C   LIG A   1      -7.823   3.636 133.926  0.00  0.00    +0.335 C 
ATOM     11  O   LIG A   1      -9.033   3.448 133.989  0.00  0.00    -0.245 OA
BRANCH  10  12
ATOM     12  C   LIG A   1      -7.072   4.372 135.007  0.00  0.00    +0.029 C 
ATOM     13  C   LIG A   1      -5.735   3.813 135.415  0.00  0.00    +0.051 C 
ATOM     14  C   LIG A   1      -7.627   5.464 135.565  0.00  0.00    -0.020 C 
ATOM     15  C   LIG A   1      -7.122   6.340 136.658  0.00  0.00    +0.035 C 
ENDBRANCH  10  12
ENDBRANCH   9  10
ENDBRANCH   7   9
ENDBRANCH   5   7
BRANCH   1  17
ATOM     16  O   LIG A   1      -6.048   1.404 127.471  0.00  0.00    -0.245 OA
ATOM     17  C   LIG A   1      -7.233   1.584 127.656  0.00  0.00    +0.338 C 
BRANCH  17  18
ATOM     18  O   LIG A   1      -8.250   0.935 127.014  0.00  0.00    -0.465 OA
ATOM     19  C   LIG A   1      -8.500   1.302 125.657  0.00  0.00    +0.280 C 
ENDBRANCH  17  18
ENDBRANCH   1  17
BRANCH   4  20
ATOM     20  O   LIG A   1     -10.454   4.397 129.575  0.00  0.00    -0.309 OA
BRANCH  20  21
ATOM     21  C   LIG A   1     -11.397   5.357 130.109  0.00  0.00    +0.286 C 
ATOM     22  O   LIG A   1     -12.355   5.722 129.110  0.00  0.00    -0.340 OA
ATOM     23  C   LIG A   1     -12.263   7.041 128.566  0.00  0.00    +0.178 C 
ATOM     24  C   LIG A   1     -10.797   7.467 128.407  0.00  0.00    +0.177 C 
ATOM     25  C   LIG A   1     -10.241   7.683 129.816  0.00  0.00    +0.179 C 
ATOM     26  C   LIG A   1     -10.666   6.561 130.790  0.00  0.00    +0.201 C 
BRANCH  25  27
ATOM     27  O   LIG A   1      -8.818   7.859 129.774  0.00  0.00    -0.386 OA
ATOM     28  H   LIG A   1      -8.578   8.288 128.934  0.00  0.00    +0.210 HD
ENDBRANCH  25  27
BRANCH  24  29
ATOM     29  O   LIG A   1     -10.651   8.666 127.636  0.00  0.00    -0.387 OA
ATOM     30  H   LIG A   1     -11.339   8.636 126.941  0.00  0.00    +0.210 HD
ENDBRANCH  24  29
BRANCH  26  31
ATOM     31  O   LIG A   1     -11.575   7.143 131.755  0.00  0.00    -0.384 OA
ATOM     32  H   LIG A   1     -12.269   7.620 131.264  0.00  0.00    +0.210 HD
ENDBRANCH  26  31
BRANCH  23  33
ATOM     33  C   LIG A   1     -13.056   7.052 127.253  0.00  0.00    +0.190 C 
BRANCH  33  34
ATOM     34  O   LIG A   1     -12.296   6.635 126.126  0.00  0.00    -0.392 OA
ATOM     35  H   LIG A   1     -12.826   6.852 125.328  0.00  0.00    +0.209 HD
ENDBRANCH  33  34
ENDBRANCH  23  33
ENDBRANCH  20  21
ENDBRANCH   4  20
BRANCH   6  36
ATOM     36  C   LIG A   1      -8.100   0.852 130.541  0.00  0.00    +0.129 C 
BRANCH  36  37
ATOM     37  C   LIG A   1      -8.855   0.474 131.800  0.00  0.00    +0.305 C 
ATOM     38  O   LIG A   1     -10.048   0.636 132.002  0.00  0.00    -0.251 OA
BRANCH  37  39
ATOM     39  O   LIG A   1      -8.052  -0.077 132.746  0.00  0.00    -0.481 OA
ATOM     40  H   LIG A   1      -8.501  -0.281 133.589  0.00  0.00    +0.295 HD
ENDBRANCH  37  39
ENDBRANCH  36  37
ENDBRANCH   6  36
TORSDOF 16
ENDMDL
MODEL 4
REMARK VINA RESULT:      -6.9      2.351      4.190
REMARK  Name = NuBBE_111
REMARK  20 active torsions:
REMARK  status: ('A' for Active; 'I' for Inactive)
REMARK    1  A    between atoms: C_2  and  C_3
REMARK    2  A    between atoms: C_2  and  O_43
REMARK    3  A    between atoms: C_6  and  O_26
REMARK    4  A    between atoms: C_8  and  C_16
REMARK    5  A    between atoms: C_10  and  C_12
REMARK    6  A    between atoms: C_12  and  C_13
REMARK    7  A    between atoms: C_13  and  O_14
REMARK    8  A    between atoms: C_16  and  C_18
REMARK    9  A    between atoms: C_16  and  O_19
REMARK   10  A    between atoms: O_19  and  C_20
REMARK   11  A    between atoms: C_20  and  C_21
REMARK   12  A    between atoms: C_21  and  C_22
REMARK   13  A    between atoms: C_23  and  C_24
REMARK   14  A    between atoms: O_26  and  C_27
REMARK   15  A    between atoms: C_30  and  C_38
REMARK   16  A    between atoms: C_32  and  O_37
REMARK   17  A    between atoms: C_34  and  O_36
REMARK   18  A    between atoms: C_38  and  O_39
REMARK   19  A    between atoms: C_40  and  O_42
REMARK   20  A    between atoms: O_43  and  C_44
REMARK                            x       y       z     vdW  Elec       q    Type
REMARK                         _______ _______ _______ _____ _____    ______ ____
ROOT
ATOM      1  C   LIG A   1      -5.208   2.934 127.532  0.00  0.00    +0.075 C 
ATOM      2  C   LIG A   1      -4.940   1.992 128.436  0.00  0.00    +0.201 C 
ATOM      3  O   LIG A   1      -5.846   1.232 129.121  0.00  0.00    -0.470 OA
ATOM      4  C   LIG A   1      -7.218   1.628 128.996  0.00  0.00    +0.316 C 
ATOM      5  C   LIG A   1      -7.543   1.937 127.491  0.00  0.00    +0.106 C 
ATOM      6  C   LIG A   1      -6.657   3.199 127.108  0.00  0.00    +0.052 C 
ENDROOT
BRANCH   5   7
ATOM      7  C   LIG A   1      -7.380   0.628 126.586  0.00  0.00    +0.183 C 
ATOM      8  C   LIG A   1      -7.753  -0.655 127.357  0.00  0.00    +0.052 C 
BRANCH   7   9
ATOM      9  O   LIG A   1      -8.219   0.696 125.393  0.00  0.00    -0.458 OA
BRANCH   9  10
ATOM     10  C   LIG A   1      -7.665   0.467 124.160  0.00  0.00    +0.335 C 
ATOM     11  O   LIG A   1      -7.192   1.323 123.420  0.00  0.00    -0.245 OA
BRANCH  10  12
ATOM     12  C   LIG A   1      -7.704  -0.990 123.772  0.00  0.00    +0.029 C 
ATOM     13  C   LIG A   1      -6.398  -1.631 123.386  0.00  0.00    +0.051 C 
ATOM     14  C   LIG A   1      -8.884  -1.637 123.767  0.00  0.00    -0.020 C 
ATOM     15  C   LIG A   1      -9.202  -3.043 123.396  0.00  0.00    +0.035 C 
ENDBRANCH  10  12
ENDBRANCH   9  10
ENDBRANCH   7   9
ENDBRANCH   5   7
BRANCH   1  17
ATOM     16  O   LIG A   1      -3.196   3.183 126.198  0.00  0.00    -0.245 OA
ATOM     17  C   LIG A   1      -4.024   3.663 126.941  0.00  0.00    +0.338 C 
BRANCH  17  18
ATOM     18  O   LIG A   1      -4.026   4.947 127.414  0.00  0.00    -0.465 OA
ATOM     19  C   LIG A   1      -2.808   5.433 127.977  0.00  0.00    +0.280 C 
ENDBRANCH  17  18
ENDBRANCH   1  17
BRANCH   4  20
ATOM     20  O   LIG A   1      -7.560   2.737 129.877  0.00  0.00    -0.309 OA
BRANCH  20  21
ATOM     21  C   LIG A   1      -8.981   2.795 130.148  0.00  0.00    +0.286 C 
ATOM     22  O   LIG A   1      -9.555   3.958 129.545  0.00  0.00    -0.340 OA
ATOM     23  C   LIG A   1      -9.971   5.012 130.419  0.00  0.00    +0.178 C 
ATOM     24  C   LIG A   1      -8.995   5.166 131.593  0.00  0.00    +0.177 C 
ATOM     25  C   LIG A   1      -9.181   3.940 132.489  0.00  0.00    +0.179 C 
ATOM     26  C   LIG A   1      -9.280   2.630 131.675  0.00  0.00    +0.201 C 
BRANCH  25  27
ATOM     27  O   LIG A   1      -8.151   3.884 133.487  0.00  0.00    -0.386 OA
ATOM     28  H   LIG A   1      -7.290   4.038 133.060  0.00  0.00    +0.210 HD
ENDBRANCH  25  27
BRANCH  24  29
ATOM     29  O   LIG A   1      -9.225   6.361 132.348  0.00  0.00    -0.387 OA
ATOM     30  H   LIG A   1      -8.371   6.598 132.763  0.00  0.00    +0.210 HD
ENDBRANCH  24  29
BRANCH  26  31
ATOM     31  O   LIG A   1     -10.634   2.135 131.810  0.00  0.00    -0.384 OA
ATOM     32  H   LIG A   1     -11.054   2.606 132.553  0.00  0.00    +0.210 HD
ENDBRANCH  26  31
BRANCH  23  33
ATOM     33  C   LIG A   1     -10.121   6.280 129.569  0.00  0.00    +0.190 C 
BRANCH  33  34
ATOM     34  O   LIG A   1      -9.649   6.131 128.236  0.00  0.00    -0.392 OA
ATOM     35  H   LIG A   1      -9.996   5.276 127.903  0.00  0.00    +0.209 HD
ENDBRANCH  33  34
ENDBRANCH  23  33
ENDBRANCH  20  21
ENDBRANCH   4  20
BRANCH   6  36
ATOM     36  C   LIG A   1      -6.861   3.785 125.698  0.00  0.00    +0.129 C 
BRANCH  36  37
ATOM     37  C   LIG A   1      -8.245   4.353 125.447  0.00  0.00    +0.305 C 
ATOM     38  O   LIG A   1      -8.652   5.446 125.807  0.00  0.00    -0.251 OA
BRANCH  37  39
ATOM     39  O   LIG A   1      -9.046   3.496 124.763  0.00  0.00    -0.481 OA
ATOM     40  H   LIG A   1      -9.999   3.595 124.953  0.00  0.00    +0.295 HD
ENDBRANCH  37  39
ENDBRANCH  36  37
ENDBRANCH   6  36
TORSDOF 16
ENDMDL
MODEL 5
REMARK VINA RESULT:      -6.8      2.910      4.650
REMARK  Name = NuBBE_111
REMARK  20 active torsions:
REMARK  status: ('A' for Active; 'I' for Inactive)
REMARK    1  A    between atoms: C_2  and  C_3
REMARK    2  A    between atoms: C_2  and  O_43
REMARK    3  A    between atoms: C_6  and  O_26
REMARK    4  A    between atoms: C_8  and  C_16
REMARK    5  A    between atoms: C_10  and  C_12
REMARK    6  A    between atoms: C_12  and  C_13
REMARK    7  A    between atoms: C_13  and  O_14
REMARK    8  A    between atoms: C_16  and  C_18
REMARK    9  A    between atoms: C_16  and  O_19
REMARK   10  A    between atoms: O_19  and  C_20
REMARK   11  A    between atoms: C_20  and  C_21
REMARK   12  A    between atoms: C_21  and  C_22
REMARK   13  A    between atoms: C_23  and  C_24
REMARK   14  A    between atoms: O_26  and  C_27
REMARK   15  A    between atoms: C_30  and  C_38
REMARK   16  A    between atoms: C_32  and  O_37
REMARK   17  A    between atoms: C_34  and  O_36
REMARK   18  A    between atoms: C_38  and  O_39
REMARK   19  A    between atoms: C_40  and  O_42
REMARK   20  A    between atoms: O_43  and  C_44
REMARK                            x       y       z     vdW  Elec       q    Type
REMARK                         _______ _______ _______ _____ _____    ______ ____
ROOT
ATOM      1  C   LIG A   1      -7.541   2.322 124.383  0.00  0.00    +0.075 C 
ATOM      2  C   LIG A   1      -6.638   2.850 125.209  0.00  0.00    +0.201 C 
ATOM      3  O   LIG A   1      -6.422   2.510 126.514  0.00  0.00    -0.470 OA
ATOM      4  C   LIG A   1      -7.397   1.639 127.104  0.00  0.00    +0.316 C 
ATOM      5  C   LIG A   1      -7.729   0.470 126.111  0.00  0.00    +0.106 C 
ATOM      6  C   LIG A   1      -8.417   1.155 124.853  0.00  0.00    +0.052 C 
ENDROOT
BRANCH   5   7
ATOM      7  C   LIG A   1      -6.442  -0.437 125.835  0.00  0.00    +0.183 C 
ATOM      8  C   LIG A   1      -5.277  -0.086 126.784  0.00  0.00    +0.052 C 
BRANCH   7   9
ATOM      9  O   LIG A   1      -6.743  -1.856 125.999  0.00  0.00    -0.458 OA
BRANCH   9  10
ATOM     10  C   LIG A   1      -7.177  -2.586 124.922  0.00  0.00    +0.335 C 
ATOM     11  O   LIG A   1      -8.322  -2.988 124.747  0.00  0.00    -0.245 OA
BRANCH  10  12
ATOM     12  C   LIG A   1      -6.071  -2.876 123.939  0.00  0.00    +0.029 C 
ATOM     13  C   LIG A   1      -6.084  -2.106 122.645  0.00  0.00    +0.051 C 
ATOM     14  C   LIG A   1      -5.148  -3.807 124.244  0.00  0.00    -0.020 C 
ATOM     15  C   LIG A   1      -3.991  -4.303 123.449  0.00  0.00    +0.035 C 
ENDBRANCH  10  12
ENDBRANCH   9  10
ENDBRANCH   7   9
ENDBRANCH   5   7
BRANCH   1  17
ATOM     16  O   LIG A   1      -8.585   3.401 122.477  0.00  0.00    -0.245 OA
ATOM     17  C   LIG A   1      -7.607   2.901 122.990  0.00  0.00    +0.338 C 
BRANCH  17  18
ATOM     18  O   LIG A   1      -6.388   2.736 122.394  0.00  0.00    -0.465 OA
ATOM     19  C   LIG A   1      -5.807   3.884 121.776  0.00  0.00    +0.280 C 
ENDBRANCH  17  18
ENDBRANCH   1  17
BRANCH   4  20
ATOM     20  O   LIG A   1      -8.589   2.354 127.541  0.00  0.00    -0.309 OA
BRANCH  20  21
ATOM     21  C   LIG A   1      -8.752   2.307 128.979  0.00  0.00    +0.286 C 
ATOM     22  O   LIG A   1      -9.549   3.408 129.425  0.00  0.00    -0.340 OA
ATOM     23  C   LIG A   1      -8.885   4.445 130.152  0.00  0.00    +0.178 C 
ATOM     24  C   LIG A   1      -7.484   4.702 129.582  0.00  0.00    +0.177 C 
ATOM     25  C   LIG A   1      -6.628   3.486 129.943  0.00  0.00    +0.179 C 
ATOM     26  C   LIG A   1      -7.375   2.155 129.707  0.00  0.00    +0.201 C 
BRANCH  25  27
ATOM     27  O   LIG A   1      -5.369   3.534 129.256  0.00  0.00    -0.386 OA
ATOM     28  H   LIG A   1      -5.418   4.209 128.555  0.00  0.00    +0.210 HD
ENDBRANCH  25  27
BRANCH  24  29
ATOM     29  O   LIG A   1      -6.885   5.893 130.108  0.00  0.00    -0.387 OA
ATOM     30  H   LIG A   1      -5.952   5.890 129.812  0.00  0.00    +0.210 HD
ENDBRANCH  24  29
BRANCH  26  31
ATOM     31  O   LIG A   1      -7.623   1.558 131.002  0.00  0.00    -0.384 OA
ATOM     32  H   LIG A   1      -7.116   2.060 131.666  0.00  0.00    +0.210 HD
ENDBRANCH  26  31
BRANCH  23  33
ATOM     33  C   LIG A   1      -9.798   5.678 130.128  0.00  0.00    +0.190 C 
BRANCH  33  34
ATOM     34  O   LIG A   1      -9.528   6.565 129.051  0.00  0.00    -0.392 OA
ATOM     35  H   LIG A   1     -10.327   7.122 128.932  0.00  0.00    +0.209 HD
ENDBRANCH  33  34
ENDBRANCH  23  33
ENDBRANCH  20  21
ENDBRANCH   4  20
BRANCH   6  36
ATOM     36  C   LIG A   1      -8.946   0.212 123.755  0.00  0.00    +0.129 C 
BRANCH  36  37
ATOM     37  C   LIG A   1     -10.313   0.581 123.213  0.00  0.00    +0.305 C 
ATOM     38  O   LIG A   1     -10.846   0.112 122.219  0.00  0.00    -0.251 OA
BRANCH  37  39
ATOM     39  O   LIG A   1     -10.929   1.538 123.954  0.00  0.00    -0.481 OA
ATOM     40  H   LIG A   1     -10.427   2.373 124.032  0.00  0.00    +0.295 HD
ENDBRANCH  37  39
ENDBRANCH  36  37
ENDBRANCH   6  36
TORSDOF 16
ENDMDL
MODEL 6
REMARK VINA RESULT:      -6.8      2.009      3.958
REMARK  Name = NuBBE_111
REMARK  20 active torsions:
REMARK  status: ('A' for Active; 'I' for Inactive)
REMARK    1  A    between atoms: C_2  and  C_3
REMARK    2  A    between atoms: C_2  and  O_43
REMARK    3  A    between atoms: C_6  and  O_26
REMARK    4  A    between atoms: C_8  and  C_16
REMARK    5  A    between atoms: C_10  and  C_12
REMARK    6  A    between atoms: C_12  and  C_13
REMARK    7  A    between atoms: C_13  and  O_14
REMARK    8  A    between atoms: C_16  and  C_18
REMARK    9  A    between atoms: C_16  and  O_19
REMARK   10  A    between atoms: O_19  and  C_20
REMARK   11  A    between atoms: C_20  and  C_21
REMARK   12  A    between atoms: C_21  and  C_22
REMARK   13  A    between atoms: C_23  and  C_24
REMARK   14  A    between atoms: O_26  and  C_27
REMARK   15  A    between atoms: C_30  and  C_38
REMARK   16  A    between atoms: C_32  and  O_37
REMARK   17  A    between atoms: C_34  and  O_36
REMARK   18  A    between atoms: C_38  and  O_39
REMARK   19  A    between atoms: C_40  and  O_42
REMARK   20  A    between atoms: O_43  and  C_44
REMARK                            x       y       z     vdW  Elec       q    Type
REMARK                         _______ _______ _______ _____ _____    ______ ____
ROOT
ATOM      1  C   LIG A   1      -7.636   2.561 128.508  0.00  0.00    +0.075 C 
ATOM      2  C   LIG A   1      -7.472   3.871 128.316  0.00  0.00    +0.201 C 
ATOM      3  O   LIG A   1      -7.967   4.880 129.092  0.00  0.00    -0.470 OA
ATOM      4  C   LIG A   1      -8.918   4.493 130.094  0.00  0.00    +0.316 C 
ATOM      5  C   LIG A   1      -8.406   3.211 130.839  0.00  0.00    +0.106 C 
ATOM      6  C   LIG A   1      -8.383   2.057 129.747  0.00  0.00    +0.052 C 
ENDROOT
BRANCH   5   7
ATOM      7  C   LIG A   1      -7.042   3.504 131.621  0.00  0.00    +0.183 C 
ATOM      8  C   LIG A   1      -7.271   3.666 133.138  0.00  0.00    +0.052 C 
BRANCH   7   9
ATOM      9  O   LIG A   1      -6.072   2.429 131.424  0.00  0.00    -0.458 OA
BRANCH   9  10
ATOM     10  C   LIG A   1      -4.780   2.597 131.850  0.00  0.00    +0.335 C 
ATOM     11  O   LIG A   1      -4.312   2.161 132.897  0.00  0.00    -0.245 OA
BRANCH  10  12
ATOM     12  C   LIG A   1      -3.955   3.412 130.886  0.00  0.00    +0.029 C 
ATOM     13  C   LIG A   1      -3.186   4.574 131.455  0.00  0.00    +0.051 C 
ATOM     14  C   LIG A   1      -3.958   3.086 129.581  0.00  0.00    -0.020 C 
ATOM     15  C   LIG A   1      -3.272   3.737 128.431  0.00  0.00    +0.035 C 
ENDBRANCH  10  12
ENDBRANCH   9  10
ENDBRANCH   7   9
ENDBRANCH   5   7
BRANCH   1  17
ATOM     16  O   LIG A   1      -5.904   1.166 127.538  0.00  0.00    -0.245 OA
ATOM     17  C   LIG A   1      -7.016   1.644 127.481  0.00  0.00    +0.338 C 
BRANCH  17  18
ATOM     18  O   LIG A   1      -7.910   1.470 126.460  0.00  0.00    -0.465 OA
ATOM     19  C   LIG A   1      -8.574   0.208 126.388  0.00  0.00    +0.280 C 
ENDBRANCH  17  18
ENDBRANCH   1  17
BRANCH   4  20
ATOM     20  O   LIG A   1     -10.259   4.322 129.550  0.00  0.00    -0.309 OA
BRANCH  20  21
ATOM     21  C   LIG A   1     -11.206   5.241 130.147  0.00  0.00    +0.286 C 
ATOM     22  O   LIG A   1     -12.193   5.630 129.187  0.00  0.00    -0.340 OA
ATOM     23  C   LIG A   1     -12.138   6.972 128.697  0.00  0.00    +0.178 C 
ATOM     24  C   LIG A   1     -10.684   7.431 128.521  0.00  0.00    +0.177 C 
ATOM     25  C   LIG A   1     -10.098   7.598 129.925  0.00  0.00    +0.179 C 
ATOM     26  C   LIG A   1     -10.479   6.430 130.860  0.00  0.00    +0.201 C 
BRANCH  25  27
ATOM     27  O   LIG A   1      -8.680   7.802 129.857  0.00  0.00    -0.386 OA
ATOM     28  H   LIG A   1      -8.478   8.713 130.136  0.00  0.00    +0.210 HD
ENDBRANCH  25  27
BRANCH  24  29
ATOM     29  O   LIG A   1     -10.578   8.663 127.798  0.00  0.00    -0.387 OA
ATOM     30  H   LIG A   1     -11.209   8.604 127.053  0.00  0.00    +0.210 HD
ENDBRANCH  24  29
BRANCH  26  31
ATOM     31  O   LIG A   1     -11.375   6.953 131.870  0.00  0.00    -0.384 OA
ATOM     32  H   LIG A   1     -12.089   7.437 131.416  0.00  0.00    +0.210 HD
ENDBRANCH  26  31
BRANCH  23  33
ATOM     33  C   LIG A   1     -12.962   7.022 127.404  0.00  0.00    +0.190 C 
BRANCH  33  34
ATOM     34  O   LIG A   1     -12.223   6.669 126.243  0.00  0.00    -0.392 OA
ATOM     35  H   LIG A   1     -12.541   7.245 125.515  0.00  0.00    +0.209 HD
ENDBRANCH  33  34
ENDBRANCH  23  33
ENDBRANCH  20  21
ENDBRANCH   4  20
BRANCH   6  36
ATOM     36  C   LIG A   1      -8.013   0.645 130.241  0.00  0.00    +0.129 C 
BRANCH  36  37
ATOM     37  C   LIG A   1      -8.588   0.281 131.596  0.00  0.00    +0.305 C 
ATOM     38  O   LIG A   1      -9.773   0.175 131.872  0.00  0.00    -0.251 OA
BRANCH  37  39
ATOM     39  O   LIG A   1      -7.629   0.085 132.536  0.00  0.00    -0.481 OA
ATOM     40  H   LIG A   1      -7.972  -0.099 133.432  0.00  0.00    +0.295 HD
ENDBRANCH  37  39
ENDBRANCH  36  37
ENDBRANCH   6  36
TORSDOF 16
ENDMDL
MODEL 7
REMARK VINA RESULT:      -6.8      2.307      3.238
REMARK  Name = NuBBE_111
REMARK  20 active torsions:
REMARK  status: ('A' for Active; 'I' for Inactive)
REMARK    1  A    between atoms: C_2  and  C_3
REMARK    2  A    between atoms: C_2  and  O_43
REMARK    3  A    between atoms: C_6  and  O_26
REMARK    4  A    between atoms: C_8  and  C_16
REMARK    5  A    between atoms: C_10  and  C_12
REMARK    6  A    between atoms: C_12  and  C_13
REMARK    7  A    between atoms: C_13  and  O_14
REMARK    8  A    between atoms: C_16  and  C_18
REMARK    9  A    between atoms: C_16  and  O_19
REMARK   10  A    between atoms: O_19  and  C_20
REMARK   11  A    between atoms: C_20  and  C_21
REMARK   12  A    between atoms: C_21  and  C_22
REMARK   13  A    between atoms: C_23  and  C_24
REMARK   14  A    between atoms: O_26  and  C_27
REMARK   15  A    between atoms: C_30  and  C_38
REMARK   16  A    between atoms: C_32  and  O_37
REMARK   17  A    between atoms: C_34  and  O_36
REMARK   18  A    between atoms: C_38  and  O_39
REMARK   19  A    between atoms: C_40  and  O_42
REMARK   20  A    between atoms: O_43  and  C_44
REMARK                            x       y       z     vdW  Elec       q    Type
REMARK                         _______ _______ _______ _____ _____    ______ ____
ROOT
ATOM      1  C   LIG A   1      -6.744   2.995 127.134  0.00  0.00    +0.075 C 
ATOM      2  C   LIG A   1      -6.434   3.034 128.430  0.00  0.00    +0.201 C 
ATOM      3  O   LIG A   1      -7.134   2.467 129.457  0.00  0.00    -0.470 OA
ATOM      4  C   LIG A   1      -8.431   1.953 129.123  0.00  0.00    +0.316 C 
ATOM      5  C   LIG A   1      -8.346   1.137 127.786  0.00  0.00    +0.106 C 
ATOM      6  C   LIG A   1      -7.958   2.189 126.661  0.00  0.00    +0.052 C 
ENDROOT
BRANCH   5   7
ATOM      7  C   LIG A   1      -7.398  -0.141 127.949  0.00  0.00    +0.183 C 
ATOM      8  C   LIG A   1      -7.593  -0.832 129.315  0.00  0.00    +0.052 C 
BRANCH   7   9
ATOM      9  O   LIG A   1      -7.649  -1.130 126.904  0.00  0.00    -0.458 OA
BRANCH   9  10
ATOM     10  C   LIG A   1      -6.598  -1.818 126.355  0.00  0.00    +0.335 C 
ATOM     11  O   LIG A   1      -5.534  -2.059 126.914  0.00  0.00    -0.245 OA
BRANCH  10  12
ATOM     12  C   LIG A   1      -6.873  -2.257 124.939  0.00  0.00    +0.029 C 
ATOM     13  C   LIG A   1      -7.803  -3.426 124.753  0.00  0.00    +0.051 C 
ATOM     14  C   LIG A   1      -6.271  -1.612 123.923  0.00  0.00    -0.020 C 
ATOM     15  C   LIG A   1      -6.341  -1.862 122.457  0.00  0.00    +0.035 C 
ENDBRANCH  10  12
ENDBRANCH   9  10
ENDBRANCH   7   9
ENDBRANCH   5   7
BRANCH   1  17
ATOM     16  O   LIG A   1      -6.088   4.764 125.607  0.00  0.00    -0.245 OA
ATOM     17  C   LIG A   1      -5.823   3.737 126.194  0.00  0.00    +0.338 C 
BRANCH  17  18
ATOM     18  O   LIG A   1      -4.652   3.037 126.093  0.00  0.00    -0.465 OA
ATOM     19  C   LIG A   1      -3.440   3.775 126.245  0.00  0.00    +0.280 C 
ENDBRANCH  17  18
ENDBRANCH   1  17
BRANCH   4  20
ATOM     20  O   LIG A   1      -9.446   2.997 129.075  0.00  0.00    -0.309 OA
BRANCH  20  21
ATOM     21  C   LIG A   1     -10.225   3.051 130.294  0.00  0.00    +0.286 C 
ATOM     22  O   LIG A   1     -11.133   4.156 130.254  0.00  0.00    -0.340 OA
ATOM     23  C   LIG A   1     -10.852   5.265 131.113  0.00  0.00    +0.178 C 
ATOM     24  C   LIG A   1      -9.342   5.523 131.198  0.00  0.00    +0.177 C 
ATOM     25  C   LIG A   1      -8.737   4.365 131.994  0.00  0.00    +0.179 C 
ATOM     26  C   LIG A   1      -9.310   2.997 131.562  0.00  0.00    +0.201 C 
BRANCH  25  27
ATOM     27  O   LIG A   1      -7.305   4.402 131.927  0.00  0.00    -0.386 OA
ATOM     28  H   LIG A   1      -7.039   4.837 131.097  0.00  0.00    +0.210 HD
ENDBRANCH  25  27
BRANCH  24  29
ATOM     29  O   LIG A   1      -9.030   6.768 131.835  0.00  0.00    -0.387 OA
ATOM     30  H   LIG A   1      -9.721   7.403 131.559  0.00  0.00    +0.210 HD
ENDBRANCH  24  29
BRANCH  26  31
ATOM     31  O   LIG A   1     -10.105   2.490 132.660  0.00  0.00    -0.384 OA
ATOM     32  H   LIG A   1     -10.495   3.253 133.125  0.00  0.00    +0.210 HD
ENDBRANCH  26  31
BRANCH  23  33
ATOM     33  C   LIG A   1     -11.656   6.463 130.592  0.00  0.00    +0.190 C 
BRANCH  33  34
ATOM     34  O   LIG A   1     -12.749   6.822 131.427  0.00  0.00    -0.392 OA
ATOM     35  H   LIG A   1     -13.195   7.586 131.002  0.00  0.00    +0.209 HD
ENDBRANCH  33  34
ENDBRANCH  23  33
ENDBRANCH  20  21
ENDBRANCH   4  20
BRANCH   6  36
ATOM     36  C   LIG A   1      -7.910   1.667 125.212  0.00  0.00    +0.129 C 
BRANCH  36  37
ATOM     37  C   LIG A   1      -8.822   2.400 124.248  0.00  0.00    +0.305 C 
ATOM     38  O   LIG A   1      -9.796   1.932 123.678  0.00  0.00    -0.251 OA
BRANCH  37  39
ATOM     39  O   LIG A   1      -8.442   3.687 124.044  0.00  0.00    -0.481 OA
ATOM     40  H   LIG A   1      -9.182   4.316 123.942  0.00  0.00    +0.295 HD
ENDBRANCH  37  39
ENDBRANCH  36  37
ENDBRANCH   6  36
TORSDOF 16
ENDMDL
MODEL 8
REMARK VINA RESULT:      -6.7      2.676      3.968
REMARK  Name = NuBBE_111
REMARK  20 active torsions:
REMARK  status: ('A' for Active; 'I' for Inactive)
REMARK    1  A    between atoms: C_2  and  C_3
REMARK    2  A    between atoms: C_2  and  O_43
REMARK    3  A    between atoms: C_6  and  O_26
REMARK    4  A    between atoms: C_8  and  C_16
REMARK    5  A    between atoms: C_10  and  C_12
REMARK    6  A    between atoms: C_12  and  C_13
REMARK    7  A    between atoms: C_13  and  O_14
REMARK    8  A    between atoms: C_16  and  C_18
REMARK    9  A    between atoms: C_16  and  O_19
REMARK   10  A    between atoms: O_19  and  C_20
REMARK   11  A    between atoms: C_20  and  C_21
REMARK   12  A    between atoms: C_21  and  C_22
REMARK   13  A    between atoms: C_23  and  C_24
REMARK   14  A    between atoms: O_26  and  C_27
REMARK   15  A    between atoms: C_30  and  C_38
REMARK   16  A    between atoms: C_32  and  O_37
REMARK   17  A    between atoms: C_34  and  O_36
REMARK   18  A    between atoms: C_38  and  O_39
REMARK   19  A    between atoms: C_40  and  O_42
REMARK   20  A    between atoms: O_43  and  C_44
REMARK                            x       y       z     vdW  Elec       q    Type
REMARK                         _______ _______ _______ _____ _____    ______ ____
ROOT
ATOM      1  C   LIG A   1      -5.347   6.108 130.428  0.00  0.00    +0.075 C 
ATOM      2  C   LIG A   1      -6.024   6.922 131.238  0.00  0.00    +0.201 C 
ATOM      3  O   LIG A   1      -7.305   6.757 131.683  0.00  0.00    -0.470 OA
ATOM      4  C   LIG A   1      -8.056   5.708 131.056  0.00  0.00    +0.316 C 
ATOM      5  C   LIG A   1      -7.170   4.417 130.947  0.00  0.00    +0.106 C 
ATOM      6  C   LIG A   1      -5.980   4.792 129.963  0.00  0.00    +0.052 C 
ENDROOT
BRANCH   5   7
ATOM      7  C   LIG A   1      -6.774   3.866 132.395  0.00  0.00    +0.183 C 
ATOM      8  C   LIG A   1      -7.984   3.842 133.352  0.00  0.00    +0.052 C 
BRANCH   7   9
ATOM      9  O   LIG A   1      -6.231   2.513 132.321  0.00  0.00    -0.458 OA
BRANCH   9  10
ATOM     10  C   LIG A   1      -7.029   1.444 132.638  0.00  0.00    +0.335 C 
ATOM     11  O   LIG A   1      -7.101   0.909 133.740  0.00  0.00    -0.245 OA
BRANCH  10  12
ATOM     12  C   LIG A   1      -7.832   0.954 131.460  0.00  0.00    +0.029 C 
ATOM     13  C   LIG A   1      -9.298   0.696 131.690  0.00  0.00    +0.051 C 
ATOM     14  C   LIG A   1      -7.214   0.751 130.282  0.00  0.00    -0.020 C 
ATOM     15  C   LIG A   1      -7.758   0.244 128.992  0.00  0.00    +0.035 C 
ENDBRANCH  10  12
ENDBRANCH   9  10
ENDBRANCH   7   9
ENDBRANCH   5   7
BRANCH   1  17
ATOM     16  O   LIG A   1      -2.996   6.579 130.800  0.00  0.00    -0.245 OA
ATOM     17  C   LIG A   1      -3.948   6.535 130.051  0.00  0.00    +0.338 C 
BRANCH  17  18
ATOM     18  O   LIG A   1      -3.946   6.895 128.732  0.00  0.00    -0.465 OA
ATOM     19  C   LIG A   1      -2.697   6.826 128.043  0.00  0.00    +0.280 C 
ENDBRANCH  17  18
ENDBRANCH   1  17
BRANCH   4  20
ATOM     20  O   LIG A   1      -8.609   6.113 129.770  0.00  0.00    -0.309 OA
BRANCH  20  21
ATOM     21  C   LIG A   1      -9.820   5.388 129.449  0.00  0.00    +0.286 C 
ATOM     22  O   LIG A   1     -10.611   6.130 128.516  0.00  0.00    -0.340 OA
ATOM     23  C   LIG A   1     -11.823   6.713 129.004  0.00  0.00    +0.178 C 
ATOM     24  C   LIG A   1     -11.642   7.237 130.435  0.00  0.00    +0.177 C 
ATOM     25  C   LIG A   1     -11.509   6.012 131.343  0.00  0.00    +0.179 C 
ATOM     26  C   LIG A   1     -10.577   4.937 130.742  0.00  0.00    +0.201 C 
BRANCH  25  27
ATOM     27  O   LIG A   1     -11.107   6.406 132.663  0.00  0.00    -0.386 OA
ATOM     28  H   LIG A   1     -10.143   6.300 132.744  0.00  0.00    +0.210 HD
ENDBRANCH  25  27
BRANCH  24  29
ATOM     29  O   LIG A   1     -12.740   8.049 130.868  0.00  0.00    -0.387 OA
ATOM     30  H   LIG A   1     -12.666   8.897 130.386  0.00  0.00    +0.210 HD
ENDBRANCH  24  29
BRANCH  26  31
ATOM     31  O   LIG A   1     -11.396   3.793 130.399  0.00  0.00    -0.384 OA
ATOM     32  H   LIG A   1     -12.279   4.121 130.145  0.00  0.00    +0.210 HD
ENDBRANCH  26  31
BRANCH  23  33
ATOM     33  C   LIG A   1     -12.249   7.791 128.000  0.00  0.00    +0.190 C 
BRANCH  33  34
ATOM     34  O   LIG A   1     -11.773   9.091 128.324  0.00  0.00    -0.392 OA
ATOM     35  H   LIG A   1     -12.153   9.708 127.663  0.00  0.00    +0.209 HD
ENDBRANCH  33  34
ENDBRANCH  23  33
ENDBRANCH  20  21
ENDBRANCH   4  20
BRANCH   6  36
ATOM     36  C   LIG A   1      -5.006   3.657 129.593  0.00  0.00    +0.129 C 
BRANCH  36  37
ATOM     37  C   LIG A   1      -4.858   3.413 128.104  0.00  0.00    +0.305 C 
ATOM     38  O   LIG A   1      -4.411   2.406 127.578  0.00  0.00    -0.251 OA
BRANCH  37  39
ATOM     39  O   LIG A   1      -5.273   4.469 127.358  0.00  0.00    -0.481 OA
ATOM     40  H   LIG A   1      -5.724   4.224 126.526  0.00  0.00    +0.295 HD
ENDBRANCH  37  39
ENDBRANCH  36  37
ENDBRANCH   6  36
TORSDOF 16
ENDMDL
MODEL 9
REMARK VINA RESULT:      -6.6      2.608      6.154
REMARK  Name = NuBBE_111
REMARK  20 active torsions:
REMARK  status: ('A' for Active; 'I' for Inactive)
REMARK    1  A    between atoms: C_2  and  C_3
REMARK    2  A    between atoms: C_2  and  O_43
REMARK    3  A    between atoms: C_6  and  O_26
REMARK    4  A    between atoms: C_8  and  C_16
REMARK    5  A    between atoms: C_10  and  C_12
REMARK    6  A    between atoms: C_12  and  C_13
REMARK    7  A    between atoms: C_13  and  O_14
REMARK    8  A    between atoms: C_16  and  C_18
REMARK    9  A    between atoms: C_16  and  O_19
REMARK   10  A    between atoms: O_19  and  C_20
REMARK   11  A    between atoms: C_20  and  C_21
REMARK   12  A    between atoms: C_21  and  C_22
REMARK   13  A    between atoms: C_23  and  C_24
REMARK   14  A    between atoms: O_26  and  C_27
REMARK   15  A    between atoms: C_30  and  C_38
REMARK   16  A    between atoms: C_32  and  O_37
REMARK   17  A    between atoms: C_34  and  O_36
REMARK   18  A    between atoms: C_38  and  O_39
REMARK   19  A    between atoms: C_40  and  O_42
REMARK   20  A    between atoms: O_43  and  C_44
REMARK                            x       y       z     vdW  Elec       q    Type
REMARK                         _______ _______ _______ _____ _____    ______ ____
ROOT
ATOM      1  C   LIG A   1      -8.808   5.120 130.456  0.00  0.00    +0.075 C 
ATOM      2  C   LIG A   1      -9.939   4.424 130.347  0.00  0.00    +0.201 C 
ATOM      3  O   LIG A   1     -10.076   3.154 129.863  0.00  0.00    -0.470 OA
ATOM      4  C   LIG A   1      -8.917   2.596 129.229  0.00  0.00    +0.316 C 
ATOM      5  C   LIG A   1      -7.646   2.890 130.102  0.00  0.00    +0.106 C 
ATOM      6  C   LIG A   1      -7.470   4.469 130.089  0.00  0.00    +0.052 C 
ENDROOT
BRANCH   5   7
ATOM      7  C   LIG A   1      -7.749   2.178 131.530  0.00  0.00    +0.183 C 
ATOM      8  C   LIG A   1      -8.771   1.022 131.524  0.00  0.00    +0.052 C 
BRANCH   7   9
ATOM      9  O   LIG A   1      -6.460   1.638 131.952  0.00  0.00    -0.458 OA
BRANCH   9  10
ATOM     10  C   LIG A   1      -5.675   0.972 131.046  0.00  0.00    +0.335 C 
ATOM     11  O   LIG A   1      -5.839  -0.185 130.675  0.00  0.00    -0.245 OA
BRANCH  10  12
ATOM     12  C   LIG A   1      -4.536   1.819 130.538  0.00  0.00    +0.029 C 
ATOM     13  C   LIG A   1      -3.694   2.525 131.568  0.00  0.00    +0.051 C 
ATOM     14  C   LIG A   1      -4.336   1.924 129.211  0.00  0.00    -0.020 C 
ATOM     15  C   LIG A   1      -3.322   2.712 128.456  0.00  0.00    +0.035 C 
ENDBRANCH  10  12
ENDBRANCH   9  10
ENDBRANCH   7   9
ENDBRANCH   5   7
BRANCH   1  17
ATOM     16  O   LIG A   1      -8.557   7.533 130.423  0.00  0.00    -0.245 OA
ATOM     17  C   LIG A   1      -8.927   6.528 130.990  0.00  0.00    +0.338 C 
BRANCH  17  18
ATOM     18  O   LIG A   1      -9.492   6.473 132.234  0.00  0.00    -0.465 OA
ATOM     19  C   LIG A   1      -8.702   5.912 133.282  0.00  0.00    +0.280 C 
ENDBRANCH  17  18
ENDBRANCH   1  17
BRANCH   4  20
ATOM     20  O   LIG A   1      -8.764   3.049 127.853  0.00  0.00    -0.309 OA
BRANCH  20  21
ATOM     21  C   LIG A   1      -7.783   2.265 127.131  0.00  0.00    +0.286 C 
ATOM     22  O   LIG A   1      -6.753   3.112 126.615  0.00  0.00    -0.340 OA
ATOM     23  C   LIG A   1      -6.722   3.319 125.200  0.00  0.00    +0.178 C 
ATOM     24  C   LIG A   1      -8.144   3.417 124.631  0.00  0.00    +0.177 C 
ATOM     25  C   LIG A   1      -8.754   2.017 124.717  0.00  0.00    +0.179 C 
ATOM     26  C   LIG A   1      -8.461   1.334 126.072  0.00  0.00    +0.201 C 
BRANCH  25  27
ATOM     27  O   LIG A   1     -10.157   2.060 124.421  0.00  0.00    -0.386 OA
ATOM     28  H   LIG A   1     -10.412   1.231 123.978  0.00  0.00    +0.210 HD
ENDBRANCH  25  27
BRANCH  24  29
ATOM     29  O   LIG A   1      -8.164   3.875 123.273  0.00  0.00    -0.387 OA
ATOM     30  H   LIG A   1      -8.365   4.831 123.304  0.00  0.00    +0.210 HD
ENDBRANCH  24  29
BRANCH  26  31
ATOM     31  O   LIG A   1      -7.564   0.227 125.817  0.00  0.00    -0.384 OA
ATOM     32  H   LIG A   1      -6.663   0.508 126.063  0.00  0.00    +0.210 HD
ENDBRANCH  26  31
BRANCH  23  33
ATOM     33  C   LIG A   1      -5.864   4.563 124.937  0.00  0.00    +0.190 C 
BRANCH  33  34
ATOM     34  O   LIG A   1      -6.599   5.780 124.972  0.00  0.00    -0.392 OA
ATOM     35  H   LIG A   1      -6.439   6.185 125.851  0.00  0.00    +0.209 HD
ENDBRANCH  33  34
ENDBRANCH  23  33
ENDBRANCH  20  21
ENDBRANCH   4  20
BRANCH   6  36
ATOM     36  C   LIG A   1      -6.220   5.031 130.793  0.00  0.00    +0.129 C 
BRANCH  36  37
ATOM     37  C   LIG A   1      -5.147   5.547 129.854  0.00  0.00    +0.305 C 
ATOM     38  O   LIG A   1      -5.228   5.624 128.638  0.00  0.00    -0.251 OA
BRANCH  37  39
ATOM     39  O   LIG A   1      -4.018   5.925 130.507  0.00  0.00    -0.481 OA
ATOM     40  H   LIG A   1      -3.574   5.205 130.997  0.00  0.00    +0.295 HD
ENDBRANCH  37  39
ENDBRANCH  36  37
ENDBRANCH   6  36
TORSDOF 16
ENDMDL
