MODEL 1
REMARK VINA RESULT:      -6.8      0.000      0.000
REMARK  Name = NuBBE_1681
REMARK  16 active torsions:
REMARK  status: ('A' for Active; 'I' for Inactive)
REMARK    1  A    between atoms: C_1  and  C_2
REMARK    2  A    between atoms: C_2  and  C_3
REMARK    3  A    between atoms: C_3  and  C_4
REMARK    4  A    between atoms: C_4  and  C_5
REMARK    5  A    between atoms: C_5  and  C_6
REMARK    6  A    between atoms: C_6  and  C_7
REMARK    7  A    between atoms: C_8  and  C_9
REMARK    8  A    between atoms: C_9  and  C_10
REMARK    9  A    between atoms: C_10  and  C_11
REMARK   10  A    between atoms: C_11  and  C_12
REMARK   11  A    between atoms: C_12  and  C_13
REMARK   12  A    between atoms: C_13  and  C_14
REMARK   13  A    between atoms: C_14  and  C_15
REMARK   14  A    between atoms: C_15  and  C_16
REMARK   15  A    between atoms: C_18  and  O_19
REMARK   16  A    between atoms: C_21  and  O_22
REMARK                            x       y       z     vdW  Elec       q    Type
REMARK                         _______ _______ _______ _____ _____    ______ ____
ROOT
ATOM      1  C   LIG A   1      -8.830  -3.833 127.807  0.00  0.00    +0.000 C 
ENDROOT
BRANCH   1   2
ATOM      2  C   LIG A   1      -8.592  -3.090 126.492  0.00  0.00    +0.000 C 
BRANCH   2   3
ATOM      3  C   LIG A   1      -8.529  -3.874 125.165  0.00  0.00    +0.000 C 
BRANCH   3   4
ATOM      4  C   LIG A   1      -9.504  -3.512 123.975  0.00  0.00    +0.004 C 
BRANCH   4   5
ATOM      5  C   LIG A   1      -9.127  -2.361 123.069  0.00  0.00    +0.027 C 
BRANCH   5   7
ATOM      6  C   LIG A   1      -6.213  -1.823 122.754  0.00  0.00    -0.031 C 
ATOM      7  C   LIG A   1      -7.647  -1.822 122.325  0.00  0.00    -0.031 C 
BRANCH   6   8
ATOM      8  C   LIG A   1      -5.262  -2.252 124.352  0.00  0.00    +0.027 C 
BRANCH   8   9
ATOM      9  C   LIG A   1      -5.390  -1.480 125.965  0.00  0.00    +0.004 C 
BRANCH   9  10
ATOM     10  C   LIG A   1      -5.627   0.019 126.164  0.00  0.00    +0.000 C 
BRANCH  10  11
ATOM     11  C   LIG A   1      -7.040   0.174 126.589  0.00  0.00    -0.000 C 
BRANCH  11  13
ATOM     12  C   LIG A   1      -9.399   0.341 125.689  0.00  0.00    +0.004 C 
ATOM     13  C   LIG A   1      -7.939   0.480 125.411  0.00  0.00    -0.003 C 
ENDBRANCH  11  13
ENDBRANCH  10  11
ENDBRANCH   9  10
ENDBRANCH   8   9
ENDBRANCH   6   8
ENDBRANCH   5   7
ENDBRANCH   4   5
ENDBRANCH   3   4
ENDBRANCH   2   3
ENDBRANCH   1   2
BRANCH   1  14
ATOM     14  C   LIG A   1      -8.177  -3.239 129.097  0.00  0.00    +0.005 C 
BRANCH  14  15
ATOM     15  C   LIG A   1      -6.712  -2.651 129.099  0.00  0.00    +0.035 C 
BRANCH  15  16
ATOM     16  C   LIG A   1      -5.681  -3.447 129.783  0.00  0.00    -0.041 A 
ATOM     17  C   LIG A   1      -4.444  -3.214 129.242  0.00  0.00    +0.049 A 
ATOM     18  C   LIG A   1      -3.596  -3.220 130.137  0.00  0.00    +0.121 A 
ATOM     19  C   LIG A   1      -3.790  -3.962 131.617  0.00  0.00    +0.090 A 
ATOM     20  C   LIG A   1      -4.961  -4.549 131.939  0.00  0.00    +0.121 A 
ATOM     21  C   LIG A   1      -5.931  -4.217 131.025  0.00  0.00    +0.049 A 
BRANCH  18  22
ATOM     22  O   LIG A   1      -2.527  -2.202 129.738  0.00  0.00    -0.507 OA
ATOM     23  H   LIG A   1      -1.676  -2.124 130.215  0.00  0.00    +0.292 HD
ENDBRANCH  18  22
BRANCH  20  24
ATOM     24  O   LIG A   1      -5.069  -5.417 132.943  0.00  0.00    -0.507 OA
ATOM     25  H   LIG A   1      -4.758  -6.310 132.691  0.00  0.00    +0.292 HD
ENDBRANCH  20  24
ENDBRANCH  15  16
ENDBRANCH  14  15
ENDBRANCH   1  14
TORSDOF 15
ENDMDL
MODEL 2
REMARK VINA RESULT:      -6.8      3.633      6.440
REMARK  Name = NuBBE_1681
REMARK  16 active torsions:
REMARK  status: ('A' for Active; 'I' for Inactive)
REMARK    1  A    between atoms: C_1  and  C_2
REMARK    2  A    between atoms: C_2  and  C_3
REMARK    3  A    between atoms: C_3  and  C_4
REMARK    4  A    between atoms: C_4  and  C_5
REMARK    5  A    between atoms: C_5  and  C_6
REMARK    6  A    between atoms: C_6  and  C_7
REMARK    7  A    between atoms: C_8  and  C_9
REMARK    8  A    between atoms: C_9  and  C_10
REMARK    9  A    between atoms: C_10  and  C_11
REMARK   10  A    between atoms: C_11  and  C_12
REMARK   11  A    between atoms: C_12  and  C_13
REMARK   12  A    between atoms: C_13  and  C_14
REMARK   13  A    between atoms: C_14  and  C_15
REMARK   14  A    between atoms: C_15  and  C_16
REMARK   15  A    between atoms: C_18  and  O_19
REMARK   16  A    between atoms: C_21  and  O_22
REMARK                            x       y       z     vdW  Elec       q    Type
REMARK                         _______ _______ _______ _____ _____    ______ ____
ROOT
ATOM      1  C   LIG A   1      -8.618  -3.213 128.633  0.00  0.00    +0.000 C 
ENDROOT
BRANCH   1   2
ATOM      2  C   LIG A   1      -7.572  -2.141 128.939  0.00  0.00    +0.000 C 
BRANCH   2   3
ATOM      3  C   LIG A   1      -6.192  -2.195 128.253  0.00  0.00    +0.000 C 
BRANCH   3   4
ATOM      4  C   LIG A   1      -5.848  -1.207 127.069  0.00  0.00    +0.004 C 
BRANCH   4   5
ATOM      5  C   LIG A   1      -6.811  -0.077 126.780  0.00  0.00    +0.027 C 
BRANCH   5   7
ATOM      6  C   LIG A   1      -9.290   0.970 125.498  0.00  0.00    -0.031 C 
ATOM      7  C   LIG A   1      -8.492   0.015 126.330  0.00  0.00    -0.031 C 
BRANCH   6   8
ATOM      8  C   LIG A   1      -8.959   2.637 124.630  0.00  0.00    +0.027 C 
BRANCH   8   9
ATOM      9  C   LIG A   1      -8.231   2.927 123.018  0.00  0.00    +0.004 C 
BRANCH   9  10
ATOM     10  C   LIG A   1      -6.802   2.517 122.653  0.00  0.00    +0.000 C 
BRANCH  10  11
ATOM     11  C   LIG A   1      -6.053   3.771 122.395  0.00  0.00    -0.000 C 
BRANCH  11  13
ATOM     12  C   LIG A   1      -6.486   4.225 119.943  0.00  0.00    +0.004 C 
ATOM     13  C   LIG A   1      -5.503   3.805 120.985  0.00  0.00    -0.003 C 
ENDBRANCH  11  13
ENDBRANCH  10  11
ENDBRANCH   9  10
ENDBRANCH   8   9
ENDBRANCH   6   8
ENDBRANCH   5   7
ENDBRANCH   4   5
ENDBRANCH   3   4
ENDBRANCH   2   3
ENDBRANCH   1   2
BRANCH   1  14
ATOM     14  C   LIG A   1      -8.565  -3.891 127.225  0.00  0.00    +0.005 C 
BRANCH  14  15
ATOM     15  C   LIG A   1      -9.396  -3.343 126.001  0.00  0.00    +0.035 C 
BRANCH  15  16
ATOM     16  C   LIG A   1      -8.670  -3.168 124.734  0.00  0.00    -0.041 A 
ATOM     17  C   LIG A   1      -9.510  -2.731 123.743  0.00  0.00    +0.049 A 
ATOM     18  C   LIG A   1      -8.914  -1.932 123.020  0.00  0.00    +0.121 A 
ATOM     19  C   LIG A   1      -7.255  -1.844 122.876  0.00  0.00    +0.090 A 
ATOM     20  C   LIG A   1      -6.461  -2.629 123.633  0.00  0.00    +0.121 A 
ATOM     21  C   LIG A   1      -7.194  -3.243 124.619  0.00  0.00    +0.049 A 
BRANCH  18  22
ATOM     22  O   LIG A   1      -9.945  -0.902 122.556  0.00  0.00    -0.507 OA
ATOM     23  H   LIG A   1      -9.688  -0.016 122.231  0.00  0.00    +0.292 HD
ENDBRANCH  18  22
BRANCH  20  24
ATOM     24  O   LIG A   1      -5.178  -2.836 123.341  0.00  0.00    -0.507 OA
ATOM     25  H   LIG A   1      -4.796  -3.567 123.868  0.00  0.00    +0.292 HD
ENDBRANCH  20  24
ENDBRANCH  15  16
ENDBRANCH  14  15
ENDBRANCH   1  14
TORSDOF 15
ENDMDL
MODEL 3
REMARK VINA RESULT:      -6.6      1.354      2.860
REMARK  Name = NuBBE_1681
REMARK  16 active torsions:
REMARK  status: ('A' for Active; 'I' for Inactive)
REMARK    1  A    between atoms: C_1  and  C_2
REMARK    2  A    between atoms: C_2  and  C_3
REMARK    3  A    between atoms: C_3  and  C_4
REMARK    4  A    between atoms: C_4  and  C_5
REMARK    5  A    between atoms: C_5  and  C_6
REMARK    6  A    between atoms: C_6  and  C_7
REMARK    7  A    between atoms: C_8  and  C_9
REMARK    8  A    between atoms: C_9  and  C_10
REMARK    9  A    between atoms: C_10  and  C_11
REMARK   10  A    between atoms: C_11  and  C_12
REMARK   11  A    between atoms: C_12  and  C_13
REMARK   12  A    between atoms: C_13  and  C_14
REMARK   13  A    between atoms: C_14  and  C_15
REMARK   14  A    between atoms: C_15  and  C_16
REMARK   15  A    between atoms: C_18  and  O_19
REMARK   16  A    between atoms: C_21  and  O_22
REMARK                            x       y       z     vdW  Elec       q    Type
REMARK                         _______ _______ _______ _____ _____    ______ ____
ROOT
ATOM      1  C   LIG A   1      -8.701  -3.557 126.848  0.00  0.00    +0.000 C 
ENDROOT
BRANCH   1   2
ATOM      2  C   LIG A   1      -9.390  -2.775 125.729  0.00  0.00    +0.000 C 
BRANCH   2   3
ATOM      3  C   LIG A   1      -9.447  -3.360 124.303  0.00  0.00    +0.000 C 
BRANCH   3   4
ATOM      4  C   LIG A   1      -8.766  -2.598 123.098  0.00  0.00    +0.004 C 
BRANCH   4   5
ATOM      5  C   LIG A   1      -9.140  -1.150 122.866  0.00  0.00    +0.027 C 
BRANCH   5   7
ATOM      6  C   LIG A   1      -7.483   0.766 124.437  0.00  0.00    -0.031 C 
ATOM      7  C   LIG A   1      -8.580   0.375 123.496  0.00  0.00    -0.031 C 
BRANCH   6   8
ATOM      8  C   LIG A   1      -6.238  -0.159 125.548  0.00  0.00    +0.027 C 
BRANCH   8   9
ATOM      9  C   LIG A   1      -5.629  -1.837 125.380  0.00  0.00    +0.004 C 
BRANCH   9  10
ATOM     10  C   LIG A   1      -5.270  -2.473 124.035  0.00  0.00    +0.000 C 
BRANCH  10  11
ATOM     11  C   LIG A   1      -5.857  -3.835 124.038  0.00  0.00    -0.000 C 
BRANCH  11  13
ATOM     12  C   LIG A   1      -3.445  -4.352 123.475  0.00  0.00    +0.004 C 
ATOM     13  C   LIG A   1      -4.804  -4.890 123.774  0.00  0.00    -0.003 C 
ENDBRANCH  11  13
ENDBRANCH  10  11
ENDBRANCH   9  10
ENDBRANCH   8   9
ENDBRANCH   6   8
ENDBRANCH   5   7
ENDBRANCH   4   5
ENDBRANCH   3   4
ENDBRANCH   2   3
ENDBRANCH   1   2
BRANCH   1  14
ATOM     14  C   LIG A   1      -8.038  -2.733 127.999  0.00  0.00    +0.005 C 
BRANCH  14  15
ATOM     15  C   LIG A   1      -7.713  -3.371 129.405  0.00  0.00    +0.035 C 
BRANCH  15  16
ATOM     16  C   LIG A   1      -6.291  -3.522 129.750  0.00  0.00    -0.041 A 
ATOM     17  C   LIG A   1      -5.501  -2.781 128.910  0.00  0.00    +0.049 A 
ATOM     18  C   LIG A   1      -4.558  -2.307 129.545  0.00  0.00    +0.121 A 
ATOM     19  C   LIG A   1      -3.986  -2.918 130.986  0.00  0.00    +0.090 A 
ATOM     20  C   LIG A   1      -4.606  -3.958 131.581  0.00  0.00    +0.121 A 
ATOM     21  C   LIG A   1      -5.814  -4.205 130.976  0.00  0.00    +0.049 A 
BRANCH  18  22
ATOM     22  O   LIG A   1      -4.248  -0.944 128.922  0.00  0.00    -0.507 OA
ATOM     23  H   LIG A   1      -3.981  -0.846 127.986  0.00  0.00    +0.292 HD
ENDBRANCH  18  22
BRANCH  20  24
ATOM     24  O   LIG A   1      -4.025  -4.682 132.536  0.00  0.00    -0.507 OA
ATOM     25  H   LIG A   1      -3.141  -4.334 132.772  0.00  0.00    +0.292 HD
ENDBRANCH  20  24
ENDBRANCH  15  16
ENDBRANCH  14  15
ENDBRANCH   1  14
TORSDOF 15
ENDMDL
MODEL 4
REMARK VINA RESULT:      -6.5      1.709      2.302
REMARK  Name = NuBBE_1681
REMARK  16 active torsions:
REMARK  status: ('A' for Active; 'I' for Inactive)
REMARK    1  A    between atoms: C_1  and  C_2
REMARK    2  A    between atoms: C_2  and  C_3
REMARK    3  A    between atoms: C_3  and  C_4
REMARK    4  A    between atoms: C_4  and  C_5
REMARK    5  A    between atoms: C_5  and  C_6
REMARK    6  A    between atoms: C_6  and  C_7
REMARK    7  A    between atoms: C_8  and  C_9
REMARK    8  A    between atoms: C_9  and  C_10
REMARK    9  A    between atoms: C_10  and  C_11
REMARK   10  A    between atoms: C_11  and  C_12
REMARK   11  A    between atoms: C_12  and  C_13
REMARK   12  A    between atoms: C_13  and  C_14
REMARK   13  A    between atoms: C_14  and  C_15
REMARK   14  A    between atoms: C_15  and  C_16
REMARK   15  A    between atoms: C_18  and  O_19
REMARK   16  A    between atoms: C_21  and  O_22
REMARK                            x       y       z     vdW  Elec       q    Type
REMARK                         _______ _______ _______ _____ _____    ______ ____
ROOT
ATOM      1  C   LIG A   1      -8.990  -3.981 127.657  0.00  0.00    +0.000 C 
ENDROOT
BRANCH   1   2
ATOM      2  C   LIG A   1      -9.280  -3.176 126.390  0.00  0.00    +0.000 C 
BRANCH   2   3
ATOM      3  C   LIG A   1      -8.738  -3.660 125.030  0.00  0.00    +0.000 C 
BRANCH   3   4
ATOM      4  C   LIG A   1      -9.386  -3.146 123.683  0.00  0.00    +0.004 C 
BRANCH   4   5
ATOM      5  C   LIG A   1      -8.585  -2.190 122.826  0.00  0.00    +0.027 C 
BRANCH   5   7
ATOM      6  C   LIG A   1      -5.643  -2.262 123.296  0.00  0.00    -0.031 C 
ATOM      7  C   LIG A   1      -6.887  -1.944 122.526  0.00  0.00    -0.031 C 
BRANCH   6   8
ATOM      8  C   LIG A   1      -5.245  -2.944 125.033  0.00  0.00    +0.027 C 
BRANCH   8   9
ATOM      9  C   LIG A   1      -5.617  -2.213 126.627  0.00  0.00    +0.004 C 
BRANCH   9  10
ATOM     10  C   LIG A   1      -5.661  -0.703 126.873  0.00  0.00    +0.000 C 
BRANCH  10  11
ATOM     11  C   LIG A   1      -7.093  -0.333 126.989  0.00  0.00    -0.000 C 
BRANCH  11  13
ATOM     12  C   LIG A   1      -6.736   0.968 124.848  0.00  0.00    +0.004 C 
ATOM     13  C   LIG A   1      -7.657   0.118 125.659  0.00  0.00    -0.003 C 
ENDBRANCH  11  13
ENDBRANCH  10  11
ENDBRANCH   9  10
ENDBRANCH   8   9
ENDBRANCH   6   8
ENDBRANCH   5   7
ENDBRANCH   4   5
ENDBRANCH   3   4
ENDBRANCH   2   3
ENDBRANCH   1   2
BRANCH   1  14
ATOM     14  C   LIG A   1      -8.421  -3.204 128.889  0.00  0.00    +0.005 C 
BRANCH  14  15
ATOM     15  C   LIG A   1      -7.148  -3.701 129.677  0.00  0.00    +0.035 C 
BRANCH  15  16
ATOM     16  C   LIG A   1      -6.332  -2.668 130.336  0.00  0.00    -0.041 A 
ATOM     17  C   LIG A   1      -7.126  -1.737 130.952  0.00  0.00    +0.049 A 
ATOM     18  C   LIG A   1      -6.600  -1.383 132.009  0.00  0.00    +0.121 A 
ATOM     19  C   LIG A   1      -4.975  -1.524 132.348  0.00  0.00    +0.090 A 
ATOM     20  C   LIG A   1      -4.143  -2.125 131.473  0.00  0.00    +0.121 A 
ATOM     21  C   LIG A   1      -4.861  -2.761 130.490  0.00  0.00    +0.049 A 
BRANCH  18  22
ATOM     22  O   LIG A   1      -7.736  -1.094 132.992  0.00  0.00    -0.507 OA
ATOM     23  H   LIG A   1      -8.183  -1.803 133.497  0.00  0.00    +0.292 HD
ENDBRANCH  18  22
BRANCH  20  24
ATOM     24  O   LIG A   1      -2.820  -1.983 131.534  0.00  0.00    -0.507 OA
ATOM     25  H   LIG A   1      -2.455  -2.310 132.381  0.00  0.00    +0.292 HD
ENDBRANCH  20  24
ENDBRANCH  15  16
ENDBRANCH  14  15
ENDBRANCH   1  14
TORSDOF 15
ENDMDL
MODEL 5
REMARK VINA RESULT:      -6.4      3.387      6.364
REMARK  Name = NuBBE_1681
REMARK  16 active torsions:
REMARK  status: ('A' for Active; 'I' for Inactive)
REMARK    1  A    between atoms: C_1  and  C_2
REMARK    2  A    between atoms: C_2  and  C_3
REMARK    3  A    between atoms: C_3  and  C_4
REMARK    4  A    between atoms: C_4  and  C_5
REMARK    5  A    between atoms: C_5  and  C_6
REMARK    6  A    between atoms: C_6  and  C_7
REMARK    7  A    between atoms: C_8  and  C_9
REMARK    8  A    between atoms: C_9  and  C_10
REMARK    9  A    between atoms: C_10  and  C_11
REMARK   10  A    between atoms: C_11  and  C_12
REMARK   11  A    between atoms: C_12  and  C_13
REMARK   12  A    between atoms: C_13  and  C_14
REMARK   13  A    between atoms: C_14  and  C_15
REMARK   14  A    between atoms: C_15  and  C_16
REMARK   15  A    between atoms: C_18  and  O_19
REMARK   16  A    between atoms: C_21  and  O_22
REMARK                            x       y       z     vdW  Elec       q    Type
REMARK                         _______ _______ _______ _____ _____    ______ ____
ROOT
ATOM      1  C   LIG A   1      -8.578  -3.209 128.739  0.00  0.00    +0.000 C 
ENDROOT
BRANCH   1   2
ATOM      2  C   LIG A   1      -7.392  -2.356 129.187  0.00  0.00    +0.000 C 
BRANCH   2   3
ATOM      3  C   LIG A   1      -5.957  -2.765 128.797  0.00  0.00    +0.000 C 
BRANCH   3   4
ATOM      4  C   LIG A   1      -5.218  -2.046 127.600  0.00  0.00    +0.004 C 
BRANCH   4   5
ATOM      5  C   LIG A   1      -5.757  -0.715 127.125  0.00  0.00    +0.027 C 
BRANCH   5   7
ATOM      6  C   LIG A   1      -7.747   1.089 125.832  0.00  0.00    -0.031 C 
ATOM      7  C   LIG A   1      -7.294  -0.163 126.518  0.00  0.00    -0.031 C 
BRANCH   6   8
ATOM      8  C   LIG A   1      -6.962   2.773 125.399  0.00  0.00    +0.027 C 
BRANCH   8   9
ATOM      9  C   LIG A   1      -5.231   3.238 125.440  0.00  0.00    +0.004 C 
BRANCH   9  10
ATOM     10  C   LIG A   1      -4.205   2.582 126.367  0.00  0.00    +0.000 C 
BRANCH  10  11
ATOM     11  C   LIG A   1      -3.842   3.598 127.386  0.00  0.00    -0.000 C 
BRANCH  11  13
ATOM     12  C   LIG A   1      -1.554   3.027 126.468  0.00  0.00    +0.004 C 
ATOM     13  C   LIG A   1      -2.369   3.938 127.324  0.00  0.00    -0.003 C 
ENDBRANCH  11  13
ENDBRANCH  10  11
ENDBRANCH   9  10
ENDBRANCH   8   9
ENDBRANCH   6   8
ENDBRANCH   5   7
ENDBRANCH   4   5
ENDBRANCH   3   4
ENDBRANCH   2   3
ENDBRANCH   1   2
BRANCH   1  14
ATOM     14  C   LIG A   1      -8.496  -3.868 127.323  0.00  0.00    +0.005 C 
BRANCH  14  15
ATOM     15  C   LIG A   1      -9.318  -3.317 126.094  0.00  0.00    +0.035 C 
BRANCH  15  16
ATOM     16  C   LIG A   1      -8.593  -3.179 124.822  0.00  0.00    -0.041 A 
ATOM     17  C   LIG A   1      -9.431  -2.755 123.823  0.00  0.00    +0.049 A 
ATOM     18  C   LIG A   1      -8.826  -1.979 123.081  0.00  0.00    +0.121 A 
ATOM     19  C   LIG A   1      -7.168  -1.915 122.931  0.00  0.00    +0.090 A 
ATOM     20  C   LIG A   1      -6.380  -2.691 123.704  0.00  0.00    +0.121 A 
ATOM     21  C   LIG A   1      -7.119  -3.275 124.705  0.00  0.00    +0.049 A 
BRANCH  18  22
ATOM     22  O   LIG A   1      -9.846  -0.948 122.596  0.00  0.00    -0.507 OA
ATOM     23  H   LIG A   1      -9.580  -0.072 122.250  0.00  0.00    +0.292 HD
ENDBRANCH  18  22
BRANCH  20  24
ATOM     24  O   LIG A   1      -5.101  -2.920 123.414  0.00  0.00    -0.507 OA
ATOM     25  H   LIG A   1      -4.726  -3.644 123.957  0.00  0.00    +0.292 HD
ENDBRANCH  20  24
ENDBRANCH  15  16
ENDBRANCH  14  15
ENDBRANCH   1  14
TORSDOF 15
ENDMDL
MODEL 6
REMARK VINA RESULT:      -6.4      1.510      1.727
REMARK  Name = NuBBE_1681
REMARK  16 active torsions:
REMARK  status: ('A' for Active; 'I' for Inactive)
REMARK    1  A    between atoms: C_1  and  C_2
REMARK    2  A    between atoms: C_2  and  C_3
REMARK    3  A    between atoms: C_3  and  C_4
REMARK    4  A    between atoms: C_4  and  C_5
REMARK    5  A    between atoms: C_5  and  C_6
REMARK    6  A    between atoms: C_6  and  C_7
REMARK    7  A    between atoms: C_8  and  C_9
REMARK    8  A    between atoms: C_9  and  C_10
REMARK    9  A    between atoms: C_10  and  C_11
REMARK   10  A    between atoms: C_11  and  C_12
REMARK   11  A    between atoms: C_12  and  C_13
REMARK   12  A    between atoms: C_13  and  C_14
REMARK   13  A    between atoms: C_14  and  C_15
REMARK   14  A    between atoms: C_15  and  C_16
REMARK   15  A    between atoms: C_18  and  O_19
REMARK   16  A    between atoms: C_21  and  O_22
REMARK                            x       y       z     vdW  Elec       q    Type
REMARK                         _______ _______ _______ _____ _____    ______ ____
ROOT
ATOM      1  C   LIG A   1      -9.029  -3.988 128.016  0.00  0.00    +0.000 C 
ENDROOT
BRANCH   1   2
ATOM      2  C   LIG A   1      -8.572  -3.655 126.596  0.00  0.00    +0.000 C 
BRANCH   2   3
ATOM      3  C   LIG A   1      -9.585  -3.109 125.569  0.00  0.00    +0.000 C 
BRANCH   3   4
ATOM      4  C   LIG A   1      -9.469  -3.505 124.044  0.00  0.00    +0.004 C 
BRANCH   4   5
ATOM      5  C   LIG A   1      -8.989  -2.453 123.068  0.00  0.00    +0.027 C 
BRANCH   5   7
ATOM      6  C   LIG A   1      -6.081  -1.843 123.300  0.00  0.00    -0.031 C 
ATOM      7  C   LIG A   1      -7.436  -1.773 122.667  0.00  0.00    -0.031 C 
BRANCH   6   8
ATOM      8  C   LIG A   1      -5.360  -2.555 124.917  0.00  0.00    +0.027 C 
BRANCH   8   9
ATOM      9  C   LIG A   1      -5.574  -1.950 126.591  0.00  0.00    +0.004 C 
BRANCH   9  10
ATOM     10  C   LIG A   1      -5.612  -0.463 126.952  0.00  0.00    +0.000 C 
BRANCH  10  11
ATOM     11  C   LIG A   1      -7.038  -0.112 127.157  0.00  0.00    -0.000 C 
BRANCH  11  13
ATOM     12  C   LIG A   1      -9.124   0.373 125.809  0.00  0.00    +0.004 C 
ATOM     13  C   LIG A   1      -7.640   0.501 125.911  0.00  0.00    -0.003 C 
ENDBRANCH  11  13
ENDBRANCH  10  11
ENDBRANCH   9  10
ENDBRANCH   8   9
ENDBRANCH   6   8
ENDBRANCH   5   7
ENDBRANCH   4   5
ENDBRANCH   3   4
ENDBRANCH   2   3
ENDBRANCH   1   2
BRANCH   1  14
ATOM     14  C   LIG A   1      -8.347  -3.215 129.192  0.00  0.00    +0.005 C 
BRANCH  14  15
ATOM     15  C   LIG A   1      -6.840  -3.456 129.590  0.00  0.00    +0.035 C 
BRANCH  15  16
ATOM     16  C   LIG A   1      -6.548  -3.587 131.026  0.00  0.00    -0.041 A 
ATOM     17  C   LIG A   1      -5.370  -4.257 131.228  0.00  0.00    +0.049 A 
ATOM     18  C   LIG A   1      -4.776  -3.765 132.190  0.00  0.00    +0.121 A 
ATOM     19  C   LIG A   1      -5.506  -2.876 133.396  0.00  0.00    +0.090 A 
ATOM     20  C   LIG A   1      -6.821  -2.582 133.328  0.00  0.00    +0.121 A 
ATOM     21  C   LIG A   1      -7.317  -2.890 132.084  0.00  0.00    +0.049 A 
BRANCH  18  22
ATOM     22  O   LIG A   1      -3.281  -3.878 131.890  0.00  0.00    -0.507 OA
ATOM     23  H   LIG A   1      -2.943  -4.185 131.024  0.00  0.00    +0.292 HD
ENDBRANCH  18  22
BRANCH  20  24
ATOM     24  O   LIG A   1      -7.514  -2.168 134.387  0.00  0.00    -0.507 OA
ATOM     25  H   LIG A   1      -7.421  -1.205 134.533  0.00  0.00    +0.292 HD
ENDBRANCH  20  24
ENDBRANCH  15  16
ENDBRANCH  14  15
ENDBRANCH   1  14
TORSDOF 15
ENDMDL
MODEL 7
REMARK VINA RESULT:      -6.3      2.057      2.890
REMARK  Name = NuBBE_1681
REMARK  16 active torsions:
REMARK  status: ('A' for Active; 'I' for Inactive)
REMARK    1  A    between atoms: C_1  and  C_2
REMARK    2  A    between atoms: C_2  and  C_3
REMARK    3  A    between atoms: C_3  and  C_4
REMARK    4  A    between atoms: C_4  and  C_5
REMARK    5  A    between atoms: C_5  and  C_6
REMARK    6  A    between atoms: C_6  and  C_7
REMARK    7  A    between atoms: C_8  and  C_9
REMARK    8  A    between atoms: C_9  and  C_10
REMARK    9  A    between atoms: C_10  and  C_11
REMARK   10  A    between atoms: C_11  and  C_12
REMARK   11  A    between atoms: C_12  and  C_13
REMARK   12  A    between atoms: C_13  and  C_14
REMARK   13  A    between atoms: C_14  and  C_15
REMARK   14  A    between atoms: C_15  and  C_16
REMARK   15  A    between atoms: C_18  and  O_19
REMARK   16  A    between atoms: C_21  and  O_22
REMARK                            x       y       z     vdW  Elec       q    Type
REMARK                         _______ _______ _______ _____ _____    ______ ____
ROOT
ATOM      1  C   LIG A   1      -8.938  -3.848 127.330  0.00  0.00    +0.000 C 
ENDROOT
BRANCH   1   2
ATOM      2  C   LIG A   1      -9.253  -2.783 126.280  0.00  0.00    +0.000 C 
BRANCH   2   3
ATOM      3  C   LIG A   1      -9.331  -3.170 124.789  0.00  0.00    +0.000 C 
BRANCH   3   4
ATOM      4  C   LIG A   1      -8.015  -3.272 123.920  0.00  0.00    +0.004 C 
BRANCH   4   5
ATOM      5  C   LIG A   1      -6.878  -2.324 124.233  0.00  0.00    +0.027 C 
BRANCH   5   7
ATOM      6  C   LIG A   1      -5.657  -1.513 126.828  0.00  0.00    -0.031 C 
ATOM      7  C   LIG A   1      -5.693  -2.212 125.505  0.00  0.00    -0.031 C 
BRANCH   6   8
ATOM      8  C   LIG A   1      -6.779  -0.278 127.755  0.00  0.00    +0.027 C 
BRANCH   8   9
ATOM      9  C   LIG A   1      -8.220   0.594 127.140  0.00  0.00    +0.004 C 
BRANCH   9  10
ATOM     10  C   LIG A   1      -8.352   1.091 125.699  0.00  0.00    +0.000 C 
BRANCH  10  11
ATOM     11  C   LIG A   1      -9.734   0.772 125.264  0.00  0.00    -0.000 C 
BRANCH  11  13
ATOM     12  C   LIG A   1      -9.922   0.334 122.779  0.00  0.00    +0.004 C 
ATOM     13  C   LIG A   1     -10.022   1.329 123.886  0.00  0.00    -0.003 C 
ENDBRANCH  11  13
ENDBRANCH  10  11
ENDBRANCH   9  10
ENDBRANCH   8   9
ENDBRANCH   6   8
ENDBRANCH   5   7
ENDBRANCH   4   5
ENDBRANCH   3   4
ENDBRANCH   2   3
ENDBRANCH   1   2
BRANCH   1  14
ATOM     14  C   LIG A   1      -8.503  -3.354 128.748  0.00  0.00    +0.005 C 
BRANCH  14  15
ATOM     15  C   LIG A   1      -7.135  -3.788 129.403  0.00  0.00    +0.035 C 
BRANCH  15  16
ATOM     16  C   LIG A   1      -6.596  -2.909 130.453  0.00  0.00    -0.041 A 
ATOM     17  C   LIG A   1      -5.236  -2.790 130.342  0.00  0.00    +0.049 A 
ATOM     18  C   LIG A   1      -4.899  -1.639 130.625  0.00  0.00    +0.121 A 
ATOM     19  C   LIG A   1      -5.807  -0.590 131.550  0.00  0.00    +0.090 A 
ATOM     20  C   LIG A   1      -7.034  -0.947 131.983  0.00  0.00    +0.121 A 
ATOM     21  C   LIG A   1      -7.446  -2.099 131.358  0.00  0.00    +0.049 A 
BRANCH  18  22
ATOM     22  O   LIG A   1      -3.695  -1.301 129.745  0.00  0.00    -0.507 OA
ATOM     23  H   LIG A   1      -3.252  -0.429 129.777  0.00  0.00    +0.292 HD
ENDBRANCH  18  22
BRANCH  20  24
ATOM     24  O   LIG A   1      -7.656  -0.304 132.969  0.00  0.00    -0.507 OA
ATOM     25  H   LIG A   1      -7.173   0.502 133.243  0.00  0.00    +0.292 HD
ENDBRANCH  20  24
ENDBRANCH  15  16
ENDBRANCH  14  15
ENDBRANCH   1  14
TORSDOF 15
ENDMDL
MODEL 8
REMARK VINA RESULT:      -6.2      8.096     11.185
REMARK  Name = NuBBE_1681
REMARK  16 active torsions:
REMARK  status: ('A' for Active; 'I' for Inactive)
REMARK    1  A    between atoms: C_1  and  C_2
REMARK    2  A    between atoms: C_2  and  C_3
REMARK    3  A    between atoms: C_3  and  C_4
REMARK    4  A    between atoms: C_4  and  C_5
REMARK    5  A    between atoms: C_5  and  C_6
REMARK    6  A    between atoms: C_6  and  C_7
REMARK    7  A    between atoms: C_8  and  C_9
REMARK    8  A    between atoms: C_9  and  C_10
REMARK    9  A    between atoms: C_10  and  C_11
REMARK   10  A    between atoms: C_11  and  C_12
REMARK   11  A    between atoms: C_12  and  C_13
REMARK   12  A    between atoms: C_13  and  C_14
REMARK   13  A    between atoms: C_14  and  C_15
REMARK   14  A    between atoms: C_15  and  C_16
REMARK   15  A    between atoms: C_18  and  O_19
REMARK   16  A    between atoms: C_21  and  O_22
REMARK                            x       y       z     vdW  Elec       q    Type
REMARK                         _______ _______ _______ _____ _____    ______ ____
ROOT
ATOM      1  C   LIG A   1      -7.117   6.065 131.978  0.00  0.00    +0.000 C 
ENDROOT
BRANCH   1   2
ATOM      2  C   LIG A   1      -6.817   5.099 133.124  0.00  0.00    +0.000 C 
BRANCH   2   3
ATOM      3  C   LIG A   1      -7.832   4.926 134.271  0.00  0.00    +0.000 C 
BRANCH   3   4
ATOM      4  C   LIG A   1      -9.006   3.875 134.148  0.00  0.00    +0.004 C 
BRANCH   4   5
ATOM      5  C   LIG A   1      -8.989   2.920 132.974  0.00  0.00    +0.027 C 
BRANCH   5   7
ATOM      6  C   LIG A   1      -9.507   3.104 130.044  0.00  0.00    -0.031 C 
ATOM      7  C   LIG A   1      -9.862   2.814 131.470  0.00  0.00    -0.031 C 
BRANCH   6   8
ATOM      8  C   LIG A   1      -8.015   3.868 129.133  0.00  0.00    +0.027 C 
BRANCH   8   9
ATOM      9  C   LIG A   1      -6.293   3.376 129.210  0.00  0.00    +0.004 C 
BRANCH   9  10
ATOM     10  C   LIG A   1      -5.634   2.807 130.469  0.00  0.00    +0.000 C 
BRANCH  10  11
ATOM     11  C   LIG A   1      -4.390   3.584 130.687  0.00  0.00    -0.000 C 
BRANCH  11  13
ATOM     12  C   LIG A   1      -2.903   4.174 132.648  0.00  0.00    +0.004 C 
ATOM     13  C   LIG A   1      -3.650   3.107 131.918  0.00  0.00    -0.003 C 
ENDBRANCH  11  13
ENDBRANCH  10  11
ENDBRANCH   9  10
ENDBRANCH   8   9
ENDBRANCH   6   8
ENDBRANCH   5   7
ENDBRANCH   4   5
ENDBRANCH   3   4
ENDBRANCH   2   3
ENDBRANCH   1   2
BRANCH   1  14
ATOM     14  C   LIG A   1      -8.612   6.452 131.736  0.00  0.00    +0.005 C 
BRANCH  14  15
ATOM     15  C   LIG A   1      -9.077   7.231 130.445  0.00  0.00    +0.035 C 
BRANCH  15  16
ATOM     16  C   LIG A   1     -10.338   6.793 129.826  0.00  0.00    -0.041 A 
ATOM     17  C   LIG A   1     -11.265   6.467 130.781  0.00  0.00    +0.049 A 
ATOM     18  C   LIG A   1     -12.385   6.819 130.405  0.00  0.00    +0.121 A 
ATOM     19  C   LIG A   1     -12.808   7.080 128.814  0.00  0.00    +0.090 A 
ATOM     20  C   LIG A   1     -11.883   6.986 127.836  0.00  0.00    +0.121 A 
ATOM     21  C   LIG A   1     -10.622   6.909 128.376  0.00  0.00    +0.049 A 
BRANCH  18  22
ATOM     22  O   LIG A   1     -13.159   7.236 131.656  0.00  0.00    -0.507 OA
ATOM     23  H   LIG A   1     -14.126   7.389 131.645  0.00  0.00    +0.292 HD
ENDBRANCH  18  22
BRANCH  20  24
ATOM     24  O   LIG A   1     -12.214   6.864 126.553  0.00  0.00    -0.507 OA
ATOM     25  H   LIG A   1     -12.756   7.618 126.241  0.00  0.00    +0.292 HD
ENDBRANCH  20  24
ENDBRANCH  15  16
ENDBRANCH  14  15
ENDBRANCH   1  14
TORSDOF 15
ENDMDL
MODEL 9
REMARK VINA RESULT:      -6.1      7.757     10.943
REMARK  Name = NuBBE_1681
REMARK  16 active torsions:
REMARK  status: ('A' for Active; 'I' for Inactive)
REMARK    1  A    between atoms: C_1  and  C_2
REMARK    2  A    between atoms: C_2  and  C_3
REMARK    3  A    between atoms: C_3  and  C_4
REMARK    4  A    between atoms: C_4  and  C_5
REMARK    5  A    between atoms: C_5  and  C_6
REMARK    6  A    between atoms: C_6  and  C_7
REMARK    7  A    between atoms: C_8  and  C_9
REMARK    8  A    between atoms: C_9  and  C_10
REMARK    9  A    between atoms: C_10  and  C_11
REMARK   10  A    between atoms: C_11  and  C_12
REMARK   11  A    between atoms: C_12  and  C_13
REMARK   12  A    between atoms: C_13  and  C_14
REMARK   13  A    between atoms: C_14  and  C_15
REMARK   14  A    between atoms: C_15  and  C_16
REMARK   15  A    between atoms: C_18  and  O_19
REMARK   16  A    between atoms: C_21  and  O_22
REMARK                            x       y       z     vdW  Elec       q    Type
REMARK                         _______ _______ _______ _____ _____    ______ ____
ROOT
ATOM      1  C   LIG A   1      -3.785   7.528 130.901  0.00  0.00    +0.000 C 
ENDROOT
BRANCH   1   2
ATOM      2  C   LIG A   1      -5.289   7.597 130.638  0.00  0.00    +0.000 C 
BRANCH   2   3
ATOM      3  C   LIG A   1      -6.242   6.616 131.351  0.00  0.00    +0.000 C 
BRANCH   3   4
ATOM      4  C   LIG A   1      -7.545   6.096 130.624  0.00  0.00    +0.004 C 
BRANCH   4   5
ATOM      5  C   LIG A   1      -8.871   6.715 131.007  0.00  0.00    +0.027 C 
BRANCH   5   7
ATOM      6  C   LIG A   1     -11.640   6.480 132.084  0.00  0.00    -0.031 C 
ATOM      7  C   LIG A   1     -10.157   6.278 132.099  0.00  0.00    -0.031 C 
BRANCH   6   8
ATOM      8  C   LIG A   1     -12.882   7.427 130.988  0.00  0.00    +0.027 C 
BRANCH   8   9
ATOM      9  C   LIG A   1     -12.560   8.771 129.846  0.00  0.00    +0.004 C 
BRANCH   9  10
ATOM     10  C   LIG A   1     -13.274   8.925 128.501  0.00  0.00    +0.000 C 
BRANCH  10  11
ATOM     11  C   LIG A   1     -12.525   8.095 127.525  0.00  0.00    -0.000 C 
BRANCH  11  13
ATOM     12  C   LIG A   1     -10.252   6.987 127.616  0.00  0.00    +0.004 C 
ATOM     13  C   LIG A   1     -11.030   8.258 127.694  0.00  0.00    -0.003 C 
ENDBRANCH  11  13
ENDBRANCH  10  11
ENDBRANCH   9  10
ENDBRANCH   8   9
ENDBRANCH   6   8
ENDBRANCH   5   7
ENDBRANCH   4   5
ENDBRANCH   3   4
ENDBRANCH   2   3
ENDBRANCH   1   2
BRANCH   1  14
ATOM     14  C   LIG A   1      -2.876   6.995 129.746  0.00  0.00    +0.005 C 
BRANCH  14  15
ATOM     15  C   LIG A   1      -3.435   6.729 128.295  0.00  0.00    +0.035 C 
BRANCH  15  16
ATOM     16  C   LIG A   1      -3.483   5.327 127.851  0.00  0.00    -0.041 A 
ATOM     17  C   LIG A   1      -4.739   4.993 127.416  0.00  0.00    +0.049 A 
ATOM     18  C   LIG A   1      -4.651   4.233 126.450  0.00  0.00    +0.121 A 
ATOM     19  C   LIG A   1      -3.317   3.297 126.104  0.00  0.00    +0.090 A 
ATOM     20  C   LIG A   1      -2.201   3.391 126.856  0.00  0.00    +0.121 A 
ATOM     21  C   LIG A   1      -2.280   4.477 127.695  0.00  0.00    +0.049 A 
BRANCH  18  22
ATOM     22  O   LIG A   1      -5.832   4.550 125.531  0.00  0.00    -0.507 OA
ATOM     23  H   LIG A   1      -5.792   4.411 124.563  0.00  0.00    +0.292 HD
ENDBRANCH  18  22
BRANCH  20  24
ATOM     24  O   LIG A   1      -1.246   2.463 126.834  0.00  0.00    -0.507 OA
ATOM     25  H   LIG A   1      -0.783   2.435 125.972  0.00  0.00    +0.292 HD
ENDBRANCH  20  24
ENDBRANCH  15  16
ENDBRANCH  14  15
ENDBRANCH   1  14
TORSDOF 15
ENDMDL
