MODEL 1
REMARK VINA RESULT:      -6.4      0.000      0.000
REMARK  Name = NuBBE_30
REMARK  4 active torsions:
REMARK  status: ('A' for Active; 'I' for Inactive)
REMARK    1  A    between atoms: O_1  and  C_2
REMARK    2  A    between atoms: C_2  and  C_3
REMARK    3  A    between atoms: C_4  and  C_5
REMARK    4  A    between atoms: C_6  and  C_7
REMARK                            x       y       z     vdW  Elec       q    Type
REMARK                         _______ _______ _______ _____ _____    ______ ____
ROOT
ATOM      1  C   LIG A   1      -8.212   1.649 123.695  0.00  0.00    -0.021 A 
ATOM      2  C   LIG A   1      -7.940   0.334 123.284  0.00  0.00    +0.057 A 
ATOM      3  C   LIG A   1      -8.453  -0.706 124.028  0.00  0.00    +0.167 A 
ATOM      4  O   LIG A   1      -8.268  -2.027 123.769  0.00  0.00    -0.453 OA
ATOM      5  C   LIG A   1      -9.017  -2.621 124.849  0.00  0.00    +0.466 C 
ATOM      6  O   LIG A   1      -9.625  -1.650 125.727  0.00  0.00    -0.453 OA
ATOM      7  C   LIG A   1      -9.226  -0.489 125.143  0.00  0.00    +0.166 A 
ATOM      8  C   LIG A   1      -9.531   0.782 125.573  0.00  0.00    +0.050 A 
ATOM      9  C   LIG A   1      -9.021   1.860 124.834  0.00  0.00    +0.012 A 
ENDROOT
BRANCH   1  11
ATOM     10  C   LIG A   1      -6.404   2.980 122.642  0.00  0.00    +0.001 C 
ATOM     11  C   LIG A   1      -7.700   2.813 122.949  0.00  0.00    +0.008 C 
BRANCH  10  13
ATOM     12  C   LIG A   1      -5.788   4.167 120.597  0.00  0.00    +0.091 C 
ATOM     13  C   LIG A   1      -5.894   4.135 121.933  0.00  0.00    +0.007 C 
BRANCH  12  14
ATOM     14  C   LIG A   1      -5.250   5.374 119.942  0.00  0.00    +0.330 C 
ATOM     15  O   LIG A   1      -4.544   6.203 120.485  0.00  0.00    -0.246 OA
BRANCH  14  16
ATOM     16  O   LIG A   1      -5.627   5.452 118.650  0.00  0.00    -0.477 OA
ATOM     17  H   LIG A   1      -6.462   5.928 118.483  0.00  0.00    +0.295 HD
ENDBRANCH  14  16
ENDBRANCH  12  14
ENDBRANCH  10  13
ENDBRANCH   1  11
TORSDOF 4
ENDMDL
MODEL 2
REMARK VINA RESULT:      -6.2      4.100      6.706
REMARK  Name = NuBBE_30
REMARK  4 active torsions:
REMARK  status: ('A' for Active; 'I' for Inactive)
REMARK    1  A    between atoms: O_1  and  C_2
REMARK    2  A    between atoms: C_2  and  C_3
REMARK    3  A    between atoms: C_4  and  C_5
REMARK    4  A    between atoms: C_6  and  C_7
REMARK                            x       y       z     vdW  Elec       q    Type
REMARK                         _______ _______ _______ _____ _____    ______ ____
ROOT
ATOM      1  C   LIG A   1      -6.457   3.552 122.444  0.00  0.00    -0.021 A 
ATOM      2  C   LIG A   1      -7.789   3.439 122.016  0.00  0.00    +0.057 A 
ATOM      3  C   LIG A   1      -8.094   3.786 120.717  0.00  0.00    +0.167 A 
ATOM      4  O   LIG A   1      -9.333   3.746 120.160  0.00  0.00    -0.453 OA
ATOM      5  C   LIG A   1      -9.043   4.204 118.824  0.00  0.00    +0.466 C 
ATOM      6  O   LIG A   1      -7.649   4.511 118.613  0.00  0.00    -0.453 OA
ATOM      7  C   LIG A   1      -7.133   4.222 119.838  0.00  0.00    +0.166 A 
ATOM      8  C   LIG A   1      -5.813   4.332 120.210  0.00  0.00    +0.050 A 
ATOM      9  C   LIG A   1      -5.474   3.986 121.525  0.00  0.00    +0.012 A 
ENDROOT
BRANCH   1  11
ATOM     10  C   LIG A   1      -5.241   3.960 124.566  0.00  0.00    +0.001 C 
ATOM     11  C   LIG A   1      -6.054   3.198 123.816  0.00  0.00    +0.008 C 
BRANCH  10  13
ATOM     12  C   LIG A   1      -3.559   3.768 126.327  0.00  0.00    +0.091 C 
ATOM     13  C   LIG A   1      -4.820   3.602 125.904  0.00  0.00    +0.007 C 
BRANCH  12  14
ATOM     14  C   LIG A   1      -3.198   3.373 127.702  0.00  0.00    +0.330 C 
ATOM     15  O   LIG A   1      -2.717   4.117 128.535  0.00  0.00    -0.246 OA
BRANCH  14  16
ATOM     16  O   LIG A   1      -3.477   2.075 127.938  0.00  0.00    -0.477 OA
ATOM     17  H   LIG A   1      -3.082   1.701 128.747  0.00  0.00    +0.295 HD
ENDBRANCH  14  16
ENDBRANCH  12  14
ENDBRANCH  10  13
ENDBRANCH   1  11
TORSDOF 4
ENDMDL
MODEL 3
REMARK VINA RESULT:      -6.0      9.748     10.221
REMARK  Name = NuBBE_30
REMARK  4 active torsions:
REMARK  status: ('A' for Active; 'I' for Inactive)
REMARK    1  A    between atoms: O_1  and  C_2
REMARK    2  A    between atoms: C_2  and  C_3
REMARK    3  A    between atoms: C_4  and  C_5
REMARK    4  A    between atoms: C_6  and  C_7
REMARK                            x       y       z     vdW  Elec       q    Type
REMARK                         _______ _______ _______ _____ _____    ______ ____
ROOT
ATOM      1  C   LIG A   1      -8.212   6.714 131.181  0.00  0.00    -0.021 A 
ATOM      2  C   LIG A   1      -9.157   7.257 130.297  0.00  0.00    +0.057 A 
ATOM      3  C   LIG A   1     -10.495   7.081 130.576  0.00  0.00    +0.167 A 
ATOM      4  O   LIG A   1     -11.526   7.532 129.813  0.00  0.00    -0.453 OA
ATOM      5  C   LIG A   1     -12.654   7.066 130.582  0.00  0.00    +0.466 C 
ATOM      6  O   LIG A   1     -12.277   6.348 131.775  0.00  0.00    -0.453 OA
ATOM      7  C   LIG A   1     -10.921   6.406 131.694  0.00  0.00    +0.166 A 
ATOM      8  C   LIG A   1     -10.030   5.871 132.596  0.00  0.00    +0.050 A 
ATOM      9  C   LIG A   1      -8.662   6.035 132.336  0.00  0.00    +0.012 A 
ENDROOT
BRANCH   1  11
ATOM     10  C   LIG A   1      -5.834   6.509 131.852  0.00  0.00    +0.001 C 
ATOM     11  C   LIG A   1      -6.764   6.862 130.951  0.00  0.00    +0.008 C 
BRANCH  10  13
ATOM     12  C   LIG A   1      -3.809   6.319 130.499  0.00  0.00    +0.091 C 
ATOM     13  C   LIG A   1      -4.412   6.679 131.641  0.00  0.00    +0.007 C 
BRANCH  12  14
ATOM     14  C   LIG A   1      -2.354   6.513 130.356  0.00  0.00    +0.330 C 
ATOM     15  O   LIG A   1      -1.585   6.705 131.278  0.00  0.00    -0.246 OA
BRANCH  14  16
ATOM     16  O   LIG A   1      -1.965   6.441 129.067  0.00  0.00    -0.477 OA
ATOM     17  H   LIG A   1      -2.585   6.823 128.418  0.00  0.00    +0.295 HD
ENDBRANCH  14  16
ENDBRANCH  12  14
ENDBRANCH  10  13
ENDBRANCH   1  11
TORSDOF 4
ENDMDL
MODEL 4
REMARK VINA RESULT:      -6.0      9.954     10.550
REMARK  Name = NuBBE_30
REMARK  4 active torsions:
REMARK  status: ('A' for Active; 'I' for Inactive)
REMARK    1  A    between atoms: O_1  and  C_2
REMARK    2  A    between atoms: C_2  and  C_3
REMARK    3  A    between atoms: C_4  and  C_5
REMARK    4  A    between atoms: C_6  and  C_7
REMARK                            x       y       z     vdW  Elec       q    Type
REMARK                         _______ _______ _______ _____ _____    ______ ____
ROOT
ATOM      1  C   LIG A   1      -9.485   6.798 130.963  0.00  0.00    -0.021 A 
ATOM      2  C   LIG A   1      -9.673   7.549 129.792  0.00  0.00    +0.057 A 
ATOM      3  C   LIG A   1     -10.962   7.838 129.398  0.00  0.00    +0.167 A 
ATOM      4  O   LIG A   1     -11.307   8.539 128.286  0.00  0.00    -0.453 OA
ATOM      5  C   LIG A   1     -12.745   8.525 128.393  0.00  0.00    +0.466 C 
ATOM      6  O   LIG A   1     -13.226   7.816 129.555  0.00  0.00    -0.453 OA
ATOM      7  C   LIG A   1     -12.053   7.426 130.122  0.00  0.00    +0.166 A 
ATOM      8  C   LIG A   1     -11.915   6.701 131.284  0.00  0.00    +0.050 A 
ATOM      9  C   LIG A   1     -10.615   6.392 131.709  0.00  0.00    +0.012 A 
ENDROOT
BRANCH   1  11
ATOM     10  C   LIG A   1      -7.019   7.047 131.010  0.00  0.00    +0.001 C 
ATOM     11  C   LIG A   1      -8.138   6.450 131.450  0.00  0.00    +0.008 C 
BRANCH  10  13
ATOM     12  C   LIG A   1      -4.585   7.255 130.962  0.00  0.00    +0.091 C 
ATOM     13  C   LIG A   1      -5.691   6.689 131.465  0.00  0.00    +0.007 C 
BRANCH  12  14
ATOM     14  C   LIG A   1      -3.264   6.836 131.467  0.00  0.00    +0.330 C 
ATOM     15  O   LIG A   1      -2.602   5.924 131.010  0.00  0.00    -0.246 OA
BRANCH  14  16
ATOM     16  O   LIG A   1      -2.860   7.599 132.503  0.00  0.00    -0.477 OA
ATOM     17  H   LIG A   1      -2.254   8.329 132.277  0.00  0.00    +0.295 HD
ENDBRANCH  14  16
ENDBRANCH  12  14
ENDBRANCH  10  13
ENDBRANCH   1  11
TORSDOF 4
ENDMDL
MODEL 5
REMARK VINA RESULT:      -6.0      6.094      8.643
REMARK  Name = NuBBE_30
REMARK  4 active torsions:
REMARK  status: ('A' for Active; 'I' for Inactive)
REMARK    1  A    between atoms: O_1  and  C_2
REMARK    2  A    between atoms: C_2  and  C_3
REMARK    3  A    between atoms: C_4  and  C_5
REMARK    4  A    between atoms: C_6  and  C_7
REMARK                            x       y       z     vdW  Elec       q    Type
REMARK                         _______ _______ _______ _____ _____    ______ ____
ROOT
ATOM      1  C   LIG A   1      -7.422  -2.929 129.454  0.00  0.00    -0.021 A 
ATOM      2  C   LIG A   1      -6.578  -4.008 129.759  0.00  0.00    +0.057 A 
ATOM      3  C   LIG A   1      -6.156  -4.164 131.062  0.00  0.00    +0.167 A 
ATOM      4  O   LIG A   1      -5.329  -5.145 131.511  0.00  0.00    -0.453 OA
ATOM      5  C   LIG A   1      -5.247  -4.809 132.910  0.00  0.00    +0.466 C 
ATOM      6  O   LIG A   1      -6.016  -3.640 133.265  0.00  0.00    -0.453 OA
ATOM      7  C   LIG A   1      -6.547  -3.306 132.060  0.00  0.00    +0.166 A 
ATOM      8  C   LIG A   1      -7.387  -2.244 131.809  0.00  0.00    +0.050 A 
ATOM      9  C   LIG A   1      -7.831  -2.061 130.492  0.00  0.00    +0.012 A 
ENDROOT
BRANCH   1  11
ATOM     10  C   LIG A   1      -8.740  -3.544 127.446  0.00  0.00    +0.001 C 
ATOM     11  C   LIG A   1      -7.916  -2.698 128.085  0.00  0.00    +0.008 C 
BRANCH  10  13
ATOM     12  C   LIG A   1      -8.365  -3.232 125.052  0.00  0.00    +0.091 C 
ATOM     13  C   LIG A   1      -9.206  -3.334 126.091  0.00  0.00    +0.007 C 
BRANCH  12  14
ATOM     14  C   LIG A   1      -8.909  -3.010 123.699  0.00  0.00    +0.330 C 
ATOM     15  O   LIG A   1      -8.304  -2.483 122.785  0.00  0.00    -0.246 OA
BRANCH  14  16
ATOM     16  O   LIG A   1     -10.170  -3.474 123.585  0.00  0.00    -0.477 OA
ATOM     17  H   LIG A   1     -10.303  -4.400 123.858  0.00  0.00    +0.295 HD
ENDBRANCH  14  16
ENDBRANCH  12  14
ENDBRANCH  10  13
ENDBRANCH   1  11
TORSDOF 4
ENDMDL
MODEL 6
REMARK VINA RESULT:      -5.8      1.372      7.469
REMARK  Name = NuBBE_30
REMARK  4 active torsions:
REMARK  status: ('A' for Active; 'I' for Inactive)
REMARK    1  A    between atoms: O_1  and  C_2
REMARK    2  A    between atoms: C_2  and  C_3
REMARK    3  A    between atoms: C_4  and  C_5
REMARK    4  A    between atoms: C_6  and  C_7
REMARK                            x       y       z     vdW  Elec       q    Type
REMARK                         _______ _______ _______ _____ _____    ______ ____
ROOT
ATOM      1  C   LIG A   1      -7.754   2.719 122.265  0.00  0.00    -0.021 A 
ATOM      2  C   LIG A   1      -6.462   3.189 121.982  0.00  0.00    +0.057 A 
ATOM      3  C   LIG A   1      -6.279   3.977 120.866  0.00  0.00    +0.167 A 
ATOM      4  O   LIG A   1      -5.093   4.495 120.452  0.00  0.00    -0.453 OA
ATOM      5  C   LIG A   1      -5.508   5.209 119.270  0.00  0.00    +0.466 C 
ATOM      6  O   LIG A   1      -6.922   5.100 119.001  0.00  0.00    -0.453 OA
ATOM      7  C   LIG A   1      -7.322   4.321 120.041  0.00  0.00    +0.166 A 
ATOM      8  C   LIG A   1      -8.608   3.896 120.290  0.00  0.00    +0.050 A 
ATOM      9  C   LIG A   1      -8.822   3.092 121.418  0.00  0.00    +0.012 A 
ENDROOT
BRANCH   1  11
ATOM     10  C   LIG A   1      -8.844   0.808 123.409  0.00  0.00    +0.001 C 
ATOM     11  C   LIG A   1      -8.028   1.874 123.441  0.00  0.00    +0.008 C 
BRANCH  10  13
ATOM     12  C   LIG A   1      -8.714  -1.275 124.678  0.00  0.00    +0.091 C 
ATOM     13  C   LIG A   1      -9.138  -0.008 124.568  0.00  0.00    +0.007 C 
BRANCH  12  14
ATOM     14  C   LIG A   1      -9.058  -2.052 125.884  0.00  0.00    +0.330 C 
ATOM     15  O   LIG A   1      -8.463  -1.991 126.943  0.00  0.00    -0.246 OA
BRANCH  14  16
ATOM     16  O   LIG A   1     -10.132  -2.842 125.680  0.00  0.00    -0.477 OA
ATOM     17  H   LIG A   1      -9.934  -3.772 125.462  0.00  0.00    +0.295 HD
ENDBRANCH  14  16
ENDBRANCH  12  14
ENDBRANCH  10  13
ENDBRANCH   1  11
TORSDOF 4
ENDMDL
MODEL 7
REMARK VINA RESULT:      -5.8      9.162     10.638
REMARK  Name = NuBBE_30
REMARK  4 active torsions:
REMARK  status: ('A' for Active; 'I' for Inactive)
REMARK    1  A    between atoms: O_1  and  C_2
REMARK    2  A    between atoms: C_2  and  C_3
REMARK    3  A    between atoms: C_4  and  C_5
REMARK    4  A    between atoms: C_6  and  C_7
REMARK                            x       y       z     vdW  Elec       q    Type
REMARK                         _______ _______ _______ _____ _____    ______ ____
ROOT
ATOM      1  C   LIG A   1     -10.240   6.687 130.720  0.00  0.00    -0.021 A 
ATOM      2  C   LIG A   1     -10.294   6.731 129.318  0.00  0.00    +0.057 A 
ATOM      3  C   LIG A   1     -11.523   6.878 128.712  0.00  0.00    +0.167 A 
ATOM      4  O   LIG A   1     -11.741   6.924 127.371  0.00  0.00    -0.453 OA
ATOM      5  C   LIG A   1     -13.174   7.085 127.336  0.00  0.00    +0.466 C 
ATOM      6  O   LIG A   1     -13.778   7.127 128.646  0.00  0.00    -0.453 OA
ATOM      7  C   LIG A   1     -12.682   6.994 129.440  0.00  0.00    +0.166 A 
ATOM      8  C   LIG A   1     -12.674   6.972 130.816  0.00  0.00    +0.050 A 
ATOM      9  C   LIG A   1     -11.437   6.823 131.459  0.00  0.00    +0.012 A 
ENDROOT
BRANCH   1  11
ATOM     10  C   LIG A   1      -7.772   6.840 130.900  0.00  0.00    +0.001 C 
ATOM     11  C   LIG A   1      -8.963   6.535 131.439  0.00  0.00    +0.008 C 
BRANCH  10  13
ATOM     12  C   LIG A   1      -6.400   5.905 132.692  0.00  0.00    +0.091 C 
ATOM     13  C   LIG A   1      -6.513   6.666 131.594  0.00  0.00    +0.007 C 
BRANCH  12  14
ATOM     14  C   LIG A   1      -5.087   5.779 133.353  0.00  0.00    +0.330 C 
ATOM     15  O   LIG A   1      -4.836   5.005 134.257  0.00  0.00    -0.246 OA
BRANCH  14  16
ATOM     16  O   LIG A   1      -4.179   6.625 132.826  0.00  0.00    -0.477 OA
ATOM     17  H   LIG A   1      -4.470   7.115 132.034  0.00  0.00    +0.295 HD
ENDBRANCH  14  16
ENDBRANCH  12  14
ENDBRANCH  10  13
ENDBRANCH   1  11
TORSDOF 4
ENDMDL
MODEL 8
REMARK VINA RESULT:      -5.7      6.243      9.370
REMARK  Name = NuBBE_30
REMARK  4 active torsions:
REMARK  status: ('A' for Active; 'I' for Inactive)
REMARK    1  A    between atoms: O_1  and  C_2
REMARK    2  A    between atoms: C_2  and  C_3
REMARK    3  A    between atoms: C_4  and  C_5
REMARK    4  A    between atoms: C_6  and  C_7
REMARK                            x       y       z     vdW  Elec       q    Type
REMARK                         _______ _______ _______ _____ _____    ______ ____
ROOT
ATOM      1  C   LIG A   1      -6.972  -3.532 130.165  0.00  0.00    -0.021 A 
ATOM      2  C   LIG A   1      -7.539  -2.797 131.219  0.00  0.00    +0.057 A 
ATOM      3  C   LIG A   1      -7.086  -3.031 132.500  0.00  0.00    +0.167 A 
ATOM      4  O   LIG A   1      -7.543  -2.415 133.622  0.00  0.00    -0.453 OA
ATOM      5  C   LIG A   1      -6.723  -3.045 134.628  0.00  0.00    +0.466 C 
ATOM      6  O   LIG A   1      -5.805  -4.020 134.091  0.00  0.00    -0.453 OA
ATOM      7  C   LIG A   1      -6.097  -3.946 132.765  0.00  0.00    +0.166 A 
ATOM      8  C   LIG A   1      -5.503  -4.677 131.761  0.00  0.00    +0.050 A 
ATOM      9  C   LIG A   1      -5.943  -4.459 130.448  0.00  0.00    +0.012 A 
ENDROOT
BRANCH   1  11
ATOM     10  C   LIG A   1      -8.609  -3.702 128.311  0.00  0.00    +0.001 C 
ATOM     11  C   LIG A   1      -7.402  -3.336 128.769  0.00  0.00    +0.008 C 
BRANCH  10  13
ATOM     12  C   LIG A   1      -8.850  -2.386 126.266  0.00  0.00    +0.091 C 
ATOM     13  C   LIG A   1      -9.024  -3.536 126.933  0.00  0.00    +0.007 C 
BRANCH  12  14
ATOM     14  C   LIG A   1      -9.306  -2.285 124.867  0.00  0.00    +0.330 C 
ATOM     15  O   LIG A   1      -9.658  -3.227 124.181  0.00  0.00    -0.246 OA
BRANCH  14  16
ATOM     16  O   LIG A   1      -9.299  -1.010 124.430  0.00  0.00    -0.477 OA
ATOM     17  H   LIG A   1      -9.195  -0.329 125.120  0.00  0.00    +0.295 HD
ENDBRANCH  14  16
ENDBRANCH  12  14
ENDBRANCH  10  13
ENDBRANCH   1  11
TORSDOF 4
ENDMDL
MODEL 9
REMARK VINA RESULT:      -5.7      4.448      9.025
REMARK  Name = NuBBE_30
REMARK  4 active torsions:
REMARK  status: ('A' for Active; 'I' for Inactive)
REMARK    1  A    between atoms: O_1  and  C_2
REMARK    2  A    between atoms: C_2  and  C_3
REMARK    3  A    between atoms: C_4  and  C_5
REMARK    4  A    between atoms: C_6  and  C_7
REMARK                            x       y       z     vdW  Elec       q    Type
REMARK                         _______ _______ _______ _____ _____    ______ ____
ROOT
ATOM      1  C   LIG A   1      -8.546  -2.862 126.332  0.00  0.00    -0.021 A 
ATOM      2  C   LIG A   1      -8.721  -1.481 126.148  0.00  0.00    +0.057 A 
ATOM      3  C   LIG A   1      -8.957  -1.013 124.873  0.00  0.00    +0.167 A 
ATOM      4  O   LIG A   1      -9.133   0.290 124.532  0.00  0.00    -0.453 OA
ATOM      5  C   LIG A   1      -9.336   0.172 123.109  0.00  0.00    +0.466 C 
ATOM      6  O   LIG A   1      -9.274  -1.189 122.632  0.00  0.00    -0.453 OA
ATOM      7  C   LIG A   1      -9.037  -1.857 123.792  0.00  0.00    +0.166 A 
ATOM      8  C   LIG A   1      -8.888  -3.219 123.929  0.00  0.00    +0.050 A 
ATOM      9  C   LIG A   1      -8.647  -3.723 125.215  0.00  0.00    +0.012 A 
ENDROOT
BRANCH   1  11
ATOM     10  C   LIG A   1      -7.767  -2.738 128.682  0.00  0.00    +0.001 C 
ATOM     11  C   LIG A   1      -8.293  -3.438 127.664  0.00  0.00    +0.008 C 
BRANCH  10  13
ATOM     12  C   LIG A   1      -6.245  -3.588 130.394  0.00  0.00    +0.091 C 
ATOM     13  C   LIG A   1      -7.490  -3.307 129.984  0.00  0.00    +0.007 C 
BRANCH  12  14
ATOM     14  C   LIG A   1      -6.038  -4.175 131.731  0.00  0.00    +0.330 C 
ATOM     15  O   LIG A   1      -6.424  -3.683 132.774  0.00  0.00    -0.246 OA
BRANCH  14  16
ATOM     16  O   LIG A   1      -5.370  -5.345 131.664  0.00  0.00    -0.477 OA
ATOM     17  H   LIG A   1      -5.279  -5.728 130.772  0.00  0.00    +0.295 HD
ENDBRANCH  14  16
ENDBRANCH  12  14
ENDBRANCH  10  13
ENDBRANCH   1  11
TORSDOF 4
ENDMDL
