MODEL 1
REMARK VINA RESULT:      -8.4      0.000      0.000
REMARK  Name = NuBBE_579
REMARK  6 active torsions:
REMARK  status: ('A' for Active; 'I' for Inactive)
REMARK    1  A    between atoms: O_1  and  C_2
REMARK    2  A    between atoms: C_5  and  C_7
REMARK    3  A    between atoms: C_7  and  C_8
REMARK    4  A    between atoms: C_17  and  C_22
REMARK    5  A    between atoms: C_19  and  O_21
REMARK    6  A    between atoms: C_23  and  C_24
REMARK                            x       y       z     vdW  Elec       q    Type
REMARK                         _______ _______ _______ _____ _____    ______ ____
ROOT
ATOM      1  C   LIG A   1      -7.755   2.468 126.621  0.00  0.00    +0.148 C 
ATOM      2  C   LIG A   1      -6.799   1.298 126.488  0.00  0.00    +0.065 C 
ATOM      3  C   LIG A   1      -7.227   0.368 125.356  0.00  0.00    +0.125 C 
ATOM      4  O   LIG A   1      -7.283   1.099 124.132  0.00  0.00    -0.366 OA
ATOM      5  C   LIG A   1      -8.161   2.230 124.125  0.00  0.00    +0.172 C 
ATOM      6  C   LIG A   1      -7.912   3.213 125.292  0.00  0.00    +0.175 C 
ENDROOT
BRANCH   1   7
ATOM      7  O   LIG A   1      -7.262   3.365 127.622  0.00  0.00    -0.389 OA
ATOM      8  H   LIG A   1      -8.048   3.846 127.947  0.00  0.00    +0.210 HD
ENDBRANCH   1   7
BRANCH   6   9
ATOM      9  O   LIG A   1      -9.004   4.136 125.462  0.00  0.00    -0.386 OA
ATOM     10  H   LIG A   1      -9.087   4.650 124.639  0.00  0.00    +0.210 HD
ENDBRANCH   6   9
BRANCH   5  11
ATOM     11  C   LIG A   1      -7.996   2.939 122.796  0.00  0.00    +0.007 C 
ATOM     12  C   LIG A   1      -6.830   3.353 122.265  0.00  0.00    +0.006 C 
BRANCH  12  13
ATOM     13  C   LIG A   1      -6.658   4.008 120.954  0.00  0.00    -0.025 A 
ATOM     14  C   LIG A   1      -5.449   4.669 120.683  0.00  0.00    +0.008 A 
ATOM     15  C   LIG A   1      -5.235   5.302 119.454  0.00  0.00    +0.001 A 
ATOM     16  C   LIG A   1      -6.227   5.285 118.477  0.00  0.00    +0.000 A 
ATOM     17  C   LIG A   1      -7.426   4.625 118.725  0.00  0.00    +0.001 A 
ATOM     18  C   LIG A   1      -7.637   3.988 119.952  0.00  0.00    +0.008 A 
ENDBRANCH  12  13
ENDBRANCH   5  11
BRANCH   3  19
ATOM     19  C   LIG A   1      -8.524  -0.410 125.640  0.00  0.00    +0.076 C 
BRANCH  19  20
ATOM     20  C   LIG A   1      -8.308  -1.848 126.158  0.00  0.00    +0.183 C 
ATOM     21  O   LIG A   1      -7.042  -2.339 125.633  0.00  0.00    -0.458 OA
ATOM     22  C   LIG A   1      -6.964  -2.897 124.399  0.00  0.00    +0.332 C 
ATOM     23  C   LIG A   1      -8.236  -3.258 123.747  0.00  0.00    +0.087 C 
ATOM     24  C   LIG A   1      -9.390  -3.262 124.426  0.00  0.00    -0.016 C 
ATOM     25  C   LIG A   1      -9.429  -2.845 125.859  0.00  0.00    +0.072 C 
ATOM     26  O   LIG A   1      -5.894  -3.124 123.843  0.00  0.00    -0.246 OA
ENDBRANCH  19  20
ENDBRANCH   3  19
TORSDOF 6
ENDMDL
MODEL 2
REMARK VINA RESULT:      -8.0      8.845     10.901
REMARK  Name = NuBBE_579
REMARK  6 active torsions:
REMARK  status: ('A' for Active; 'I' for Inactive)
REMARK    1  A    between atoms: O_1  and  C_2
REMARK    2  A    between atoms: C_5  and  C_7
REMARK    3  A    between atoms: C_7  and  C_8
REMARK    4  A    between atoms: C_17  and  C_22
REMARK    5  A    between atoms: C_19  and  O_21
REMARK    6  A    between atoms: C_23  and  C_24
REMARK                            x       y       z     vdW  Elec       q    Type
REMARK                         _______ _______ _______ _____ _____    ______ ____
ROOT
ATOM      1  C   LIG A   1      -9.580   5.026 132.810  0.00  0.00    +0.148 C 
ATOM      2  C   LIG A   1      -9.876   4.546 131.402  0.00  0.00    +0.065 C 
ATOM      3  C   LIG A   1      -9.455   5.588 130.369  0.00  0.00    +0.125 C 
ATOM      4  O   LIG A   1      -8.063   5.867 130.511  0.00  0.00    -0.366 OA
ATOM      5  C   LIG A   1      -7.653   6.337 131.800  0.00  0.00    +0.172 C 
ATOM      6  C   LIG A   1      -8.110   5.428 132.964  0.00  0.00    +0.175 C 
ENDROOT
BRANCH   1   7
ATOM      7  O   LIG A   1      -9.895   3.982 133.737  0.00  0.00    -0.389 OA
ATOM      8  H   LIG A   1     -10.772   4.215 134.100  0.00  0.00    +0.210 HD
ENDBRANCH   1   7
BRANCH   6   9
ATOM      9  O   LIG A   1      -7.993   6.086 134.240  0.00  0.00    -0.386 OA
ATOM     10  H   LIG A   1      -7.056   6.052 134.504  0.00  0.00    +0.210 HD
ENDBRANCH   6   9
BRANCH   5  11
ATOM     11  C   LIG A   1      -6.143   6.462 131.791  0.00  0.00    +0.007 C 
ATOM     12  C   LIG A   1      -5.283   5.633 132.412  0.00  0.00    +0.006 C 
BRANCH  12  13
ATOM     13  C   LIG A   1      -3.810   5.725 132.376  0.00  0.00    -0.025 A 
ATOM     14  C   LIG A   1      -3.216   6.987 132.214  0.00  0.00    +0.008 A 
ATOM     15  C   LIG A   1      -1.825   7.128 132.177  0.00  0.00    +0.001 A 
ATOM     16  C   LIG A   1      -1.006   6.009 132.301  0.00  0.00    +0.000 A 
ATOM     17  C   LIG A   1      -1.577   4.752 132.473  0.00  0.00    +0.001 A 
ATOM     18  C   LIG A   1      -2.968   4.613 132.514  0.00  0.00    +0.008 A 
ENDBRANCH  12  13
ENDBRANCH   5  11
BRANCH   3  19
ATOM     19  C   LIG A   1     -10.317   6.862 130.377  0.00  0.00    +0.076 C 
BRANCH  19  20
ATOM     20  C   LIG A   1     -11.833   6.611 130.226  0.00  0.00    +0.183 C 
ATOM     21  O   LIG A   1     -12.094   6.186 128.858  0.00  0.00    -0.458 OA
ATOM     22  C   LIG A   1     -12.265   7.093 127.864  0.00  0.00    +0.332 C 
ATOM     23  C   LIG A   1     -12.476   8.496 128.266  0.00  0.00    +0.087 C 
ATOM     24  C   LIG A   1     -12.728   8.825 129.540  0.00  0.00    -0.016 C 
ATOM     25  C   LIG A   1     -12.748   7.778 130.604  0.00  0.00    +0.072 C 
ATOM     26  O   LIG A   1     -12.273   6.779 126.678  0.00  0.00    -0.246 OA
ENDBRANCH  19  20
ENDBRANCH   3  19
TORSDOF 6
ENDMDL
MODEL 3
REMARK VINA RESULT:      -7.7      6.591      9.776
REMARK  Name = NuBBE_579
REMARK  6 active torsions:
REMARK  status: ('A' for Active; 'I' for Inactive)
REMARK    1  A    between atoms: O_1  and  C_2
REMARK    2  A    between atoms: C_5  and  C_7
REMARK    3  A    between atoms: C_7  and  C_8
REMARK    4  A    between atoms: C_17  and  C_22
REMARK    5  A    between atoms: C_19  and  O_21
REMARK    6  A    between atoms: C_23  and  C_24
REMARK                            x       y       z     vdW  Elec       q    Type
REMARK                         _______ _______ _______ _____ _____    ______ ____
ROOT
ATOM      1  C   LIG A   1      -7.453   6.187 131.061  0.00  0.00    +0.148 C 
ATOM      2  C   LIG A   1      -8.559   6.115 132.097  0.00  0.00    +0.065 C 
ATOM      3  C   LIG A   1      -9.874   5.669 131.463  0.00  0.00    +0.125 C 
ATOM      4  O   LIG A   1      -9.698   4.396 130.843  0.00  0.00    -0.366 OA
ATOM      5  C   LIG A   1      -8.682   4.332 129.836  0.00  0.00    +0.172 C 
ATOM      6  C   LIG A   1      -7.308   4.861 130.309  0.00  0.00    +0.175 C 
ENDROOT
BRANCH   1   7
ATOM      7  O   LIG A   1      -6.220   6.509 131.713  0.00  0.00    -0.389 OA
ATOM      8  H   LIG A   1      -5.550   6.531 131.002  0.00  0.00    +0.210 HD
ENDBRANCH   1   7
BRANCH   6   9
ATOM      9  O   LIG A   1      -6.416   5.106 129.205  0.00  0.00    -0.386 OA
ATOM     10  H   LIG A   1      -5.770   5.776 129.491  0.00  0.00    +0.210 HD
ENDBRANCH   6   9
BRANCH   5  11
ATOM     11  C   LIG A   1      -8.565   2.890 129.384  0.00  0.00    +0.007 C 
ATOM     12  C   LIG A   1      -7.998   1.891 130.086  0.00  0.00    +0.006 C 
BRANCH  12  13
ATOM     13  C   LIG A   1      -7.915   0.477 129.670  0.00  0.00    -0.025 A 
ATOM     14  C   LIG A   1      -7.716   0.183 128.312  0.00  0.00    +0.008 A 
ATOM     15  C   LIG A   1      -7.626  -1.140 127.867  0.00  0.00    +0.001 A 
ATOM     16  C   LIG A   1      -7.735  -2.190 128.775  0.00  0.00    +0.000 A 
ATOM     17  C   LIG A   1      -7.920  -1.917 130.126  0.00  0.00    +0.001 A 
ATOM     18  C   LIG A   1      -8.005  -0.594 130.569  0.00  0.00    +0.008 A 
ENDBRANCH  12  13
ENDBRANCH   5  11
BRANCH   3  19
ATOM     19  C   LIG A   1     -10.497   6.708 130.514  0.00  0.00    +0.076 C 
BRANCH  19  20
ATOM     20  C   LIG A   1     -12.021   6.562 130.315  0.00  0.00    +0.183 C 
ATOM     21  O   LIG A   1     -12.265   6.126 128.948  0.00  0.00    -0.458 OA
ATOM     22  C   LIG A   1     -12.336   7.020 127.929  0.00  0.00    +0.332 C 
ATOM     23  C   LIG A   1     -12.459   8.443 128.295  0.00  0.00    +0.087 C 
ATOM     24  C   LIG A   1     -12.730   8.817 129.553  0.00  0.00    -0.016 C 
ATOM     25  C   LIG A   1     -12.861   7.799 130.636  0.00  0.00    +0.072 C 
ATOM     26  O   LIG A   1     -12.327   6.680 126.751  0.00  0.00    -0.246 OA
ENDBRANCH  19  20
ENDBRANCH   3  19
TORSDOF 6
ENDMDL
MODEL 4
REMARK VINA RESULT:      -7.6      3.396      7.691
REMARK  Name = NuBBE_579
REMARK  6 active torsions:
REMARK  status: ('A' for Active; 'I' for Inactive)
REMARK    1  A    between atoms: O_1  and  C_2
REMARK    2  A    between atoms: C_5  and  C_7
REMARK    3  A    between atoms: C_7  and  C_8
REMARK    4  A    between atoms: C_17  and  C_22
REMARK    5  A    between atoms: C_19  and  O_21
REMARK    6  A    between atoms: C_23  and  C_24
REMARK                            x       y       z     vdW  Elec       q    Type
REMARK                         _______ _______ _______ _____ _____    ______ ____
ROOT
ATOM      1  C   LIG A   1      -5.945   4.433 124.381  0.00  0.00    +0.148 C 
ATOM      2  C   LIG A   1      -4.703   3.994 125.133  0.00  0.00    +0.065 C 
ATOM      3  C   LIG A   1      -5.067   3.414 126.498  0.00  0.00    +0.125 C 
ATOM      4  O   LIG A   1      -5.953   2.309 126.326  0.00  0.00    -0.366 OA
ATOM      5  C   LIG A   1      -7.173   2.595 125.633  0.00  0.00    +0.172 C 
ATOM      6  C   LIG A   1      -6.960   3.292 124.269  0.00  0.00    +0.175 C 
ENDROOT
BRANCH   1   7
ATOM      7  O   LIG A   1      -5.569   4.876 123.073  0.00  0.00    -0.389 OA
ATOM      8  H   LIG A   1      -4.671   4.520 122.929  0.00  0.00    +0.210 HD
ENDBRANCH   1   7
BRANCH   6   9
ATOM      9  O   LIG A   1      -8.178   3.870 123.763  0.00  0.00    -0.386 OA
ATOM     10  H   LIG A   1      -7.940   4.474 123.038  0.00  0.00    +0.210 HD
ENDBRANCH   6   9
BRANCH   5  11
ATOM     11  C   LIG A   1      -7.919   1.289 125.446  0.00  0.00    +0.007 C 
ATOM     12  C   LIG A   1      -7.450   0.201 124.808  0.00  0.00    +0.006 C 
BRANCH  12  13
ATOM     13  C   LIG A   1      -8.156  -1.087 124.656  0.00  0.00    -0.025 A 
ATOM     14  C   LIG A   1      -8.278  -1.643 123.373  0.00  0.00    +0.008 A 
ATOM     15  C   LIG A   1      -8.934  -2.864 123.177  0.00  0.00    +0.001 A 
ATOM     16  C   LIG A   1      -9.478  -3.545 124.262  0.00  0.00    +0.000 A 
ATOM     17  C   LIG A   1      -9.357  -3.014 125.542  0.00  0.00    +0.001 A 
ATOM     18  C   LIG A   1      -8.697  -1.797 125.737  0.00  0.00    +0.008 A 
ENDBRANCH  12  13
ENDBRANCH   5  11
BRANCH   3  19
ATOM     19  C   LIG A   1      -5.602   4.453 127.498  0.00  0.00    +0.076 C 
BRANCH  19  20
ATOM     20  C   LIG A   1      -4.810   4.536 128.821  0.00  0.00    +0.183 C 
ATOM     21  O   LIG A   1      -4.814   5.921 129.271  0.00  0.00    -0.458 OA
ATOM     22  C   LIG A   1      -3.903   6.812 128.805  0.00  0.00    +0.332 C 
ATOM     23  C   LIG A   1      -2.745   6.265 128.075  0.00  0.00    +0.087 C 
ATOM     24  C   LIG A   1      -2.476   4.952 128.079  0.00  0.00    -0.016 C 
ATOM     25  C   LIG A   1      -3.380   3.995 128.781  0.00  0.00    +0.072 C 
ATOM     26  O   LIG A   1      -4.005   8.020 128.994  0.00  0.00    -0.246 OA
ENDBRANCH  19  20
ENDBRANCH   3  19
TORSDOF 6
ENDMDL
MODEL 5
REMARK VINA RESULT:      -7.6      3.022      8.161
REMARK  Name = NuBBE_579
REMARK  6 active torsions:
REMARK  status: ('A' for Active; 'I' for Inactive)
REMARK    1  A    between atoms: O_1  and  C_2
REMARK    2  A    between atoms: C_5  and  C_7
REMARK    3  A    between atoms: C_7  and  C_8
REMARK    4  A    between atoms: C_17  and  C_22
REMARK    5  A    between atoms: C_19  and  O_21
REMARK    6  A    between atoms: C_23  and  C_24
REMARK                            x       y       z     vdW  Elec       q    Type
REMARK                         _______ _______ _______ _____ _____    ______ ____
ROOT
ATOM      1  C   LIG A   1      -7.626   3.584 123.814  0.00  0.00    +0.148 C 
ATOM      2  C   LIG A   1      -6.118   3.435 123.737  0.00  0.00    +0.065 C 
ATOM      3  C   LIG A   1      -5.531   3.096 125.105  0.00  0.00    +0.125 C 
ATOM      4  O   LIG A   1      -6.120   1.891 125.593  0.00  0.00    -0.366 OA
ATOM      5  C   LIG A   1      -7.546   1.905 125.718  0.00  0.00    +0.172 C 
ATOM      6  C   LIG A   1      -8.277   2.342 124.428  0.00  0.00    +0.175 C 
ENDROOT
BRANCH   1   7
ATOM      7  O   LIG A   1      -8.143   3.800 122.497  0.00  0.00    -0.389 OA
ATOM      8  H   LIG A   1      -8.118   4.768 122.365  0.00  0.00    +0.210 HD
ENDBRANCH   1   7
BRANCH   6   9
ATOM      9  O   LIG A   1      -9.655   2.677 124.676  0.00  0.00    -0.386 OA
ATOM     10  H   LIG A   1      -9.683   3.250 125.463  0.00  0.00    +0.210 HD
ENDBRANCH   6   9
BRANCH   5  11
ATOM     11  C   LIG A   1      -7.991   0.517 126.132  0.00  0.00    +0.007 C 
ATOM     12  C   LIG A   1      -7.446  -0.222 127.117  0.00  0.00    +0.006 C 
BRANCH  12  13
ATOM     13  C   LIG A   1      -7.899  -1.558 127.551  0.00  0.00    -0.025 A 
ATOM     14  C   LIG A   1      -7.683  -1.944 128.883  0.00  0.00    +0.008 A 
ATOM     15  C   LIG A   1      -8.097  -3.199 129.345  0.00  0.00    +0.001 A 
ATOM     16  C   LIG A   1      -8.733  -4.086 128.480  0.00  0.00    +0.000 A 
ATOM     17  C   LIG A   1      -8.965  -3.715 127.160  0.00  0.00    +0.001 A 
ATOM     18  C   LIG A   1      -8.555  -2.459 126.701  0.00  0.00    +0.008 A 
ENDBRANCH  12  13
ENDBRANCH   5  11
BRANCH   3  19
ATOM     19  C   LIG A   1      -5.609   4.247 126.123  0.00  0.00    +0.076 C 
BRANCH  19  20
ATOM     20  C   LIG A   1      -5.140   3.877 127.546  0.00  0.00    +0.183 C 
ATOM     21  O   LIG A   1      -5.167   5.079 128.366  0.00  0.00    -0.458 OA
ATOM     22  C   LIG A   1      -4.123   5.946 128.373  0.00  0.00    +0.332 C 
ATOM     23  C   LIG A   1      -2.861   5.479 127.770  0.00  0.00    +0.087 C 
ATOM     24  C   LIG A   1      -2.677   4.191 127.450  0.00  0.00    -0.016 C 
ATOM     25  C   LIG A   1      -3.773   3.197 127.646  0.00  0.00    +0.072 C 
ATOM     26  O   LIG A   1      -4.194   7.062 128.878  0.00  0.00    -0.246 OA
ENDBRANCH  19  20
ENDBRANCH   3  19
TORSDOF 6
ENDMDL
MODEL 6
REMARK VINA RESULT:      -7.6      5.705      9.289
REMARK  Name = NuBBE_579
REMARK  6 active torsions:
REMARK  status: ('A' for Active; 'I' for Inactive)
REMARK    1  A    between atoms: O_1  and  C_2
REMARK    2  A    between atoms: C_5  and  C_7
REMARK    3  A    between atoms: C_7  and  C_8
REMARK    4  A    between atoms: C_17  and  C_22
REMARK    5  A    between atoms: C_19  and  O_21
REMARK    6  A    between atoms: C_23  and  C_24
REMARK                            x       y       z     vdW  Elec       q    Type
REMARK                         _______ _______ _______ _____ _____    ______ ____
ROOT
ATOM      1  C   LIG A   1      -7.424   6.255 131.045  0.00  0.00    +0.148 C 
ATOM      2  C   LIG A   1      -8.531   6.226 132.082  0.00  0.00    +0.065 C 
ATOM      3  C   LIG A   1      -9.846   5.756 131.466  0.00  0.00    +0.125 C 
ATOM      4  O   LIG A   1      -9.672   4.459 130.899  0.00  0.00    -0.366 OA
ATOM      5  C   LIG A   1      -8.655   4.353 129.896  0.00  0.00    +0.172 C 
ATOM      6  C   LIG A   1      -7.281   4.899 130.347  0.00  0.00    +0.175 C 
ENDROOT
BRANCH   1   7
ATOM      7  O   LIG A   1      -6.191   6.602 131.683  0.00  0.00    -0.389 OA
ATOM      8  H   LIG A   1      -5.810   7.317 131.137  0.00  0.00    +0.210 HD
ENDBRANCH   1   7
BRANCH   6   9
ATOM      9  O   LIG A   1      -6.389   5.098 129.234  0.00  0.00    -0.386 OA
ATOM     10  H   LIG A   1      -6.091   4.221 128.933  0.00  0.00    +0.210 HD
ENDBRANCH   6   9
BRANCH   5  11
ATOM     11  C   LIG A   1      -8.539   2.894 129.503  0.00  0.00    +0.007 C 
ATOM     12  C   LIG A   1      -8.354   2.429 128.253  0.00  0.00    +0.006 C 
BRANCH  12  13
ATOM     13  C   LIG A   1      -8.200   1.012 127.869  0.00  0.00    -0.025 A 
ATOM     14  C   LIG A   1      -7.675   0.111 128.807  0.00  0.00    +0.008 A 
ATOM     15  C   LIG A   1      -7.513  -1.243 128.493  0.00  0.00    +0.001 A 
ATOM     16  C   LIG A   1      -7.874  -1.715 127.234  0.00  0.00    +0.000 A 
ATOM     17  C   LIG A   1      -8.407  -0.838 126.295  0.00  0.00    +0.001 A 
ATOM     18  C   LIG A   1      -8.572   0.514 126.613  0.00  0.00    +0.008 A 
ENDBRANCH  12  13
ENDBRANCH   5  11
BRANCH   3  19
ATOM     19  C   LIG A   1     -10.467   6.757 130.476  0.00  0.00    +0.076 C 
BRANCH  19  20
ATOM     20  C   LIG A   1     -11.995   6.616 130.297  0.00  0.00    +0.183 C 
ATOM     21  O   LIG A   1     -12.258   6.167 128.938  0.00  0.00    -0.458 OA
ATOM     22  C   LIG A   1     -12.337   7.049 127.911  0.00  0.00    +0.332 C 
ATOM     23  C   LIG A   1     -12.448   8.477 128.262  0.00  0.00    +0.087 C 
ATOM     24  C   LIG A   1     -12.702   8.867 129.519  0.00  0.00    -0.016 C 
ATOM     25  C   LIG A   1     -12.825   7.862 130.615  0.00  0.00    +0.072 C 
ATOM     26  O   LIG A   1     -12.344   6.697 126.736  0.00  0.00    -0.246 OA
ENDBRANCH  19  20
ENDBRANCH   3  19
TORSDOF 6
ENDMDL
MODEL 7
REMARK VINA RESULT:      -7.5      1.530      2.372
REMARK  Name = NuBBE_579
REMARK  6 active torsions:
REMARK  status: ('A' for Active; 'I' for Inactive)
REMARK    1  A    between atoms: O_1  and  C_2
REMARK    2  A    between atoms: C_5  and  C_7
REMARK    3  A    between atoms: C_7  and  C_8
REMARK    4  A    between atoms: C_17  and  C_22
REMARK    5  A    between atoms: C_19  and  O_21
REMARK    6  A    between atoms: C_23  and  C_24
REMARK                            x       y       z     vdW  Elec       q    Type
REMARK                         _______ _______ _______ _____ _____    ______ ____
ROOT
ATOM      1  C   LIG A   1      -6.881   3.612 127.615  0.00  0.00    +0.148 C 
ATOM      2  C   LIG A   1      -5.573   2.872 127.826  0.00  0.00    +0.065 C 
ATOM      3  C   LIG A   1      -5.372   1.800 126.757  0.00  0.00    +0.125 C 
ATOM      4  O   LIG A   1      -5.392   2.404 125.465  0.00  0.00    -0.366 OA
ATOM      5  C   LIG A   1      -6.581   3.132 125.138  0.00  0.00    +0.172 C 
ATOM      6  C   LIG A   1      -6.972   4.187 126.198  0.00  0.00    +0.175 C 
ENDROOT
BRANCH   1   7
ATOM      7  O   LIG A   1      -6.980   4.670 128.574  0.00  0.00    -0.389 OA
ATOM      8  H   LIG A   1      -7.938   4.791 128.725  0.00  0.00    +0.210 HD
ENDBRANCH   1   7
BRANCH   6   9
ATOM      9  O   LIG A   1      -8.325   4.649 126.026  0.00  0.00    -0.386 OA
ATOM     10  H   LIG A   1      -8.914   3.880 126.124  0.00  0.00    +0.210 HD
ENDBRANCH   6   9
BRANCH   5  11
ATOM     11  C   LIG A   1      -6.368   3.792 123.791  0.00  0.00    +0.007 C 
ATOM     12  C   LIG A   1      -6.701   3.267 122.597  0.00  0.00    +0.006 C 
BRANCH  12  13
ATOM     13  C   LIG A   1      -6.533   3.920 121.285  0.00  0.00    -0.025 A 
ATOM     14  C   LIG A   1      -7.584   3.851 120.356  0.00  0.00    +0.008 A 
ATOM     15  C   LIG A   1      -7.476   4.457 119.100  0.00  0.00    +0.001 A 
ATOM     16  C   LIG A   1      -6.314   5.142 118.753  0.00  0.00    +0.000 A 
ATOM     17  C   LIG A   1      -5.268   5.230 119.665  0.00  0.00    +0.001 A 
ATOM     18  C   LIG A   1      -5.379   4.627 120.922  0.00  0.00    +0.008 A 
ENDBRANCH  12  13
ENDBRANCH   5  11
BRANCH   3  19
ATOM     19  C   LIG A   1      -6.344   0.613 126.870  0.00  0.00    +0.076 C 
BRANCH  19  20
ATOM     20  C   LIG A   1      -6.127  -0.495 125.816  0.00  0.00    +0.183 C 
ATOM     21  O   LIG A   1      -7.194  -0.405 124.830  0.00  0.00    -0.458 OA
ATOM     22  C   LIG A   1      -8.394  -1.003 125.039  0.00  0.00    +0.332 C 
ATOM     23  C   LIG A   1      -8.471  -1.981 126.140  0.00  0.00    +0.087 C 
ATOM     24  C   LIG A   1      -7.366  -2.437 126.745  0.00  0.00    -0.016 C 
ATOM     25  C   LIG A   1      -6.021  -1.922 126.355  0.00  0.00    +0.072 C 
ATOM     26  O   LIG A   1      -9.376  -0.775 124.341  0.00  0.00    -0.246 OA
ENDBRANCH  19  20
ENDBRANCH   3  19
TORSDOF 6
ENDMDL
MODEL 8
REMARK VINA RESULT:      -7.4      3.652      5.897
REMARK  Name = NuBBE_579
REMARK  6 active torsions:
REMARK  status: ('A' for Active; 'I' for Inactive)
REMARK    1  A    between atoms: O_1  and  C_2
REMARK    2  A    between atoms: C_5  and  C_7
REMARK    3  A    between atoms: C_7  and  C_8
REMARK    4  A    between atoms: C_17  and  C_22
REMARK    5  A    between atoms: C_19  and  O_21
REMARK    6  A    between atoms: C_23  and  C_24
REMARK                            x       y       z     vdW  Elec       q    Type
REMARK                         _______ _______ _______ _____ _____    ______ ____
ROOT
ATOM      1  C   LIG A   1      -7.446   2.950 123.424  0.00  0.00    +0.148 C 
ATOM      2  C   LIG A   1      -8.378   2.106 124.272  0.00  0.00    +0.065 C 
ATOM      3  C   LIG A   1      -7.593   1.251 125.264  0.00  0.00    +0.125 C 
ATOM      4  O   LIG A   1      -6.799   2.093 126.097  0.00  0.00    -0.366 OA
ATOM      5  C   LIG A   1      -5.867   2.940 125.415  0.00  0.00    +0.172 C 
ATOM      6  C   LIG A   1      -6.510   3.793 124.297  0.00  0.00    +0.175 C 
ENDROOT
BRANCH   1   7
ATOM      7  O   LIG A   1      -8.224   3.808 122.583  0.00  0.00    -0.389 OA
ATOM      8  H   LIG A   1      -8.124   4.702 122.963  0.00  0.00    +0.210 HD
ENDBRANCH   1   7
BRANCH   6   9
ATOM      9  O   LIG A   1      -5.522   4.360 123.416  0.00  0.00    -0.386 OA
ATOM     10  H   LIG A   1      -5.042   3.623 122.997  0.00  0.00    +0.210 HD
ENDBRANCH   6   9
BRANCH   5  11
ATOM     11  C   LIG A   1      -5.209   3.834 126.446  0.00  0.00    +0.007 C 
ATOM     12  C   LIG A   1      -4.180   3.488 127.243  0.00  0.00    +0.006 C 
BRANCH  12  13
ATOM     13  C   LIG A   1      -3.508   4.365 128.222  0.00  0.00    -0.025 A 
ATOM     14  C   LIG A   1      -2.857   5.519 127.758  0.00  0.00    +0.008 A 
ATOM     15  C   LIG A   1      -2.209   6.386 128.646  0.00  0.00    +0.001 A 
ATOM     16  C   LIG A   1      -2.201   6.110 130.010  0.00  0.00    +0.000 A 
ATOM     17  C   LIG A   1      -2.851   4.976 130.488  0.00  0.00    +0.001 A 
ATOM     18  C   LIG A   1      -3.503   4.114 129.601  0.00  0.00    +0.008 A 
ENDBRANCH  12  13
ENDBRANCH   5  11
BRANCH   3  19
ATOM     19  C   LIG A   1      -6.775   0.125 124.609  0.00  0.00    +0.076 C 
BRANCH  19  20
ATOM     20  C   LIG A   1      -7.541  -0.686 123.541  0.00  0.00    +0.183 C 
ATOM     21  O   LIG A   1      -8.784  -1.162 124.131  0.00  0.00    -0.458 OA
ATOM     22  C   LIG A   1      -8.822  -2.306 124.859  0.00  0.00    +0.332 C 
ATOM     23  C   LIG A   1      -7.646  -3.191 124.775  0.00  0.00    +0.087 C 
ATOM     24  C   LIG A   1      -6.696  -3.002 123.849  0.00  0.00    -0.016 C 
ATOM     25  C   LIG A   1      -6.777  -1.849 122.905  0.00  0.00    +0.072 C 
ATOM     26  O   LIG A   1      -9.790  -2.623 125.541  0.00  0.00    -0.246 OA
ENDBRANCH  19  20
ENDBRANCH   3  19
TORSDOF 6
ENDMDL
MODEL 9
REMARK VINA RESULT:      -7.2      7.772     12.299
REMARK  Name = NuBBE_579
REMARK  6 active torsions:
REMARK  status: ('A' for Active; 'I' for Inactive)
REMARK    1  A    between atoms: O_1  and  C_2
REMARK    2  A    between atoms: C_5  and  C_7
REMARK    3  A    between atoms: C_7  and  C_8
REMARK    4  A    between atoms: C_17  and  C_22
REMARK    5  A    between atoms: C_19  and  O_21
REMARK    6  A    between atoms: C_23  and  C_24
REMARK                            x       y       z     vdW  Elec       q    Type
REMARK                         _______ _______ _______ _____ _____    ______ ____
ROOT
ATOM      1  C   LIG A   1      -9.032   2.732 130.559  0.00  0.00    +0.148 C 
ATOM      2  C   LIG A   1      -8.117   3.705 129.840  0.00  0.00    +0.065 C 
ATOM      3  C   LIG A   1      -8.390   5.141 130.280  0.00  0.00    +0.125 C 
ATOM      4  O   LIG A   1      -8.211   5.250 131.692  0.00  0.00    -0.366 OA
ATOM      5  C   LIG A   1      -9.026   4.385 132.489  0.00  0.00    +0.172 C 
ATOM      6  C   LIG A   1      -8.934   2.896 132.079  0.00  0.00    +0.175 C 
ENDROOT
BRANCH   1   7
ATOM      7  O   LIG A   1      -8.676   1.396 130.194  0.00  0.00    -0.389 OA
ATOM      8  H   LIG A   1      -8.669   1.388 129.217  0.00  0.00    +0.210 HD
ENDBRANCH   1   7
BRANCH   6   9
ATOM      9  O   LIG A   1      -9.999   2.113 132.649  0.00  0.00    -0.386 OA
ATOM     10  H   LIG A   1     -10.708   2.726 132.912  0.00  0.00    +0.210 HD
ENDBRANCH   6   9
BRANCH   5  11
ATOM     11  C   LIG A   1      -8.612   4.558 133.937  0.00  0.00    +0.007 C 
ATOM     12  C   LIG A   1      -7.805   5.525 134.412  0.00  0.00    +0.006 C 
BRANCH  12  13
ATOM     13  C   LIG A   1      -7.430   5.724 135.826  0.00  0.00    -0.025 A 
ATOM     14  C   LIG A   1      -6.252   5.128 136.302  0.00  0.00    +0.008 A 
ATOM     15  C   LIG A   1      -5.850   5.290 137.633  0.00  0.00    +0.001 A 
ATOM     16  C   LIG A   1      -6.622   6.049 138.508  0.00  0.00    +0.000 A 
ATOM     17  C   LIG A   1      -7.787   6.656 138.049  0.00  0.00    +0.001 A 
ATOM     18  C   LIG A   1      -8.184   6.498 136.719  0.00  0.00    +0.008 A 
ENDBRANCH  12  13
ENDBRANCH   5  11
BRANCH   3  19
ATOM     19  C   LIG A   1      -9.748   5.693 129.812  0.00  0.00    +0.076 C 
BRANCH  19  20
ATOM     20  C   LIG A   1      -9.980   7.185 130.138  0.00  0.00    +0.183 C 
ATOM     21  O   LIG A   1     -11.017   7.276 131.156  0.00  0.00    -0.458 OA
ATOM     22  C   LIG A   1     -12.331   7.267 130.819  0.00  0.00    +0.332 C 
ATOM     23  C   LIG A   1     -12.659   7.464 129.395  0.00  0.00    +0.087 C 
ATOM     24  C   LIG A   1     -11.732   7.872 128.517  0.00  0.00    -0.016 C 
ATOM     25  C   LIG A   1     -10.320   8.086 128.950  0.00  0.00    +0.072 C 
ATOM     26  O   LIG A   1     -13.225   7.128 131.648  0.00  0.00    -0.246 OA
ENDBRANCH  19  20
ENDBRANCH   3  19
TORSDOF 6
ENDMDL
