MODEL 1
REMARK VINA RESULT:      -6.4      0.000      0.000
REMARK  Name = NuBBE_465
REMARK  9 active torsions:
REMARK  status: ('A' for Active; 'I' for Inactive)
REMARK    1  A    between atoms: C_3  and  O_4
REMARK    2  A    between atoms: C_3  and  C_8
REMARK    3  A    between atoms: O_4  and  C_5
REMARK    4  A    between atoms: C_5  and  C_6
REMARK    5  A    between atoms: C_9  and  O_11
REMARK    6  A    between atoms: O_11  and  C_12
REMARK    7  A    between atoms: C_12  and  C_13
REMARK    8  A    between atoms: C_18  and  C_19
REMARK    9  A    between atoms: C_22  and  C_23
REMARK                            x       y       z     vdW  Elec       q    Type
REMARK                         _______ _______ _______ _____ _____    ______ ____
ROOT
ATOM      1  O   LIG A   1      -5.079   2.132 125.869  0.00  0.00    -0.287 OA
ATOM      2  C   LIG A   1      -6.150   1.743 125.398  0.00  0.00    +0.214 C 
ATOM      3  C   LIG A   1      -7.342   2.699 125.141  0.00  0.00    +0.213 C 
ATOM      4  C   LIG A   1      -6.907   4.159 125.338  0.00  0.00    +0.069 C 
ATOM      5  C   LIG A   1      -7.748   2.397 123.672  0.00  0.00    +0.261 C 
ATOM      6  C   LIG A   1      -8.210   0.950 123.626  0.00  0.00    +0.040 C 
ATOM      7  C   LIG A   1      -9.380   0.543 123.101  0.00  0.00    +0.203 C 
ATOM      8  O   LIG A   1      -9.809  -0.772 123.080  0.00  0.00    -0.468 OA
ATOM      9  C   LIG A   1      -8.932  -1.760 123.521  0.00  0.00    +0.102 C 
ATOM     10  C   LIG A   1      -9.465  -3.156 123.446  0.00  0.00    +0.086 C 
ATOM     11  C   LIG A   1      -7.716  -1.472 124.022  0.00  0.00    +0.050 C 
ATOM     12  C   LIG A   1      -7.344  -0.073 124.247  0.00  0.00    +0.002 C 
ATOM     13  C   LIG A   1      -6.291   0.299 125.012  0.00  0.00    +0.068 C 
ENDROOT
BRANCH  13  14
ATOM     14  C   LIG A   1      -5.253  -0.632 125.542  0.00  0.00    +0.263 C 
ATOM     15  O   LIG A   1      -5.282  -1.158 126.648  0.00  0.00    -0.296 OA
ENDBRANCH  13  14
BRANCH   3  16
ATOM     16  O   LIG A   1      -8.545   2.540 125.926  0.00  0.00    -0.446 OA
BRANCH  16  17
ATOM     17  C   LIG A   1      -8.447   2.426 127.272  0.00  0.00    +0.305 C 
ATOM     18  C   LIG A   1      -8.523   0.976 127.648  0.00  0.00    +0.136 C 
ATOM     19  O   LIG A   1      -8.380   3.356 128.063  0.00  0.00    -0.251 OA
ENDBRANCH  16  17
ENDBRANCH   3  16
BRANCH   5  20
ATOM     20  O   LIG A   1      -6.628   2.489 122.762  0.00  0.00    -0.452 OA
BRANCH  20  21
ATOM     21  C   LIG A   1      -6.737   3.325 121.694  0.00  0.00    +0.305 C 
ATOM     22  C   LIG A   1      -5.373   3.804 121.297  0.00  0.00    +0.136 C 
ATOM     23  O   LIG A   1      -7.769   3.639 121.143  0.00  0.00    -0.251 OA
ENDBRANCH  20  21
ENDBRANCH   5  20
TORSDOF 5
ENDMDL
MODEL 2
REMARK VINA RESULT:      -6.2      5.647      9.082
REMARK  Name = NuBBE_465
REMARK  9 active torsions:
REMARK  status: ('A' for Active; 'I' for Inactive)
REMARK    1  A    between atoms: C_3  and  O_4
REMARK    2  A    between atoms: C_3  and  C_8
REMARK    3  A    between atoms: O_4  and  C_5
REMARK    4  A    between atoms: C_5  and  C_6
REMARK    5  A    between atoms: C_9  and  O_11
REMARK    6  A    between atoms: O_11  and  C_12
REMARK    7  A    between atoms: C_12  and  C_13
REMARK    8  A    between atoms: C_18  and  C_19
REMARK    9  A    between atoms: C_22  and  C_23
REMARK                            x       y       z     vdW  Elec       q    Type
REMARK                         _______ _______ _______ _____ _____    ______ ____
ROOT
ATOM      1  O   LIG A   1     -11.010   4.065 130.040  0.00  0.00    -0.287 OA
ATOM      2  C   LIG A   1     -10.016   4.778 130.189  0.00  0.00    +0.214 C 
ATOM      3  C   LIG A   1     -10.103   6.220 130.748  0.00  0.00    +0.213 C 
ATOM      4  C   LIG A   1     -11.519   6.503 131.273  0.00  0.00    +0.069 C 
ATOM      5  C   LIG A   1      -9.039   6.244 131.879  0.00  0.00    +0.261 C 
ATOM      6  C   LIG A   1      -7.687   6.011 131.223  0.00  0.00    +0.040 C 
ATOM      7  C   LIG A   1      -6.610   6.797 131.403  0.00  0.00    +0.203 C 
ATOM      8  O   LIG A   1      -5.387   6.597 130.789  0.00  0.00    -0.468 OA
ATOM      9  C   LIG A   1      -5.213   5.446 130.024  0.00  0.00    +0.102 C 
ATOM     10  C   LIG A   1      -3.857   5.294 129.411  0.00  0.00    +0.086 C 
ATOM     11  C   LIG A   1      -6.208   4.563 129.816  0.00  0.00    +0.050 C 
ATOM     12  C   LIG A   1      -7.560   4.879 130.283  0.00  0.00    +0.002 C 
ATOM     13  C   LIG A   1      -8.663   4.215 129.864  0.00  0.00    +0.068 C 
ENDROOT
BRANCH  13  14
ATOM     14  C   LIG A   1      -8.645   2.958 129.061  0.00  0.00    +0.263 C 
ATOM     15  O   LIG A   1      -8.679   2.907 127.837  0.00  0.00    -0.296 OA
ENDBRANCH  13  14
BRANCH   3  16
ATOM     16  O   LIG A   1      -9.781   7.327 129.876  0.00  0.00    -0.446 OA
BRANCH  16  17
ATOM     17  C   LIG A   1     -10.277   7.343 128.616  0.00  0.00    +0.305 C 
ATOM     18  C   LIG A   1     -11.282   8.451 128.498  0.00  0.00    +0.136 C 
ATOM     19  O   LIG A   1     -10.007   6.540 127.734  0.00  0.00    -0.251 OA
ENDBRANCH  16  17
ENDBRANCH   3  16
BRANCH   5  20
ATOM     20  O   LIG A   1      -9.217   5.164 132.824  0.00  0.00    -0.452 OA
BRANCH  20  21
ATOM     21  C   LIG A   1      -8.384   5.110 133.899  0.00  0.00    +0.305 C 
ATOM     22  C   LIG A   1      -7.896   3.704 134.079  0.00  0.00    +0.136 C 
ATOM     23  O   LIG A   1      -8.078   6.045 134.605  0.00  0.00    -0.251 OA
ENDBRANCH  20  21
ENDBRANCH   5  20
TORSDOF 5
ENDMDL
MODEL 3
REMARK VINA RESULT:      -6.2      2.479      5.735
REMARK  Name = NuBBE_465
REMARK  9 active torsions:
REMARK  status: ('A' for Active; 'I' for Inactive)
REMARK    1  A    between atoms: C_3  and  O_4
REMARK    2  A    between atoms: C_3  and  C_8
REMARK    3  A    between atoms: O_4  and  C_5
REMARK    4  A    between atoms: C_5  and  C_6
REMARK    5  A    between atoms: C_9  and  O_11
REMARK    6  A    between atoms: O_11  and  C_12
REMARK    7  A    between atoms: C_12  and  C_13
REMARK    8  A    between atoms: C_18  and  C_19
REMARK    9  A    between atoms: C_22  and  C_23
REMARK                            x       y       z     vdW  Elec       q    Type
REMARK                         _______ _______ _______ _____ _____    ______ ____
ROOT
ATOM      1  O   LIG A   1      -9.675  -3.088 123.230  0.00  0.00    -0.287 OA
ATOM      2  C   LIG A   1      -8.932  -2.341 123.870  0.00  0.00    +0.214 C 
ATOM      3  C   LIG A   1      -8.151  -2.819 125.121  0.00  0.00    +0.213 C 
ATOM      4  C   LIG A   1      -8.269  -4.343 125.273  0.00  0.00    +0.069 C 
ATOM      5  C   LIG A   1      -6.692  -2.364 124.840  0.00  0.00    +0.261 C 
ATOM      6  C   LIG A   1      -6.705  -0.846 124.771  0.00  0.00    +0.040 C 
ATOM      7  C   LIG A   1      -5.880  -0.047 125.473  0.00  0.00    +0.203 C 
ATOM      8  O   LIG A   1      -5.907   1.335 125.426  0.00  0.00    -0.468 OA
ATOM      9  C   LIG A   1      -6.759   1.948 124.509  0.00  0.00    +0.102 C 
ATOM     10  C   LIG A   1      -6.713   3.444 124.507  0.00  0.00    +0.086 C 
ATOM     11  C   LIG A   1      -7.593   1.245 123.721  0.00  0.00    +0.050 C 
ATOM     12  C   LIG A   1      -7.724  -0.200 123.919  0.00  0.00    +0.002 C 
ATOM     13  C   LIG A   1      -8.737  -0.931 123.397  0.00  0.00    +0.068 C 
ENDROOT
BRANCH  13  14
ATOM     14  C   LIG A   1      -9.716  -0.429 122.389  0.00  0.00    +0.263 C 
ATOM     15  O   LIG A   1     -10.766   0.145 122.657  0.00  0.00    -0.296 OA
ENDBRANCH  13  14
BRANCH   3  16
ATOM     16  O   LIG A   1      -8.498  -2.269 126.411  0.00  0.00    -0.446 OA
BRANCH  16  17
ATOM     17  C   LIG A   1      -7.929  -2.787 127.526  0.00  0.00    +0.305 C 
ATOM     18  C   LIG A   1      -8.917  -3.686 128.209  0.00  0.00    +0.136 C 
ATOM     19  O   LIG A   1      -6.816  -2.513 127.951  0.00  0.00    -0.251 OA
ENDBRANCH  16  17
ENDBRANCH   3  16
BRANCH   5  20
ATOM     20  O   LIG A   1      -6.211  -2.820 123.555  0.00  0.00    -0.452 OA
BRANCH  20  21
ATOM     21  C   LIG A   1      -4.935  -3.285 123.477  0.00  0.00    +0.305 C 
ATOM     22  C   LIG A   1      -4.917  -4.744 123.822  0.00  0.00    +0.136 C 
ATOM     23  O   LIG A   1      -3.961  -2.632 123.176  0.00  0.00    -0.251 OA
ENDBRANCH  20  21
ENDBRANCH   5  20
TORSDOF 5
ENDMDL
MODEL 4
REMARK VINA RESULT:      -6.1      2.419      5.198
REMARK  Name = NuBBE_465
REMARK  9 active torsions:
REMARK  status: ('A' for Active; 'I' for Inactive)
REMARK    1  A    between atoms: C_3  and  O_4
REMARK    2  A    between atoms: C_3  and  C_8
REMARK    3  A    between atoms: O_4  and  C_5
REMARK    4  A    between atoms: C_5  and  C_6
REMARK    5  A    between atoms: C_9  and  O_11
REMARK    6  A    between atoms: O_11  and  C_12
REMARK    7  A    between atoms: C_12  and  C_13
REMARK    8  A    between atoms: C_18  and  C_19
REMARK    9  A    between atoms: C_22  and  C_23
REMARK                            x       y       z     vdW  Elec       q    Type
REMARK                         _______ _______ _______ _____ _____    ______ ____
ROOT
ATOM      1  O   LIG A   1      -8.874  -3.497 124.403  0.00  0.00    -0.287 OA
ATOM      2  C   LIG A   1      -8.307  -2.489 124.828  0.00  0.00    +0.214 C 
ATOM      3  C   LIG A   1      -7.503  -1.537 123.907  0.00  0.00    +0.213 C 
ATOM      4  C   LIG A   1      -7.721  -1.911 122.433  0.00  0.00    +0.069 C 
ATOM      5  C   LIG A   1      -8.067  -0.130 124.248  0.00  0.00    +0.261 C 
ATOM      6  C   LIG A   1      -7.736   0.140 125.707  0.00  0.00    +0.040 C 
ATOM      7  C   LIG A   1      -7.123   1.251 126.153  0.00  0.00    +0.203 C 
ATOM      8  O   LIG A   1      -6.802   1.486 127.479  0.00  0.00    -0.468 OA
ATOM      9  C   LIG A   1      -7.244   0.575 128.436  0.00  0.00    +0.102 C 
ATOM     10  C   LIG A   1      -6.874   0.912 129.846  0.00  0.00    +0.086 C 
ATOM     11  C   LIG A   1      -7.910  -0.547 128.107  0.00  0.00    +0.050 C 
ATOM     12  C   LIG A   1      -8.061  -0.908 126.696  0.00  0.00    +0.002 C 
ATOM     13  C   LIG A   1      -8.437  -2.141 126.282  0.00  0.00    +0.068 C 
ENDROOT
BRANCH  13  14
ATOM     14  C   LIG A   1      -8.953  -3.218 127.177  0.00  0.00    +0.263 C 
ATOM     15  O   LIG A   1      -8.259  -3.914 127.909  0.00  0.00    -0.296 OA
ENDBRANCH  13  14
BRANCH   3  16
ATOM     16  O   LIG A   1      -6.071  -1.444 124.080  0.00  0.00    -0.446 OA
BRANCH  16  17
ATOM     17  C   LIG A   1      -5.394  -2.505 124.579  0.00  0.00    +0.305 C 
ATOM     18  C   LIG A   1      -4.880  -3.338 123.442  0.00  0.00    +0.136 C 
ATOM     19  O   LIG A   1      -5.279  -2.783 125.764  0.00  0.00    -0.251 OA
ENDBRANCH  16  17
ENDBRANCH   3  16
BRANCH   5  20
ATOM     20  O   LIG A   1      -9.508  -0.075 124.147  0.00  0.00    -0.452 OA
BRANCH  20  21
ATOM     21  C   LIG A   1     -10.052   0.687 123.160  0.00  0.00    +0.305 C 
ATOM     22  C   LIG A   1      -9.251   1.945 123.007  0.00  0.00    +0.136 C 
ATOM     23  O   LIG A   1     -11.029   0.403 122.503  0.00  0.00    -0.251 OA
ENDBRANCH  20  21
ENDBRANCH   5  20
TORSDOF 5
ENDMDL
MODEL 5
REMARK VINA RESULT:      -6.1      2.513      5.559
REMARK  Name = NuBBE_465
REMARK  9 active torsions:
REMARK  status: ('A' for Active; 'I' for Inactive)
REMARK    1  A    between atoms: C_3  and  O_4
REMARK    2  A    between atoms: C_3  and  C_8
REMARK    3  A    between atoms: O_4  and  C_5
REMARK    4  A    between atoms: C_5  and  C_6
REMARK    5  A    between atoms: C_9  and  O_11
REMARK    6  A    between atoms: O_11  and  C_12
REMARK    7  A    between atoms: C_12  and  C_13
REMARK    8  A    between atoms: C_18  and  C_19
REMARK    9  A    between atoms: C_22  and  C_23
REMARK                            x       y       z     vdW  Elec       q    Type
REMARK                         _______ _______ _______ _____ _____    ______ ____
ROOT
ATOM      1  O   LIG A   1      -9.982  -0.125 124.802  0.00  0.00    -0.287 OA
ATOM      2  C   LIG A   1      -8.832  -0.520 125.003  0.00  0.00    +0.214 C 
ATOM      3  C   LIG A   1      -7.868   0.194 125.985  0.00  0.00    +0.213 C 
ATOM      4  C   LIG A   1      -8.622   1.264 126.788  0.00  0.00    +0.069 C 
ATOM      5  C   LIG A   1      -7.339  -0.957 126.885  0.00  0.00    +0.261 C 
ATOM      6  C   LIG A   1      -6.569  -1.908 125.984  0.00  0.00    +0.040 C 
ATOM      7  C   LIG A   1      -5.315  -2.334 126.224  0.00  0.00    +0.203 C 
ATOM      8  O   LIG A   1      -4.607  -3.183 125.392  0.00  0.00    -0.468 OA
ATOM      9  C   LIG A   1      -5.265  -3.731 124.294  0.00  0.00    +0.102 C 
ATOM     10  C   LIG A   1      -4.437  -4.654 123.457  0.00  0.00    +0.086 C 
ATOM     11  C   LIG A   1      -6.537  -3.414 123.985  0.00  0.00    +0.050 C 
ATOM     12  C   LIG A   1      -7.217  -2.355 124.734  0.00  0.00    +0.002 C 
ATOM     13  C   LIG A   1      -8.359  -1.765 124.311  0.00  0.00    +0.068 C 
ENDROOT
BRANCH  13  14
ATOM     14  C   LIG A   1      -9.191  -2.243 123.169  0.00  0.00    +0.263 C 
ATOM     15  O   LIG A   1      -9.992  -3.169 123.223  0.00  0.00    -0.296 OA
ENDBRANCH  13  14
BRANCH   3  16
ATOM     16  O   LIG A   1      -6.697   0.854 125.455  0.00  0.00    -0.446 OA
BRANCH  16  17
ATOM     17  C   LIG A   1      -6.841   1.756 124.455  0.00  0.00    +0.305 C 
ATOM     18  C   LIG A   1      -6.213   3.054 124.870  0.00  0.00    +0.136 C 
ATOM     19  O   LIG A   1      -7.447   1.570 123.410  0.00  0.00    -0.251 OA
ENDBRANCH  16  17
ENDBRANCH   3  16
BRANCH   5  20
ATOM     20  O   LIG A   1      -8.409  -1.735 127.469  0.00  0.00    -0.452 OA
BRANCH  20  21
ATOM     21  C   LIG A   1      -8.085  -2.667 128.405  0.00  0.00    +0.305 C 
ATOM     22  C   LIG A   1      -8.790  -3.952 128.089  0.00  0.00    +0.136 C 
ATOM     23  O   LIG A   1      -7.345  -2.497 129.348  0.00  0.00    -0.251 OA
ENDBRANCH  20  21
ENDBRANCH   5  20
TORSDOF 5
ENDMDL
MODEL 6
REMARK VINA RESULT:      -5.9      5.480      8.157
REMARK  Name = NuBBE_465
REMARK  9 active torsions:
REMARK  status: ('A' for Active; 'I' for Inactive)
REMARK    1  A    between atoms: C_3  and  O_4
REMARK    2  A    between atoms: C_3  and  C_8
REMARK    3  A    between atoms: O_4  and  C_5
REMARK    4  A    between atoms: C_5  and  C_6
REMARK    5  A    between atoms: C_9  and  O_11
REMARK    6  A    between atoms: O_11  and  C_12
REMARK    7  A    between atoms: C_12  and  C_13
REMARK    8  A    between atoms: C_18  and  C_19
REMARK    9  A    between atoms: C_22  and  C_23
REMARK                            x       y       z     vdW  Elec       q    Type
REMARK                         _______ _______ _______ _____ _____    ______ ____
ROOT
ATOM      1  O   LIG A   1      -5.893  -4.158 131.987  0.00  0.00    -0.287 OA
ATOM      2  C   LIG A   1      -6.179  -3.057 131.512  0.00  0.00    +0.214 C 
ATOM      3  C   LIG A   1      -5.440  -2.464 130.286  0.00  0.00    +0.213 C 
ATOM      4  C   LIG A   1      -4.515  -3.518 129.659  0.00  0.00    +0.069 C 
ATOM      5  C   LIG A   1      -6.590  -2.044 129.329  0.00  0.00    +0.261 C 
ATOM      6  C   LIG A   1      -7.389  -0.964 130.040  0.00  0.00    +0.040 C 
ATOM      7  C   LIG A   1      -7.698   0.230 129.502  0.00  0.00    +0.203 C 
ATOM      8  O   LIG A   1      -8.406   1.221 130.159  0.00  0.00    -0.468 OA
ATOM      9  C   LIG A   1      -8.940   0.931 131.412  0.00  0.00    +0.102 C 
ATOM     10  C   LIG A   1      -9.708   2.048 132.044  0.00  0.00    +0.086 C 
ATOM     11  C   LIG A   1      -8.736  -0.250 132.025  0.00  0.00    +0.050 C 
ATOM     12  C   LIG A   1      -7.811  -1.218 131.433  0.00  0.00    +0.002 C 
ATOM     13  C   LIG A   1      -7.315  -2.280 132.111  0.00  0.00    +0.068 C 
ENDROOT
BRANCH  13  14
ATOM     14  C   LIG A   1      -7.794  -2.734 133.449  0.00  0.00    +0.263 C 
ATOM     15  O   LIG A   1      -7.464  -2.235 134.518  0.00  0.00    -0.296 OA
ENDBRANCH  13  14
BRANCH   3  16
ATOM     16  O   LIG A   1      -4.624  -1.285 130.466  0.00  0.00    -0.446 OA
BRANCH  16  17
ATOM     17  C   LIG A   1      -3.841  -1.184 131.567  0.00  0.00    +0.305 C 
ATOM     18  C   LIG A   1      -4.321  -0.037 132.407  0.00  0.00    +0.136 C 
ATOM     19  O   LIG A   1      -2.856  -1.868 131.806  0.00  0.00    -0.251 OA
ENDBRANCH  16  17
ENDBRANCH   3  16
BRANCH   5  20
ATOM     20  O   LIG A   1      -7.516  -3.126 129.075  0.00  0.00    -0.452 OA
BRANCH  20  21
ATOM     21  C   LIG A   1      -8.158  -3.151 127.876  0.00  0.00    +0.305 C 
ATOM     22  C   LIG A   1      -9.290  -4.132 127.940  0.00  0.00    +0.136 C 
ATOM     23  O   LIG A   1      -7.869  -2.489 126.904  0.00  0.00    -0.251 OA
ENDBRANCH  20  21
ENDBRANCH   5  20
TORSDOF 5
ENDMDL
MODEL 7
REMARK VINA RESULT:      -5.9      2.816      5.511
REMARK  Name = NuBBE_465
REMARK  9 active torsions:
REMARK  status: ('A' for Active; 'I' for Inactive)
REMARK    1  A    between atoms: C_3  and  O_4
REMARK    2  A    between atoms: C_3  and  C_8
REMARK    3  A    between atoms: O_4  and  C_5
REMARK    4  A    between atoms: C_5  and  C_6
REMARK    5  A    between atoms: C_9  and  O_11
REMARK    6  A    between atoms: O_11  and  C_12
REMARK    7  A    between atoms: C_12  and  C_13
REMARK    8  A    between atoms: C_18  and  C_19
REMARK    9  A    between atoms: C_22  and  C_23
REMARK                            x       y       z     vdW  Elec       q    Type
REMARK                         _______ _______ _______ _____ _____    ______ ____
ROOT
ATOM      1  O   LIG A   1      -8.986   1.628 127.944  0.00  0.00    -0.287 OA
ATOM      2  C   LIG A   1      -8.113   0.893 127.478  0.00  0.00    +0.214 C 
ATOM      3  C   LIG A   1      -6.903   0.405 128.314  0.00  0.00    +0.213 C 
ATOM      4  C   LIG A   1      -7.092   0.779 129.793  0.00  0.00    +0.069 C 
ATOM      5  C   LIG A   1      -6.893  -1.132 128.090  0.00  0.00    +0.261 C 
ATOM      6  C   LIG A   1      -6.642  -1.363 126.608  0.00  0.00    +0.040 C 
ATOM      7  C   LIG A   1      -5.689  -2.177 126.118  0.00  0.00    +0.203 C 
ATOM      8  O   LIG A   1      -5.446  -2.370 124.770  0.00  0.00    -0.468 OA
ATOM      9  C   LIG A   1      -6.314  -1.782 123.853  0.00  0.00    +0.102 C 
ATOM     10  C   LIG A   1      -5.995  -2.056 122.417  0.00  0.00    +0.086 C 
ATOM     11  C   LIG A   1      -7.332  -0.988 124.232  0.00  0.00    +0.050 C 
ATOM     12  C   LIG A   1      -7.461  -0.606 125.640  0.00  0.00    +0.002 C 
ATOM     13  C   LIG A   1      -8.250   0.409 126.064  0.00  0.00    +0.068 C 
ENDROOT
BRANCH  13  14
ATOM     14  C   LIG A   1      -9.245   1.125 125.213  0.00  0.00    +0.263 C 
ATOM     15  O   LIG A   1     -10.371   0.715 124.954  0.00  0.00    -0.296 OA
ENDBRANCH  13  14
BRANCH   3  16
ATOM     16  O   LIG A   1      -5.580   0.867 127.960  0.00  0.00    -0.446 OA
BRANCH  16  17
ATOM     17  C   LIG A   1      -5.424   2.122 127.474  0.00  0.00    +0.305 C 
ATOM     18  C   LIG A   1      -4.881   2.042 126.078  0.00  0.00    +0.136 C 
ATOM     19  O   LIG A   1      -5.624   3.156 128.094  0.00  0.00    -0.251 OA
ENDBRANCH  16  17
ENDBRANCH   3  16
BRANCH   5  20
ATOM     20  O   LIG A   1      -8.174  -1.738 128.378  0.00  0.00    -0.452 OA
BRANCH  20  21
ATOM     21  C   LIG A   1      -8.185  -2.986 128.918  0.00  0.00    +0.305 C 
ATOM     22  C   LIG A   1      -8.902  -3.921 127.991  0.00  0.00    +0.136 C 
ATOM     23  O   LIG A   1      -7.694  -3.304 129.978  0.00  0.00    -0.251 OA
ENDBRANCH  20  21
ENDBRANCH   5  20
TORSDOF 5
ENDMDL
MODEL 8
REMARK VINA RESULT:      -5.7      2.236      4.054
REMARK  Name = NuBBE_465
REMARK  9 active torsions:
REMARK  status: ('A' for Active; 'I' for Inactive)
REMARK    1  A    between atoms: C_3  and  O_4
REMARK    2  A    between atoms: C_3  and  C_8
REMARK    3  A    between atoms: O_4  and  C_5
REMARK    4  A    between atoms: C_5  and  C_6
REMARK    5  A    between atoms: C_9  and  O_11
REMARK    6  A    between atoms: O_11  and  C_12
REMARK    7  A    between atoms: C_12  and  C_13
REMARK    8  A    between atoms: C_18  and  C_19
REMARK    9  A    between atoms: C_22  and  C_23
REMARK                            x       y       z     vdW  Elec       q    Type
REMARK                         _______ _______ _______ _____ _____    ______ ____
ROOT
ATOM      1  O   LIG A   1      -6.900   2.264 124.682  0.00  0.00    -0.287 OA
ATOM      2  C   LIG A   1      -7.231   1.342 125.430  0.00  0.00    +0.214 C 
ATOM      3  C   LIG A   1      -8.714   0.992 125.713  0.00  0.00    +0.213 C 
ATOM      4  C   LIG A   1      -9.637   1.787 124.777  0.00  0.00    +0.069 C 
ATOM      5  C   LIG A   1      -8.788  -0.538 125.456  0.00  0.00    +0.261 C 
ATOM      6  C   LIG A   1      -7.882  -1.205 126.478  0.00  0.00    +0.040 C 
ATOM      7  C   LIG A   1      -8.259  -2.217 127.281  0.00  0.00    +0.203 C 
ATOM      8  O   LIG A   1      -7.441  -2.808 128.226  0.00  0.00    -0.468 OA
ATOM      9  C   LIG A   1      -6.104  -2.420 128.278  0.00  0.00    +0.102 C 
ATOM     10  C   LIG A   1      -5.282  -3.122 129.312  0.00  0.00    +0.086 C 
ATOM     11  C   LIG A   1      -5.605  -1.452 127.486  0.00  0.00    +0.050 C 
ATOM     12  C   LIG A   1      -6.513  -0.675 126.640  0.00  0.00    +0.002 C 
ATOM     13  C   LIG A   1      -6.162   0.493 126.053  0.00  0.00    +0.068 C 
ENDROOT
BRANCH  13  14
ATOM     14  C   LIG A   1      -4.773   1.035 126.001  0.00  0.00    +0.263 C 
ATOM     15  O   LIG A   1      -4.304   1.841 126.797  0.00  0.00    -0.296 OA
ENDBRANCH  13  14
BRANCH   3  16
ATOM     16  O   LIG A   1      -9.237   1.198 127.044  0.00  0.00    -0.446 OA
BRANCH  16  17
ATOM     17  C   LIG A   1      -8.629   2.087 127.865  0.00  0.00    +0.305 C 
ATOM     18  C   LIG A   1      -8.214   1.389 129.125  0.00  0.00    +0.136 C 
ATOM     19  O   LIG A   1      -8.501   3.284 127.648  0.00  0.00    -0.251 OA
ENDBRANCH  16  17
ENDBRANCH   3  16
BRANCH   5  20
ATOM     20  O   LIG A   1      -8.266  -0.904 124.158  0.00  0.00    -0.452 OA
BRANCH  20  21
ATOM     21  C   LIG A   1      -9.111  -1.496 123.272  0.00  0.00    +0.305 C 
ATOM     22  C   LIG A   1      -8.969  -2.985 123.369  0.00  0.00    +0.136 C 
ATOM     23  O   LIG A   1      -9.865  -0.920 122.519  0.00  0.00    -0.251 OA
ENDBRANCH  20  21
ENDBRANCH   5  20
TORSDOF 5
ENDMDL
MODEL 9
REMARK VINA RESULT:      -5.7      3.843      6.687
REMARK  Name = NuBBE_465
REMARK  9 active torsions:
REMARK  status: ('A' for Active; 'I' for Inactive)
REMARK    1  A    between atoms: C_3  and  O_4
REMARK    2  A    between atoms: C_3  and  C_8
REMARK    3  A    between atoms: O_4  and  C_5
REMARK    4  A    between atoms: C_5  and  C_6
REMARK    5  A    between atoms: C_9  and  O_11
REMARK    6  A    between atoms: O_11  and  C_12
REMARK    7  A    between atoms: C_12  and  C_13
REMARK    8  A    between atoms: C_18  and  C_19
REMARK    9  A    between atoms: C_22  and  C_23
REMARK                            x       y       z     vdW  Elec       q    Type
REMARK                         _______ _______ _______ _____ _____    ______ ____
ROOT
ATOM      1  O   LIG A   1      -5.512   4.116 125.035  0.00  0.00    -0.287 OA
ATOM      2  C   LIG A   1      -5.620   3.953 126.252  0.00  0.00    +0.214 C 
ATOM      3  C   LIG A   1      -4.433   3.496 127.138  0.00  0.00    +0.213 C 
ATOM      4  C   LIG A   1      -3.127   3.511 126.329  0.00  0.00    +0.069 C 
ATOM      5  C   LIG A   1      -4.421   4.528 128.300  0.00  0.00    +0.261 C 
ATOM      6  C   LIG A   1      -5.733   4.369 129.049  0.00  0.00    +0.040 C 
ATOM      7  C   LIG A   1      -5.832   4.200 130.380  0.00  0.00    +0.203 C 
ATOM      8  O   LIG A   1      -7.026   4.034 131.059  0.00  0.00    -0.468 OA
ATOM      9  C   LIG A   1      -8.215   4.167 130.345  0.00  0.00    +0.102 C 
ATOM     10  C   LIG A   1      -9.460   3.994 131.156  0.00  0.00    +0.086 C 
ATOM     11  C   LIG A   1      -8.236   4.387 129.017  0.00  0.00    +0.050 C 
ATOM     12  C   LIG A   1      -6.983   4.347 128.261  0.00  0.00    +0.002 C 
ATOM     13  C   LIG A   1      -6.934   4.253 126.912  0.00  0.00    +0.068 C 
ENDROOT
BRANCH  13  14
ATOM     14  C   LIG A   1      -8.111   4.396 126.006  0.00  0.00    +0.263 C 
ATOM     15  O   LIG A   1      -8.733   5.436 125.823  0.00  0.00    -0.296 OA
ENDBRANCH  13  14
BRANCH   3  16
ATOM     16  O   LIG A   1      -4.490   2.195 127.763  0.00  0.00    -0.446 OA
BRANCH  16  17
ATOM     17  C   LIG A   1      -5.185   1.200 127.160  0.00  0.00    +0.305 C 
ATOM     18  C   LIG A   1      -6.293   0.755 128.068  0.00  0.00    +0.136 C 
ATOM     19  O   LIG A   1      -4.912   0.693 126.082  0.00  0.00    -0.251 OA
ENDBRANCH  16  17
ENDBRANCH   3  16
BRANCH   5  20
ATOM     20  O   LIG A   1      -4.393   5.893 127.822  0.00  0.00    -0.452 OA
BRANCH  20  21
ATOM     21  C   LIG A   1      -3.715   6.814 128.557  0.00  0.00    +0.305 C 
ATOM     22  C   LIG A   1      -2.245   6.529 128.475  0.00  0.00    +0.136 C 
ATOM     23  O   LIG A   1      -4.209   7.726 129.182  0.00  0.00    -0.251 OA
ENDBRANCH  20  21
ENDBRANCH   5  20
TORSDOF 5
ENDMDL
