MODEL 1
REMARK VINA RESULT:      -7.4      0.000      0.000
REMARK  Name = NuBBE_2363
REMARK  5 active torsions:
REMARK  status: ('A' for Active; 'I' for Inactive)
REMARK    1  A    between atoms: C_1  and  C_2
REMARK    2  A    between atoms: C_2  and  C_3
REMARK    3  A    between atoms: C_3  and  O_4
REMARK    4  A    between atoms: C_9  and  C_10
REMARK    5  A    between atoms: C_18  and  O_19
REMARK                            x       y       z     vdW  Elec       q    Type
REMARK                         _______ _______ _______ _____ _____    ______ ____
ROOT
ATOM      1  C   LIG A   1      -9.589  -3.226 122.865  0.00  0.00    +0.023 C 
ATOM      2  C   LIG A   1      -8.722  -2.161 123.587  0.00  0.00    +0.068 C 
ATOM      3  C   LIG A   1      -7.569  -1.808 122.627  0.00  0.00    +0.018 C 
ATOM      4  C   LIG A   1      -6.477  -0.935 123.236  0.00  0.00    +0.002 C 
ATOM      5  C   LIG A   1      -6.392  -0.986 124.760  0.00  0.00    +0.012 C 
ATOM      6  C   LIG A   1      -6.731  -2.365 125.372  0.00  0.00    -0.003 C 
ATOM      7  C   LIG A   1      -5.752  -3.443 124.825  0.00  0.00    +0.016 C 
ATOM      8  C   LIG A   1      -8.204  -2.768 124.951  0.00  0.00    +0.016 C 
ATOM      9  C   LIG A   1      -9.223  -2.542 126.084  0.00  0.00    +0.010 C 
ATOM     10  C   LIG A   1      -8.803  -3.274 127.345  0.00  0.00    +0.036 C 
ATOM     11  C   LIG A   1      -7.472  -2.772 127.816  0.00  0.00    -0.043 A 
ATOM     12  C   LIG A   1      -6.493  -2.333 126.902  0.00  0.00    -0.035 A 
ATOM     13  C   LIG A   1      -5.253  -1.906 127.426  0.00  0.00    +0.049 A 
ATOM     14  C   LIG A   1      -5.008  -1.913 128.798  0.00  0.00    +0.117 A 
ATOM     15  C   LIG A   1      -5.972  -2.352 129.687  0.00  0.00    +0.045 A 
ATOM     16  C   LIG A   1      -7.200  -2.787 129.197  0.00  0.00    +0.007 A 
ENDROOT
BRANCH   2  17
ATOM     17  C   LIG A   1      -9.570  -0.889 123.773  0.00  0.00    +0.311 C 
ATOM     18  O   LIG A   1      -9.661  -0.209 124.782  0.00  0.00    -0.250 OA
BRANCH  17  19
ATOM     19  O   LIG A   1     -10.299  -0.545 122.693  0.00  0.00    -0.480 OA
ATOM     20  H   LIG A   1     -11.124  -1.066 122.794  0.00  0.00    +0.295 HD
ENDBRANCH  17  19
ENDBRANCH   2  17
BRANCH  14  21
ATOM     21  O   LIG A   1      -3.812  -1.501 129.310  0.00  0.00    -0.507 OA
ATOM     22  H   LIG A   1      -3.103  -1.810 128.723  0.00  0.00    +0.292 HD
ENDBRANCH  14  21
TORSDOF 3
ENDMDL
MODEL 2
REMARK VINA RESULT:      -7.3      3.034      4.512
REMARK  Name = NuBBE_2363
REMARK  5 active torsions:
REMARK  status: ('A' for Active; 'I' for Inactive)
REMARK    1  A    between atoms: C_1  and  C_2
REMARK    2  A    between atoms: C_2  and  C_3
REMARK    3  A    between atoms: C_3  and  O_4
REMARK    4  A    between atoms: C_9  and  C_10
REMARK    5  A    between atoms: C_18  and  O_19
REMARK                            x       y       z     vdW  Elec       q    Type
REMARK                         _______ _______ _______ _____ _____    ______ ____
ROOT
ATOM      1  C   LIG A   1      -8.457  -3.448 125.704  0.00  0.00    +0.023 C 
ATOM      2  C   LIG A   1      -8.219  -2.390 124.594  0.00  0.00    +0.068 C 
ATOM      3  C   LIG A   1      -6.973  -2.849 123.810  0.00  0.00    +0.018 C 
ATOM      4  C   LIG A   1      -6.439  -1.830 122.809  0.00  0.00    +0.002 C 
ATOM      5  C   LIG A   1      -6.838  -0.383 123.092  0.00  0.00    +0.012 C 
ATOM      6  C   LIG A   1      -6.939  -0.033 124.595  0.00  0.00    -0.003 C 
ATOM      7  C   LIG A   1      -5.568  -0.271 125.289  0.00  0.00    +0.016 C 
ATOM      8  C   LIG A   1      -8.014  -0.979 125.274  0.00  0.00    +0.016 C 
ATOM      9  C   LIG A   1      -9.362  -0.270 125.502  0.00  0.00    +0.010 C 
ATOM     10  C   LIG A   1      -9.178   1.002 126.308  0.00  0.00    +0.036 C 
ATOM     11  C   LIG A   1      -8.276   1.951 125.578  0.00  0.00    -0.043 A 
ATOM     12  C   LIG A   1      -7.227   1.480 124.763  0.00  0.00    -0.035 A 
ATOM     13  C   LIG A   1      -6.403   2.440 124.137  0.00  0.00    +0.049 A 
ATOM     14  C   LIG A   1      -6.622   3.806 124.313  0.00  0.00    +0.117 A 
ATOM     15  C   LIG A   1      -7.649   4.258 125.121  0.00  0.00    +0.045 A 
ATOM     16  C   LIG A   1      -8.471   3.334 125.758  0.00  0.00    +0.007 A 
ENDROOT
BRANCH   2  17
ATOM     17  C   LIG A   1      -9.413  -2.427 123.623  0.00  0.00    +0.311 C 
ATOM     18  O   LIG A   1      -9.792  -1.527 122.892  0.00  0.00    -0.250 OA
BRANCH  17  19
ATOM     19  O   LIG A   1     -10.103  -3.585 123.636  0.00  0.00    -0.480 OA
ATOM     20  H   LIG A   1     -10.806  -3.444 122.966  0.00  0.00    +0.295 HD
ENDBRANCH  17  19
ENDBRANCH   2  17
BRANCH  14  21
ATOM     21  O   LIG A   1      -5.830   4.738 123.710  0.00  0.00    -0.507 OA
ATOM     22  H   LIG A   1      -5.067   4.911 124.284  0.00  0.00    +0.292 HD
ENDBRANCH  14  21
TORSDOF 3
ENDMDL
MODEL 3
REMARK VINA RESULT:      -7.1      2.681      3.959
REMARK  Name = NuBBE_2363
REMARK  5 active torsions:
REMARK  status: ('A' for Active; 'I' for Inactive)
REMARK    1  A    between atoms: C_1  and  C_2
REMARK    2  A    between atoms: C_2  and  C_3
REMARK    3  A    between atoms: C_3  and  O_4
REMARK    4  A    between atoms: C_9  and  C_10
REMARK    5  A    between atoms: C_18  and  O_19
REMARK                            x       y       z     vdW  Elec       q    Type
REMARK                         _______ _______ _______ _____ _____    ______ ____
ROOT
ATOM      1  C   LIG A   1      -6.450   2.341 122.563  0.00  0.00    +0.023 C 
ATOM      2  C   LIG A   1      -7.014   2.125 123.992  0.00  0.00    +0.068 C 
ATOM      3  C   LIG A   1      -5.994   2.748 124.966  0.00  0.00    +0.018 C 
ATOM      4  C   LIG A   1      -6.256   2.451 126.439  0.00  0.00    +0.002 C 
ATOM      5  C   LIG A   1      -7.102   1.206 126.701  0.00  0.00    +0.012 C 
ATOM      6  C   LIG A   1      -6.873   0.056 125.693  0.00  0.00    -0.003 C 
ATOM      7  C   LIG A   1      -5.384  -0.391 125.727  0.00  0.00    +0.016 C 
ATOM      8  C   LIG A   1      -7.206   0.575 124.234  0.00  0.00    +0.016 C 
ATOM      9  C   LIG A   1      -8.585   0.100 123.740  0.00  0.00    +0.010 C 
ATOM     10  C   LIG A   1      -8.699  -1.411 123.814  0.00  0.00    +0.036 C 
ATOM     11  C   LIG A   1      -8.531  -1.874 125.230  0.00  0.00    -0.043 A 
ATOM     12  C   LIG A   1      -7.686  -1.190 126.126  0.00  0.00    -0.035 A 
ATOM     13  C   LIG A   1      -7.558  -1.710 127.432  0.00  0.00    +0.049 A 
ATOM     14  C   LIG A   1      -8.249  -2.856 127.824  0.00  0.00    +0.117 A 
ATOM     15  C   LIG A   1      -9.072  -3.524 126.935  0.00  0.00    +0.045 A 
ATOM     16  C   LIG A   1      -9.208  -3.039 125.638  0.00  0.00    +0.007 A 
ENDROOT
BRANCH   2  17
ATOM     17  C   LIG A   1      -8.323   2.925 124.123  0.00  0.00    +0.311 C 
ATOM     18  O   LIG A   1      -9.051   2.985 125.101  0.00  0.00    -0.250 OA
BRANCH  17  19
ATOM     19  O   LIG A   1      -8.683   3.588 123.007  0.00  0.00    -0.480 OA
ATOM     20  H   LIG A   1      -9.508   3.139 122.724  0.00  0.00    +0.295 HD
ENDBRANCH  17  19
ENDBRANCH   2  17
BRANCH  14  21
ATOM     21  O   LIG A   1      -8.131  -3.363 129.085  0.00  0.00    -0.507 OA
ATOM     22  H   LIG A   1      -7.729  -2.685 129.652  0.00  0.00    +0.292 HD
ENDBRANCH  14  21
TORSDOF 3
ENDMDL
MODEL 4
REMARK VINA RESULT:      -6.8      1.949      5.884
REMARK  Name = NuBBE_2363
REMARK  5 active torsions:
REMARK  status: ('A' for Active; 'I' for Inactive)
REMARK    1  A    between atoms: C_1  and  C_2
REMARK    2  A    between atoms: C_2  and  C_3
REMARK    3  A    between atoms: C_3  and  O_4
REMARK    4  A    between atoms: C_9  and  C_10
REMARK    5  A    between atoms: C_18  and  O_19
REMARK                            x       y       z     vdW  Elec       q    Type
REMARK                         _______ _______ _______ _____ _____    ______ ____
ROOT
ATOM      1  C   LIG A   1      -7.794  -1.982 131.612  0.00  0.00    +0.023 C 
ATOM      2  C   LIG A   1      -6.799  -2.190 130.440  0.00  0.00    +0.068 C 
ATOM      3  C   LIG A   1      -5.816  -1.002 130.482  0.00  0.00    +0.018 C 
ATOM      4  C   LIG A   1      -4.886  -0.903 129.277  0.00  0.00    +0.002 C 
ATOM      5  C   LIG A   1      -5.389  -1.608 128.019  0.00  0.00    +0.012 C 
ATOM      6  C   LIG A   1      -6.924  -1.566 127.835  0.00  0.00    -0.003 C 
ATOM      7  C   LIG A   1      -7.408  -0.090 127.755  0.00  0.00    +0.016 C 
ATOM      8  C   LIG A   1      -7.612  -2.250 129.087  0.00  0.00    +0.016 C 
ATOM      9  C   LIG A   1      -8.090  -3.683 128.787  0.00  0.00    +0.010 C 
ATOM     10  C   LIG A   1      -9.014  -3.707 127.584  0.00  0.00    +0.036 C 
ATOM     11  C   LIG A   1      -8.297  -3.196 126.371  0.00  0.00    -0.043 A 
ATOM     12  C   LIG A   1      -7.307  -2.199 126.474  0.00  0.00    -0.035 A 
ATOM     13  C   LIG A   1      -6.703  -1.749 125.279  0.00  0.00    +0.049 A 
ATOM     14  C   LIG A   1      -7.068  -2.278 124.042  0.00  0.00    +0.117 A 
ATOM     15  C   LIG A   1      -8.046  -3.252 123.950  0.00  0.00    +0.045 A 
ATOM     16  C   LIG A   1      -8.664  -3.706 125.111  0.00  0.00    +0.007 A 
ENDROOT
BRANCH   2  17
ATOM     17  C   LIG A   1      -5.985  -3.469 130.715  0.00  0.00    +0.311 C 
ATOM     18  O   LIG A   1      -5.225  -4.034 129.946  0.00  0.00    -0.250 OA
BRANCH  17  19
ATOM     19  O   LIG A   1      -6.190  -4.005 131.934  0.00  0.00    -0.480 OA
ATOM     20  H   LIG A   1      -5.409  -4.584 132.068  0.00  0.00    +0.295 HD
ENDBRANCH  17  19
ENDBRANCH   2  17
BRANCH  14  21
ATOM     21  O   LIG A   1      -6.487  -1.849 122.885  0.00  0.00    -0.507 OA
ATOM     22  H   LIG A   1      -7.078  -2.065 122.146  0.00  0.00    +0.292 HD
ENDBRANCH  14  21
TORSDOF 3
ENDMDL
MODEL 5
REMARK VINA RESULT:      -6.8      2.609      3.395
REMARK  Name = NuBBE_2363
REMARK  5 active torsions:
REMARK  status: ('A' for Active; 'I' for Inactive)
REMARK    1  A    between atoms: C_1  and  C_2
REMARK    2  A    between atoms: C_2  and  C_3
REMARK    3  A    between atoms: C_3  and  O_4
REMARK    4  A    between atoms: C_9  and  C_10
REMARK    5  A    between atoms: C_18  and  O_19
REMARK                            x       y       z     vdW  Elec       q    Type
REMARK                         _______ _______ _______ _____ _____    ______ ____
ROOT
ATOM      1  C   LIG A   1      -9.685  -3.324 125.707  0.00  0.00    +0.023 C 
ATOM      2  C   LIG A   1      -8.514  -2.580 125.013  0.00  0.00    +0.068 C 
ATOM      3  C   LIG A   1      -7.396  -3.620 124.800  0.00  0.00    +0.018 C 
ATOM      4  C   LIG A   1      -6.068  -3.040 124.325  0.00  0.00    +0.002 C 
ATOM      5  C   LIG A   1      -5.867  -1.558 124.638  0.00  0.00    +0.012 C 
ATOM      6  C   LIG A   1      -6.495  -1.099 125.974  0.00  0.00    -0.003 C 
ATOM      7  C   LIG A   1      -5.878  -1.902 127.155  0.00  0.00    +0.016 C 
ATOM      8  C   LIG A   1      -8.053  -1.384 125.937  0.00  0.00    +0.016 C 
ATOM      9  C   LIG A   1      -8.878  -0.114 125.657  0.00  0.00    +0.010 C 
ATOM     10  C   LIG A   1      -8.553   0.978 126.660  0.00  0.00    +0.036 C 
ATOM     11  C   LIG A   1      -7.102   1.342 126.576  0.00  0.00    -0.043 A 
ATOM     12  C   LIG A   1      -6.126   0.381 126.246  0.00  0.00    -0.035 A 
ATOM     13  C   LIG A   1      -4.777   0.799 126.220  0.00  0.00    +0.049 A 
ATOM     14  C   LIG A   1      -4.424   2.117 126.505  0.00  0.00    +0.117 A 
ATOM     15  C   LIG A   1      -5.389   3.052 126.836  0.00  0.00    +0.045 A 
ATOM     16  C   LIG A   1      -6.725   2.664 126.878  0.00  0.00    +0.007 A 
ENDROOT
BRANCH   2  17
ATOM     17  C   LIG A   1      -8.987  -2.122 123.621  0.00  0.00    +0.311 C 
ATOM     18  O   LIG A   1      -8.428  -1.331 122.879  0.00  0.00    -0.250 OA
BRANCH  17  19
ATOM     19  O   LIG A   1     -10.165  -2.651 123.234  0.00  0.00    -0.480 OA
ATOM     20  H   LIG A   1     -10.204  -2.453 122.274  0.00  0.00    +0.295 HD
ENDBRANCH  17  19
ENDBRANCH   2  17
BRANCH  14  21
ATOM     21  O   LIG A   1      -3.124   2.528 126.481  0.00  0.00    -0.507 OA
ATOM     22  H   LIG A   1      -2.736   2.372 127.357  0.00  0.00    +0.292 HD
ENDBRANCH  14  21
TORSDOF 3
ENDMDL
MODEL 6
REMARK VINA RESULT:      -6.8      2.395      2.869
REMARK  Name = NuBBE_2363
REMARK  5 active torsions:
REMARK  status: ('A' for Active; 'I' for Inactive)
REMARK    1  A    between atoms: C_1  and  C_2
REMARK    2  A    between atoms: C_2  and  C_3
REMARK    3  A    between atoms: C_3  and  O_4
REMARK    4  A    between atoms: C_9  and  C_10
REMARK    5  A    between atoms: C_18  and  O_19
REMARK                            x       y       z     vdW  Elec       q    Type
REMARK                         _______ _______ _______ _____ _____    ______ ____
ROOT
ATOM      1  C   LIG A   1      -7.192  -3.847 124.443  0.00  0.00    +0.023 C 
ATOM      2  C   LIG A   1      -7.955  -2.656 125.082  0.00  0.00    +0.068 C 
ATOM      3  C   LIG A   1      -7.637  -1.418 124.219  0.00  0.00    +0.018 C 
ATOM      4  C   LIG A   1      -8.118  -0.094 124.804  0.00  0.00    +0.002 C 
ATOM      5  C   LIG A   1      -8.335  -0.102 126.316  0.00  0.00    +0.012 C 
ATOM      6  C   LIG A   1      -7.344  -0.996 127.097  0.00  0.00    -0.003 C 
ATOM      7  C   LIG A   1      -5.886  -0.513 126.849  0.00  0.00    +0.016 C 
ATOM      8  C   LIG A   1      -7.472  -2.486 126.576  0.00  0.00    +0.016 C 
ATOM      9  C   LIG A   1      -8.291  -3.375 127.531  0.00  0.00    +0.010 C 
ATOM     10  C   LIG A   1      -7.715  -3.342 128.934  0.00  0.00    +0.036 C 
ATOM     11  C   LIG A   1      -7.740  -1.942 129.471  0.00  0.00    -0.043 A 
ATOM     12  C   LIG A   1      -7.578  -0.831 128.620  0.00  0.00    -0.035 A 
ATOM     13  C   LIG A   1      -7.582   0.452 129.210  0.00  0.00    +0.049 A 
ATOM     14  C   LIG A   1      -7.747   0.614 130.584  0.00  0.00    +0.117 A 
ATOM     15  C   LIG A   1      -7.899  -0.484 131.413  0.00  0.00    +0.045 A 
ATOM     16  C   LIG A   1      -7.889  -1.760 130.858  0.00  0.00    +0.007 A 
ENDROOT
BRANCH   2  17
ATOM     17  C   LIG A   1      -9.466  -2.926 124.960  0.00  0.00    +0.311 C 
ATOM     18  O   LIG A   1     -10.301  -2.836 125.845  0.00  0.00    -0.250 OA
BRANCH  17  19
ATOM     19  O   LIG A   1      -9.860  -3.333 123.737  0.00  0.00    -0.480 OA
ATOM     20  H   LIG A   1      -9.358  -4.164 123.596  0.00  0.00    +0.295 HD
ENDBRANCH  17  19
ENDBRANCH   2  17
BRANCH  14  21
ATOM     21  O   LIG A   1      -7.753   1.850 131.160  0.00  0.00    -0.507 OA
ATOM     22  H   LIG A   1      -7.701   1.741 132.123  0.00  0.00    +0.292 HD
ENDBRANCH  14  21
TORSDOF 3
ENDMDL
MODEL 7
REMARK VINA RESULT:      -6.7      3.022      5.372
REMARK  Name = NuBBE_2363
REMARK  5 active torsions:
REMARK  status: ('A' for Active; 'I' for Inactive)
REMARK    1  A    between atoms: C_1  and  C_2
REMARK    2  A    between atoms: C_2  and  C_3
REMARK    3  A    between atoms: C_3  and  O_4
REMARK    4  A    between atoms: C_9  and  C_10
REMARK    5  A    between atoms: C_18  and  O_19
REMARK                            x       y       z     vdW  Elec       q    Type
REMARK                         _______ _______ _______ _____ _____    ______ ____
ROOT
ATOM      1  C   LIG A   1      -9.107  -3.058 126.404  0.00  0.00    +0.023 C 
ATOM      2  C   LIG A   1      -7.903  -2.312 125.771  0.00  0.00    +0.068 C 
ATOM      3  C   LIG A   1      -6.850  -2.151 126.886  0.00  0.00    +0.018 C 
ATOM      4  C   LIG A   1      -5.675  -1.247 126.527  0.00  0.00    +0.002 C 
ATOM      5  C   LIG A   1      -5.953  -0.249 125.404  0.00  0.00    +0.012 C 
ATOM      6  C   LIG A   1      -7.401   0.294 125.380  0.00  0.00    -0.003 C 
ATOM      7  C   LIG A   1      -7.721   1.015 126.720  0.00  0.00    +0.016 C 
ATOM      8  C   LIG A   1      -8.405  -0.921 125.214  0.00  0.00    +0.016 C 
ATOM      9  C   LIG A   1      -8.933  -1.056 123.773  0.00  0.00    +0.010 C 
ATOM     10  C   LIG A   1      -9.571   0.238 123.304  0.00  0.00    +0.036 C 
ATOM     11  C   LIG A   1      -8.563   1.348 123.324  0.00  0.00    -0.043 A 
ATOM     12  C   LIG A   1      -7.534   1.382 124.285  0.00  0.00    -0.035 A 
ATOM     13  C   LIG A   1      -6.646   2.480 124.255  0.00  0.00    +0.049 A 
ATOM     14  C   LIG A   1      -6.779   3.491 123.304  0.00  0.00    +0.117 A 
ATOM     15  C   LIG A   1      -7.797   3.452 122.369  0.00  0.00    +0.045 A 
ATOM     16  C   LIG A   1      -8.692   2.387 122.383  0.00  0.00    +0.007 A 
ENDROOT
BRANCH   2  17
ATOM     17  C   LIG A   1      -7.289  -3.214 124.685  0.00  0.00    +0.311 C 
ATOM     18  O   LIG A   1      -6.367  -2.936 123.936  0.00  0.00    -0.250 OA
BRANCH  17  19
ATOM     19  O   LIG A   1      -7.883  -4.417 124.562  0.00  0.00    -0.480 OA
ATOM     20  H   LIG A   1      -7.754  -4.831 125.442  0.00  0.00    +0.295 HD
ENDBRANCH  17  19
ENDBRANCH   2  17
BRANCH  14  21
ATOM     21  O   LIG A   1      -5.924   4.553 123.269  0.00  0.00    -0.507 OA
ATOM     22  H   LIG A   1      -5.414   4.564 124.095  0.00  0.00    +0.292 HD
ENDBRANCH  14  21
TORSDOF 3
ENDMDL
MODEL 8
REMARK VINA RESULT:      -6.7      3.504      5.742
REMARK  Name = NuBBE_2363
REMARK  5 active torsions:
REMARK  status: ('A' for Active; 'I' for Inactive)
REMARK    1  A    between atoms: C_1  and  C_2
REMARK    2  A    between atoms: C_2  and  C_3
REMARK    3  A    between atoms: C_3  and  O_4
REMARK    4  A    between atoms: C_9  and  C_10
REMARK    5  A    between atoms: C_18  and  O_19
REMARK                            x       y       z     vdW  Elec       q    Type
REMARK                         _______ _______ _______ _____ _____    ______ ____
ROOT
ATOM      1  C   LIG A   1      -4.970   3.859 125.532  0.00  0.00    +0.023 C 
ATOM      2  C   LIG A   1      -6.380   3.284 125.830  0.00  0.00    +0.068 C 
ATOM      3  C   LIG A   1      -6.544   3.294 127.363  0.00  0.00    +0.018 C 
ATOM      4  C   LIG A   1      -7.782   2.565 127.876  0.00  0.00    +0.002 C 
ATOM      5  C   LIG A   1      -8.353   1.521 126.919  0.00  0.00    +0.012 C 
ATOM      6  C   LIG A   1      -7.288   0.774 126.082  0.00  0.00    -0.003 C 
ATOM      7  C   LIG A   1      -6.296   0.034 127.024  0.00  0.00    +0.016 C 
ATOM      8  C   LIG A   1      -6.473   1.828 125.226  0.00  0.00    +0.016 C 
ATOM      9  C   LIG A   1      -6.922   1.863 123.753  0.00  0.00    +0.010 C 
ATOM     10  C   LIG A   1      -6.844   0.483 123.127  0.00  0.00    +0.036 C 
ATOM     11  C   LIG A   1      -7.740  -0.469 123.860  0.00  0.00    -0.043 A 
ATOM     12  C   LIG A   1      -7.966  -0.339 125.244  0.00  0.00    -0.035 A 
ATOM     13  C   LIG A   1      -8.798  -1.297 125.865  0.00  0.00    +0.049 A 
ATOM     14  C   LIG A   1      -9.380  -2.330 125.132  0.00  0.00    +0.117 A 
ATOM     15  C   LIG A   1      -9.147  -2.453 123.774  0.00  0.00    +0.045 A 
ATOM     16  C   LIG A   1      -8.323  -1.529 123.140  0.00  0.00    +0.007 A 
ENDROOT
BRANCH   2  17
ATOM     17  C   LIG A   1      -7.430   4.250 125.249  0.00  0.00    +0.311 C 
ATOM     18  O   LIG A   1      -8.634   4.067 125.178  0.00  0.00    -0.250 OA
BRANCH  17  19
ATOM     19  O   LIG A   1      -6.917   5.391 124.748  0.00  0.00    -0.480 OA
ATOM     20  H   LIG A   1      -6.005   5.414 125.108  0.00  0.00    +0.295 HD
ENDBRANCH  17  19
ENDBRANCH   2  17
BRANCH  14  21
ATOM     21  O   LIG A   1     -10.186  -3.258 125.725  0.00  0.00    -0.507 OA
ATOM     22  H   LIG A   1     -10.958  -3.404 125.155  0.00  0.00    +0.292 HD
ENDBRANCH  14  21
TORSDOF 3
ENDMDL
MODEL 9
REMARK VINA RESULT:      -6.3      2.975      5.893
REMARK  Name = NuBBE_2363
REMARK  5 active torsions:
REMARK  status: ('A' for Active; 'I' for Inactive)
REMARK    1  A    between atoms: C_1  and  C_2
REMARK    2  A    between atoms: C_2  and  C_3
REMARK    3  A    between atoms: C_3  and  O_4
REMARK    4  A    between atoms: C_9  and  C_10
REMARK    5  A    between atoms: C_18  and  O_19
REMARK                            x       y       z     vdW  Elec       q    Type
REMARK                         _______ _______ _______ _____ _____    ______ ____
ROOT
ATOM      1  C   LIG A   1      -5.252  -2.490 127.929  0.00  0.00    +0.023 C 
ATOM      2  C   LIG A   1      -6.443  -1.586 127.515  0.00  0.00    +0.068 C 
ATOM      3  C   LIG A   1      -7.488  -2.509 126.857  0.00  0.00    +0.018 C 
ATOM      4  C   LIG A   1      -8.646  -1.781 126.183  0.00  0.00    +0.002 C 
ATOM      5  C   LIG A   1      -8.352  -0.335 125.789  0.00  0.00    +0.012 C 
ATOM      6  C   LIG A   1      -6.894  -0.080 125.342  0.00  0.00    -0.003 C 
ATOM      7  C   LIG A   1      -6.555  -0.966 124.109  0.00  0.00    +0.016 C 
ATOM      8  C   LIG A   1      -5.916  -0.474 126.524  0.00  0.00    +0.016 C 
ATOM      9  C   LIG A   1      -5.396   0.756 127.292  0.00  0.00    +0.010 C 
ATOM     10  C   LIG A   1      -4.734   1.745 126.352  0.00  0.00    +0.036 C 
ATOM     11  C   LIG A   1      -5.719   2.223 125.327  0.00  0.00    -0.043 A 
ATOM     12  C   LIG A   1      -6.743   1.382 124.852  0.00  0.00    -0.035 A 
ATOM     13  C   LIG A   1      -7.609   1.899 123.863  0.00  0.00    +0.049 A 
ATOM     14  C   LIG A   1      -7.460   3.198 123.380  0.00  0.00    +0.117 A 
ATOM     15  C   LIG A   1      -6.446   4.014 123.848  0.00  0.00    +0.045 A 
ATOM     16  C   LIG A   1      -5.573   3.526 124.815  0.00  0.00    +0.007 A 
ENDROOT
BRANCH   2  17
ATOM     17  C   LIG A   1      -7.079  -1.007 128.792  0.00  0.00    +0.311 C 
ATOM     18  O   LIG A   1      -7.834  -0.051 128.867  0.00  0.00    -0.250 OA
BRANCH  17  19
ATOM     19  O   LIG A   1      -6.712  -1.633 129.928  0.00  0.00    -0.480 OA
ATOM     20  H   LIG A   1      -5.797  -1.316 130.082  0.00  0.00    +0.295 HD
ENDBRANCH  17  19
ENDBRANCH   2  17
BRANCH  14  21
ATOM     21  O   LIG A   1      -8.294   3.703 122.426  0.00  0.00    -0.507 OA
ATOM     22  H   LIG A   1      -8.330   3.076 121.686  0.00  0.00    +0.292 HD
ENDBRANCH  14  21
TORSDOF 3
ENDMDL
