MODEL 1
REMARK VINA RESULT:      -7.6      0.000      0.000
REMARK  Name = NuBBE_853
REMARK  8 active torsions:
REMARK  status: ('A' for Active; 'I' for Inactive)
REMARK    1  A    between atoms: C_3  and  O_4
REMARK    2  A    between atoms: C_13  and  C_14
REMARK    3  A    between atoms: C_18  and  C_20
REMARK    4  A    between atoms: C_20  and  C_21
REMARK    5  A    between atoms: C_22  and  C_23
REMARK    6  A    between atoms: C_23  and  C_24
REMARK    7  A    between atoms: C_24  and  C_26
REMARK    8  A    between atoms: C_26  and  C_27
REMARK                            x       y       z     vdW  Elec       q    Type
REMARK                         _______ _______ _______ _____ _____    ______ ____
ROOT
ATOM      1  O   LIG A   1      -9.449   8.802 128.900  0.00  0.00    -0.289 OA
ATOM      2  C   LIG A   1     -10.158   7.962 129.418  0.00  0.00    +0.196 C 
ATOM      3  C   LIG A   1     -11.675   7.901 129.151  0.00  0.00    +0.154 C 
ATOM      4  C   LIG A   1     -12.385   7.583 130.446  0.00  0.00    +0.084 C 
ATOM      5  C   LIG A   1     -11.957   6.127 130.588  0.00  0.00    +0.187 C 
ATOM      6  O   LIG A   1     -12.173   5.571 129.271  0.00  0.00    -0.365 OA
ATOM      7  C   LIG A   1     -12.004   6.654 128.324  0.00  0.00    +0.203 C 
ATOM      8  C   LIG A   1      -9.596   6.913 130.337  0.00  0.00    +0.038 C 
ATOM      9  C   LIG A   1     -10.465   6.018 130.861  0.00  0.00    +0.134 C 
ATOM     10  O   LIG A   1     -10.080   4.949 131.676  0.00  0.00    -0.487 OA
ATOM     11  C   LIG A   1      -8.711   5.034 132.117  0.00  0.00    +0.111 C 
ATOM     12  C   LIG A   1      -8.692   5.954 133.355  0.00  0.00    +0.056 C 
ATOM     13  C   LIG A   1      -7.822   5.394 130.911  0.00  0.00    +0.044 C 
ATOM     14  C   LIG A   1      -8.102   6.826 130.493  0.00  0.00    +0.050 C 
ATOM     15  C   LIG A   1      -6.377   4.966 131.239  0.00  0.00    +0.022 C 
ATOM     16  C   LIG A   1      -6.578   4.001 132.448  0.00  0.00    +0.012 C 
ATOM     17  C   LIG A   1      -8.086   3.688 132.493  0.00  0.00    +0.049 C 
ENDROOT
BRANCH  15  18
ATOM     18  C   LIG A   1      -5.711   4.317 130.015  0.00  0.00    -0.073 C 
ATOM     19  C   LIG A   1      -6.630   3.820 128.915  0.00  0.00    +0.039 C 
ATOM     20  C   LIG A   1      -4.384   4.192 129.794  0.00  0.00    -0.026 C 
BRANCH  20  21
ATOM     21  C   LIG A   1      -3.189   4.548 130.645  0.00  0.00    +0.051 C 
BRANCH  21  22
ATOM     22  C   LIG A   1      -2.627   5.961 130.327  0.00  0.00    +0.109 C 
ATOM     23 CL   LIG A   1      -2.420   6.139 128.553  0.00  0.00    -0.117 Cl
BRANCH  22  24
ATOM     24  C   LIG A   1      -3.416   7.121 130.927  0.00  0.00    -0.062 C 
ATOM     25  C   LIG A   1      -4.316   7.946 130.048  0.00  0.00    +0.040 C 
ATOM     26  C   LIG A   1      -3.336   7.400 132.243  0.00  0.00    +0.009 C 
ENDBRANCH  22  24
ENDBRANCH  21  22
ENDBRANCH  20  21
ENDBRANCH  15  18
BRANCH   3  27
ATOM     27  O   LIG A   1     -12.163   9.086 128.549  0.00  0.00    -0.378 OA
ATOM     28  H   LIG A   1     -12.917   9.383 129.096  0.00  0.00    +0.211 HD
ENDBRANCH   3  27
TORSDOF 5
ENDMDL
MODEL 2
REMARK VINA RESULT:      -7.6      6.010      8.096
REMARK  Name = NuBBE_853
REMARK  8 active torsions:
REMARK  status: ('A' for Active; 'I' for Inactive)
REMARK    1  A    between atoms: C_3  and  O_4
REMARK    2  A    between atoms: C_13  and  C_14
REMARK    3  A    between atoms: C_18  and  C_20
REMARK    4  A    between atoms: C_20  and  C_21
REMARK    5  A    between atoms: C_22  and  C_23
REMARK    6  A    between atoms: C_23  and  C_24
REMARK    7  A    between atoms: C_24  and  C_26
REMARK    8  A    between atoms: C_26  and  C_27
REMARK                            x       y       z     vdW  Elec       q    Type
REMARK                         _______ _______ _______ _____ _____    ______ ____
ROOT
ATOM      1  O   LIG A   1      -8.615   2.729 127.914  0.00  0.00    -0.289 OA
ATOM      2  C   LIG A   1      -8.650   2.392 129.081  0.00  0.00    +0.196 C 
ATOM      3  C   LIG A   1      -9.257   3.297 130.171  0.00  0.00    +0.154 C 
ATOM      4  C   LIG A   1      -8.394   3.215 131.408  0.00  0.00    +0.084 C 
ATOM      5  C   LIG A   1      -8.749   1.797 131.839  0.00  0.00    +0.187 C 
ATOM      6  O   LIG A   1     -10.190   1.750 131.730  0.00  0.00    -0.365 OA
ATOM      7  C   LIG A   1     -10.563   2.681 130.685  0.00  0.00    +0.203 C 
ATOM      8  C   LIG A   1      -8.122   1.059 129.533  0.00  0.00    +0.038 C 
ATOM      9  C   LIG A   1      -8.210   0.773 130.853  0.00  0.00    +0.134 C 
ATOM     10  O   LIG A   1      -7.822  -0.451 131.408  0.00  0.00    -0.487 OA
ATOM     11  C   LIG A   1      -7.084  -1.283 130.493  0.00  0.00    +0.111 C 
ATOM     12  C   LIG A   1      -5.614  -0.820 130.547  0.00  0.00    +0.056 C 
ATOM     13  C   LIG A   1      -7.811  -1.292 129.134  0.00  0.00    +0.044 C 
ATOM     14  C   LIG A   1      -7.677   0.074 128.487  0.00  0.00    +0.050 C 
ATOM     15  C   LIG A   1      -7.360  -2.549 128.361  0.00  0.00    +0.022 C 
ATOM     16  C   LIG A   1      -6.714  -3.420 129.481  0.00  0.00    +0.012 C 
ATOM     17  C   LIG A   1      -7.142  -2.778 130.816  0.00  0.00    +0.049 C 
ENDROOT
BRANCH  15  18
ATOM     18  C   LIG A   1      -8.554  -3.209 127.654  0.00  0.00    -0.073 C 
ATOM     19  C   LIG A   1      -9.332  -4.247 128.441  0.00  0.00    +0.039 C 
ATOM     20  C   LIG A   1      -9.017  -2.919 126.418  0.00  0.00    -0.026 C 
BRANCH  20  21
ATOM     21  C   LIG A   1      -8.509  -1.975 125.355  0.00  0.00    +0.051 C 
BRANCH  21  22
ATOM     22  C   LIG A   1      -7.604  -2.683 124.308  0.00  0.00    +0.109 C 
ATOM     23 CL   LIG A   1      -8.062  -2.145 122.658  0.00  0.00    -0.117 Cl
BRANCH  22  24
ATOM     24  C   LIG A   1      -6.105  -2.550 124.555  0.00  0.00    -0.062 C 
ATOM     25  C   LIG A   1      -5.166  -3.607 124.039  0.00  0.00    +0.040 C 
ATOM     26  C   LIG A   1      -5.606  -1.482 125.210  0.00  0.00    +0.009 C 
ENDBRANCH  22  24
ENDBRANCH  21  22
ENDBRANCH  20  21
ENDBRANCH  15  18
BRANCH   3  27
ATOM     27  O   LIG A   1      -9.433   4.630 129.728  0.00  0.00    -0.378 OA
ATOM     28  H   LIG A   1     -10.084   4.595 128.999  0.00  0.00    +0.211 HD
ENDBRANCH   3  27
TORSDOF 5
ENDMDL
MODEL 3
REMARK VINA RESULT:      -7.3      2.096      2.620
REMARK  Name = NuBBE_853
REMARK  8 active torsions:
REMARK  status: ('A' for Active; 'I' for Inactive)
REMARK    1  A    between atoms: C_3  and  O_4
REMARK    2  A    between atoms: C_13  and  C_14
REMARK    3  A    between atoms: C_18  and  C_20
REMARK    4  A    between atoms: C_20  and  C_21
REMARK    5  A    between atoms: C_22  and  C_23
REMARK    6  A    between atoms: C_23  and  C_24
REMARK    7  A    between atoms: C_24  and  C_26
REMARK    8  A    between atoms: C_26  and  C_27
REMARK                            x       y       z     vdW  Elec       q    Type
REMARK                         _______ _______ _______ _____ _____    ______ ____
ROOT
ATOM      1  O   LIG A   1     -10.036   8.644 128.255  0.00  0.00    -0.289 OA
ATOM      2  C   LIG A   1     -10.786   8.106 129.046  0.00  0.00    +0.196 C 
ATOM      3  C   LIG A   1     -12.269   8.507 129.163  0.00  0.00    +0.154 C 
ATOM      4  C   LIG A   1     -12.656   8.515 130.624  0.00  0.00    +0.084 C 
ATOM      5  C   LIG A   1     -12.641   7.011 130.870  0.00  0.00    +0.187 C 
ATOM      6  O   LIG A   1     -13.360   6.466 129.740  0.00  0.00    -0.365 OA
ATOM      7  C   LIG A   1     -13.154   7.376 128.632  0.00  0.00    +0.203 C 
ATOM      8  C   LIG A   1     -10.317   6.996 129.945  0.00  0.00    +0.038 C 
ATOM      9  C   LIG A   1     -11.228   6.457 130.788  0.00  0.00    +0.134 C 
ATOM     10  O   LIG A   1     -10.955   5.377 131.635  0.00  0.00    -0.487 OA
ATOM     11  C   LIG A   1      -9.554   5.055 131.716  0.00  0.00    +0.111 C 
ATOM     12  C   LIG A   1      -8.934   6.002 132.764  0.00  0.00    +0.056 C 
ATOM     13  C   LIG A   1      -8.965   5.038 130.291  0.00  0.00    +0.044 C 
ATOM     14  C   LIG A   1      -8.928   6.454 129.748  0.00  0.00    +0.050 C 
ATOM     15  C   LIG A   1      -7.670   4.199 130.321  0.00  0.00    +0.022 C 
ATOM     16  C   LIG A   1      -7.800   3.428 131.671  0.00  0.00    +0.012 C 
ATOM     17  C   LIG A   1      -9.262   3.609 132.124  0.00  0.00    +0.049 C 
ENDROOT
BRANCH  15  18
ATOM     18  C   LIG A   1      -7.581   3.294 129.082  0.00  0.00    -0.073 C 
ATOM     19  C   LIG A   1      -8.706   2.298 128.874  0.00  0.00    +0.039 C 
ATOM     20  C   LIG A   1      -6.626   3.333 128.126  0.00  0.00    -0.026 C 
BRANCH  20  21
ATOM     21  C   LIG A   1      -5.371   4.162 127.998  0.00  0.00    +0.051 C 
BRANCH  21  22
ATOM     22  C   LIG A   1      -4.326   3.521 127.043  0.00  0.00    +0.109 C 
ATOM     23 CL   LIG A   1      -4.791   3.844 125.340  0.00  0.00    -0.117 Cl
BRANCH  22  24
ATOM     24  C   LIG A   1      -2.876   3.907 127.320  0.00  0.00    -0.062 C 
ATOM     25  C   LIG A   1      -1.760   3.056 126.777  0.00  0.00    +0.040 C 
ATOM     26  C   LIG A   1      -2.580   5.017 128.025  0.00  0.00    +0.009 C 
ENDBRANCH  22  24
ENDBRANCH  21  22
ENDBRANCH  20  21
ENDBRANCH  15  18
BRANCH   3  27
ATOM     27  O   LIG A   1     -12.544   9.743 128.530  0.00  0.00    -0.378 OA
ATOM     28  H   LIG A   1     -13.452   9.676 128.174  0.00  0.00    +0.211 HD
ENDBRANCH   3  27
TORSDOF 5
ENDMDL
MODEL 4
REMARK VINA RESULT:      -7.3      2.420      3.596
REMARK  Name = NuBBE_853
REMARK  8 active torsions:
REMARK  status: ('A' for Active; 'I' for Inactive)
REMARK    1  A    between atoms: C_3  and  O_4
REMARK    2  A    between atoms: C_13  and  C_14
REMARK    3  A    between atoms: C_18  and  C_20
REMARK    4  A    between atoms: C_20  and  C_21
REMARK    5  A    between atoms: C_22  and  C_23
REMARK    6  A    between atoms: C_23  and  C_24
REMARK    7  A    between atoms: C_24  and  C_26
REMARK    8  A    between atoms: C_26  and  C_27
REMARK                            x       y       z     vdW  Elec       q    Type
REMARK                         _______ _______ _______ _____ _____    ______ ____
ROOT
ATOM      1  O   LIG A   1      -6.987   7.240 130.771  0.00  0.00    -0.289 OA
ATOM      2  C   LIG A   1      -7.634   6.475 131.459  0.00  0.00    +0.196 C 
ATOM      3  C   LIG A   1      -9.094   6.114 131.122  0.00  0.00    +0.154 C 
ATOM      4  C   LIG A   1      -9.889   6.055 132.405  0.00  0.00    +0.084 C 
ATOM      5  C   LIG A   1      -9.296   4.774 132.981  0.00  0.00    +0.187 C 
ATOM      6  O   LIG A   1      -9.300   3.856 131.865  0.00  0.00    -0.365 OA
ATOM      7  C   LIG A   1      -9.172   4.654 130.663  0.00  0.00    +0.203 C 
ATOM      8  C   LIG A   1      -7.042   5.812 132.671  0.00  0.00    +0.038 C 
ATOM      9  C   LIG A   1      -7.840   4.972 133.370  0.00  0.00    +0.134 C 
ATOM     10  O   LIG A   1      -7.408   4.236 134.479  0.00  0.00    -0.487 OA
ATOM     11  C   LIG A   1      -6.115   4.643 134.965  0.00  0.00    +0.111 C 
ATOM     12  C   LIG A   1      -6.344   5.857 135.891  0.00  0.00    +0.056 C 
ATOM     13  C   LIG A   1      -5.158   4.794 133.767  0.00  0.00    +0.044 C 
ATOM     14  C   LIG A   1      -5.574   5.999 132.943  0.00  0.00    +0.050 C 
ATOM     15  C   LIG A   1      -3.712   4.696 134.297  0.00  0.00    +0.022 C 
ATOM     16  C   LIG A   1      -3.915   4.076 135.713  0.00  0.00    +0.012 C 
ATOM     17  C   LIG A   1      -5.367   3.562 135.748  0.00  0.00    +0.049 C 
ENDROOT
BRANCH  15  18
ATOM     18  C   LIG A   1      -2.845   3.848 133.353  0.00  0.00    -0.073 C 
ATOM     19  C   LIG A   1      -3.209   2.381 133.214  0.00  0.00    +0.039 C 
ATOM     20  C   LIG A   1      -1.821   4.289 132.590  0.00  0.00    -0.026 C 
BRANCH  20  21
ATOM     21  C   LIG A   1      -1.174   5.648 132.471  0.00  0.00    +0.051 C 
BRANCH  21  22
ATOM     22  C   LIG A   1      -1.750   6.485 131.295  0.00  0.00    +0.109 C 
ATOM     23 CL   LIG A   1      -2.575   5.396 130.131  0.00  0.00    -0.117 Cl
BRANCH  22  24
ATOM     24  C   LIG A   1      -2.639   7.654 131.709  0.00  0.00    -0.062 C 
ATOM     25  C   LIG A   1      -3.632   8.220 130.731  0.00  0.00    +0.040 C 
ATOM     26  C   LIG A   1      -2.563   8.171 132.951  0.00  0.00    +0.009 C 
ENDBRANCH  22  24
ENDBRANCH  21  22
ENDBRANCH  20  21
ENDBRANCH  15  18
BRANCH   3  27
ATOM     27  O   LIG A   1      -9.664   7.002 130.178  0.00  0.00    -0.378 OA
ATOM     28  H   LIG A   1      -9.901   7.813 130.671  0.00  0.00    +0.211 HD
ENDBRANCH   3  27
TORSDOF 5
ENDMDL
MODEL 5
REMARK VINA RESULT:      -7.3      5.842      8.291
REMARK  Name = NuBBE_853
REMARK  8 active torsions:
REMARK  status: ('A' for Active; 'I' for Inactive)
REMARK    1  A    between atoms: C_3  and  O_4
REMARK    2  A    between atoms: C_13  and  C_14
REMARK    3  A    between atoms: C_18  and  C_20
REMARK    4  A    between atoms: C_20  and  C_21
REMARK    5  A    between atoms: C_22  and  C_23
REMARK    6  A    between atoms: C_23  and  C_24
REMARK    7  A    between atoms: C_24  and  C_26
REMARK    8  A    between atoms: C_26  and  C_27
REMARK                            x       y       z     vdW  Elec       q    Type
REMARK                         _______ _______ _______ _____ _____    ______ ____
ROOT
ATOM      1  O   LIG A   1      -9.495   2.981 129.183  0.00  0.00    -0.289 OA
ATOM      2  C   LIG A   1      -8.797   2.673 130.129  0.00  0.00    +0.196 C 
ATOM      3  C   LIG A   1      -8.935   3.362 131.500  0.00  0.00    +0.154 C 
ATOM      4  C   LIG A   1      -7.556   3.578 132.077  0.00  0.00    +0.084 C 
ATOM      5  C   LIG A   1      -7.217   2.128 132.404  0.00  0.00    +0.187 C 
ATOM      6  O   LIG A   1      -8.408   1.630 133.054  0.00  0.00    -0.365 OA
ATOM      7  C   LIG A   1      -9.525   2.378 132.515  0.00  0.00    +0.203 C 
ATOM      8  C   LIG A   1      -7.769   1.581 130.027  0.00  0.00    +0.038 C 
ATOM      9  C   LIG A   1      -7.045   1.307 131.136  0.00  0.00    +0.134 C 
ATOM     10  O   LIG A   1      -6.101   0.277 131.210  0.00  0.00    -0.487 OA
ATOM     11  C   LIG A   1      -5.785  -0.300 129.929  0.00  0.00    +0.111 C 
ATOM     12  C   LIG A   1      -4.714   0.602 129.281  0.00  0.00    +0.056 C 
ATOM     13  C   LIG A   1      -7.097  -0.561 129.164  0.00  0.00    +0.044 C 
ATOM     14  C   LIG A   1      -7.715   0.765 128.763  0.00  0.00    +0.050 C 
ATOM     15  C   LIG A   1      -6.815  -1.628 128.085  0.00  0.00    +0.022 C 
ATOM     16  C   LIG A   1      -5.457  -2.232 128.555  0.00  0.00    +0.012 C 
ATOM     17  C   LIG A   1      -5.248  -1.732 129.998  0.00  0.00    +0.049 C 
ENDROOT
BRANCH  15  18
ATOM     18  C   LIG A   1      -7.968  -2.642 128.011  0.00  0.00    -0.073 C 
ATOM     19  C   LIG A   1      -8.233  -3.475 129.251  0.00  0.00    +0.039 C 
ATOM     20  C   LIG A   1      -8.806  -2.830 126.968  0.00  0.00    -0.026 C 
BRANCH  20  21
ATOM     21  C   LIG A   1      -8.847  -2.212 125.592  0.00  0.00    +0.051 C 
BRANCH  21  22
ATOM     22  C   LIG A   1      -8.333  -3.176 124.486  0.00  0.00    +0.109 C 
ATOM     23 CL   LIG A   1      -9.622  -3.427 123.263  0.00  0.00    -0.117 Cl
BRANCH  22  24
ATOM     24  C   LIG A   1      -7.008  -2.776 123.844  0.00  0.00    -0.062 C 
ATOM     25  C   LIG A   1      -7.006  -1.889 122.628  0.00  0.00    +0.040 C 
ATOM     26  C   LIG A   1      -5.837  -3.187 124.368  0.00  0.00    +0.009 C 
ENDBRANCH  22  24
ENDBRANCH  21  22
ENDBRANCH  20  21
ENDBRANCH  15  18
BRANCH   3  27
ATOM     27  O   LIG A   1      -9.679   4.564 131.426  0.00  0.00    -0.378 OA
ATOM     28  H   LIG A   1     -10.378   4.499 132.107  0.00  0.00    +0.211 HD
ENDBRANCH   3  27
TORSDOF 5
ENDMDL
MODEL 6
REMARK VINA RESULT:      -7.2      2.658      3.499
REMARK  Name = NuBBE_853
REMARK  8 active torsions:
REMARK  status: ('A' for Active; 'I' for Inactive)
REMARK    1  A    between atoms: C_3  and  O_4
REMARK    2  A    between atoms: C_13  and  C_14
REMARK    3  A    between atoms: C_18  and  C_20
REMARK    4  A    between atoms: C_20  and  C_21
REMARK    5  A    between atoms: C_22  and  C_23
REMARK    6  A    between atoms: C_23  and  C_24
REMARK    7  A    between atoms: C_24  and  C_26
REMARK    8  A    between atoms: C_26  and  C_27
REMARK                            x       y       z     vdW  Elec       q    Type
REMARK                         _______ _______ _______ _____ _____    ______ ____
ROOT
ATOM      1  O   LIG A   1      -9.486   6.087 127.579  0.00  0.00    -0.289 OA
ATOM      2  C   LIG A   1     -10.154   6.380 128.550  0.00  0.00    +0.196 C 
ATOM      3  C   LIG A   1     -11.388   7.298 128.443  0.00  0.00    +0.154 C 
ATOM      4  C   LIG A   1     -11.406   8.229 129.633  0.00  0.00    +0.084 C 
ATOM      5  C   LIG A   1     -11.771   7.213 130.709  0.00  0.00    +0.187 C 
ATOM      6  O   LIG A   1     -12.858   6.462 130.125  0.00  0.00    -0.365 OA
ATOM      7  C   LIG A   1     -12.661   6.483 128.690  0.00  0.00    +0.203 C 
ATOM      8  C   LIG A   1      -9.832   5.846 129.918  0.00  0.00    +0.038 C 
ATOM      9  C   LIG A   1     -10.639   6.225 130.937  0.00  0.00    +0.134 C 
ATOM     10  O   LIG A   1     -10.502   5.758 132.248  0.00  0.00    -0.487 OA
ATOM     11  C   LIG A   1      -9.275   5.037 132.472  0.00  0.00    +0.111 C 
ATOM     12  C   LIG A   1      -8.182   6.088 132.758  0.00  0.00    +0.056 C 
ATOM     13  C   LIG A   1      -9.064   4.044 131.313  0.00  0.00    +0.044 C 
ATOM     14  C   LIG A   1      -8.745   4.814 130.045  0.00  0.00    +0.050 C 
ATOM     15  C   LIG A   1      -8.098   2.943 131.799  0.00  0.00    +0.022 C 
ATOM     16  C   LIG A   1      -8.129   3.128 133.347  0.00  0.00    +0.012 C 
ATOM     17  C   LIG A   1      -9.329   4.050 133.640  0.00  0.00    +0.049 C 
ENDROOT
BRANCH  15  18
ATOM     18  C   LIG A   1      -8.565   1.560 131.318  0.00  0.00    -0.073 C 
ATOM     19  C   LIG A   1      -9.896   1.060 131.847  0.00  0.00    +0.039 C 
ATOM     20  C   LIG A   1      -7.934   0.765 130.426  0.00  0.00    -0.026 C 
BRANCH  20  21
ATOM     21  C   LIG A   1      -6.613   0.914 129.710  0.00  0.00    +0.051 C 
BRANCH  21  22
ATOM     22  C   LIG A   1      -6.754   1.626 128.336  0.00  0.00    +0.109 C 
ATOM     23 CL   LIG A   1      -8.471   1.589 127.815  0.00  0.00    -0.117 Cl
BRANCH  22  24
ATOM     24  C   LIG A   1      -6.171   3.035 128.276  0.00  0.00    -0.062 C 
ATOM     25  C   LIG A   1      -6.548   3.951 127.143  0.00  0.00    +0.040 C 
ATOM     26  C   LIG A   1      -5.339   3.478 129.239  0.00  0.00    +0.009 C 
ENDBRANCH  22  24
ENDBRANCH  21  22
ENDBRANCH  20  21
ENDBRANCH  15  18
BRANCH   3  27
ATOM     27  O   LIG A   1     -11.432   7.999 127.214  0.00  0.00    -0.378 OA
ATOM     28  H   LIG A   1     -10.636   7.730 126.713  0.00  0.00    +0.211 HD
ENDBRANCH   3  27
TORSDOF 5
ENDMDL
MODEL 7
REMARK VINA RESULT:      -7.0      3.487      6.862
REMARK  Name = NuBBE_853
REMARK  8 active torsions:
REMARK  status: ('A' for Active; 'I' for Inactive)
REMARK    1  A    between atoms: C_3  and  O_4
REMARK    2  A    between atoms: C_13  and  C_14
REMARK    3  A    between atoms: C_18  and  C_20
REMARK    4  A    between atoms: C_20  and  C_21
REMARK    5  A    between atoms: C_22  and  C_23
REMARK    6  A    between atoms: C_23  and  C_24
REMARK    7  A    between atoms: C_24  and  C_26
REMARK    8  A    between atoms: C_26  and  C_27
REMARK                            x       y       z     vdW  Elec       q    Type
REMARK                         _______ _______ _______ _____ _____    ______ ____
ROOT
ATOM      1  O   LIG A   1      -3.857   1.635 128.964  0.00  0.00    -0.289 OA
ATOM      2  C   LIG A   1      -4.167   2.540 128.214  0.00  0.00    +0.196 C 
ATOM      3  C   LIG A   1      -4.790   2.272 126.830  0.00  0.00    +0.154 C 
ATOM      4  C   LIG A   1      -4.200   3.242 125.834  0.00  0.00    +0.084 C 
ATOM      5  C   LIG A   1      -4.880   4.514 126.326  0.00  0.00    +0.187 C 
ATOM      6  O   LIG A   1      -6.260   4.123 126.508  0.00  0.00    -0.365 OA
ATOM      7  C   LIG A   1      -6.258   2.711 126.831  0.00  0.00    +0.203 C 
ATOM      8  C   LIG A   1      -3.983   3.981 128.599  0.00  0.00    +0.038 C 
ATOM      9  C   LIG A   1      -4.363   4.916 127.698  0.00  0.00    +0.134 C 
ATOM     10  O   LIG A   1      -4.313   6.293 127.942  0.00  0.00    -0.487 OA
ATOM     11  C   LIG A   1      -3.583   6.634 129.136  0.00  0.00    +0.111 C 
ATOM     12  C   LIG A   1      -2.088   6.671 128.756  0.00  0.00    +0.056 C 
ATOM     13  C   LIG A   1      -4.035   5.702 130.278  0.00  0.00    +0.044 C 
ATOM     14  C   LIG A   1      -3.539   4.296 130.002  0.00  0.00    +0.050 C 
ATOM     15  C   LIG A   1      -3.686   6.385 131.616  0.00  0.00    +0.022 C 
ATOM     16  C   LIG A   1      -3.427   7.861 131.185  0.00  0.00    +0.012 C 
ATOM     17  C   LIG A   1      -3.970   7.983 129.747  0.00  0.00    +0.049 C 
ENDROOT
BRANCH  15  18
ATOM     18  C   LIG A   1      -4.829   6.212 132.629  0.00  0.00    -0.073 C 
ATOM     19  C   LIG A   1      -4.443   5.815 134.042  0.00  0.00    +0.039 C 
ATOM     20  C   LIG A   1      -6.143   6.431 132.402  0.00  0.00    -0.026 C 
BRANCH  20  21
ATOM     21  C   LIG A   1      -6.892   6.814 131.149  0.00  0.00    +0.051 C 
BRANCH  21  22
ATOM     22  C   LIG A   1      -8.054   5.835 130.823  0.00  0.00    +0.109 C 
ATOM     23 CL   LIG A   1      -7.828   4.309 131.741  0.00  0.00    -0.117 Cl
BRANCH  22  24
ATOM     24  C   LIG A   1      -9.455   6.409 131.009  0.00  0.00    -0.062 C 
ATOM     25  C   LIG A   1     -10.047   7.292 129.944  0.00  0.00    +0.040 C 
ATOM     26  C   LIG A   1     -10.181   6.114 132.106  0.00  0.00    +0.009 C 
ENDBRANCH  22  24
ENDBRANCH  21  22
ENDBRANCH  20  21
ENDBRANCH  15  18
BRANCH   3  27
ATOM     27  O   LIG A   1      -4.636   0.925 126.422  0.00  0.00    -0.378 OA
ATOM     28  H   LIG A   1      -3.915   0.552 126.967  0.00  0.00    +0.211 HD
ENDBRANCH   3  27
TORSDOF 5
ENDMDL
MODEL 8
REMARK VINA RESULT:      -6.9      2.295      4.097
REMARK  Name = NuBBE_853
REMARK  8 active torsions:
REMARK  status: ('A' for Active; 'I' for Inactive)
REMARK    1  A    between atoms: C_3  and  O_4
REMARK    2  A    between atoms: C_13  and  C_14
REMARK    3  A    between atoms: C_18  and  C_20
REMARK    4  A    between atoms: C_20  and  C_21
REMARK    5  A    between atoms: C_22  and  C_23
REMARK    6  A    between atoms: C_23  and  C_24
REMARK    7  A    between atoms: C_24  and  C_26
REMARK    8  A    between atoms: C_26  and  C_27
REMARK                            x       y       z     vdW  Elec       q    Type
REMARK                         _______ _______ _______ _____ _____    ______ ____
ROOT
ATOM      1  O   LIG A   1      -8.985   6.453 133.186  0.00  0.00    -0.289 OA
ATOM      2  C   LIG A   1      -9.029   6.080 132.030  0.00  0.00    +0.196 C 
ATOM      3  C   LIG A   1     -10.356   6.004 131.250  0.00  0.00    +0.154 C 
ATOM      4  C   LIG A   1     -10.355   4.750 130.409  0.00  0.00    +0.084 C 
ATOM      5  C   LIG A   1      -9.319   5.173 129.373  0.00  0.00    +0.187 C 
ATOM      6  O   LIG A   1      -9.719   6.513 129.008  0.00  0.00    -0.365 OA
ATOM      7  C   LIG A   1     -10.378   7.085 130.164  0.00  0.00    +0.203 C 
ATOM      8  C   LIG A   1      -7.787   5.688 131.281  0.00  0.00    +0.038 C 
ATOM      9  C   LIG A   1      -7.938   5.291 129.996  0.00  0.00    +0.134 C 
ATOM     10  O   LIG A   1      -6.869   4.960 129.156  0.00  0.00    -0.487 OA
ATOM     11  C   LIG A   1      -5.614   4.835 129.852  0.00  0.00    +0.111 C 
ATOM     12  C   LIG A   1      -5.564   3.408 130.437  0.00  0.00    +0.056 C 
ATOM     13  C   LIG A   1      -5.454   6.034 130.807  0.00  0.00    +0.044 C 
ATOM     14  C   LIG A   1      -6.453   5.907 131.942  0.00  0.00    +0.050 C 
ATOM     15  C   LIG A   1      -3.953   6.191 131.127  0.00  0.00    +0.022 C 
ATOM     16  C   LIG A   1      -3.279   5.334 130.013  0.00  0.00    +0.012 C 
ATOM     17  C   LIG A   1      -4.381   5.051 128.972  0.00  0.00    +0.049 C 
ENDROOT
BRANCH  15  18
ATOM     18  C   LIG A   1      -3.547   7.673 131.118  0.00  0.00    -0.073 C 
ATOM     19  C   LIG A   1      -3.833   8.457 129.850  0.00  0.00    +0.039 C 
ATOM     20  C   LIG A   1      -3.010   8.366 132.146  0.00  0.00    -0.026 C 
BRANCH  20  21
ATOM     21  C   LIG A   1      -2.581   7.935 133.528  0.00  0.00    +0.051 C 
BRANCH  21  22
ATOM     22  C   LIG A   1      -1.097   8.282 133.830  0.00  0.00    +0.109 C 
ATOM     23 CL   LIG A   1      -0.028   7.369 132.715  0.00  0.00    -0.117 Cl
BRANCH  22  24
ATOM     24  C   LIG A   1      -0.771   9.773 133.839  0.00  0.00    -0.062 C 
ATOM     25  C   LIG A   1      -1.783  10.756 134.362  0.00  0.00    +0.040 C 
ATOM     26  C   LIG A   1       0.425  10.220 133.406  0.00  0.00    +0.009 C 
ENDBRANCH  22  24
ENDBRANCH  21  22
ENDBRANCH  20  21
ENDBRANCH  15  18
BRANCH   3  27
ATOM     27  O   LIG A   1     -11.485   6.078 132.101  0.00  0.00    -0.378 OA
ATOM     28  H   LIG A   1     -11.992   5.254 131.959  0.00  0.00    +0.211 HD
ENDBRANCH   3  27
TORSDOF 5
ENDMDL
MODEL 9
REMARK VINA RESULT:      -6.9      3.472      7.018
REMARK  Name = NuBBE_853
REMARK  8 active torsions:
REMARK  status: ('A' for Active; 'I' for Inactive)
REMARK    1  A    between atoms: C_3  and  O_4
REMARK    2  A    between atoms: C_13  and  C_14
REMARK    3  A    between atoms: C_18  and  C_20
REMARK    4  A    between atoms: C_20  and  C_21
REMARK    5  A    between atoms: C_22  and  C_23
REMARK    6  A    between atoms: C_23  and  C_24
REMARK    7  A    between atoms: C_24  and  C_26
REMARK    8  A    between atoms: C_26  and  C_27
REMARK                            x       y       z     vdW  Elec       q    Type
REMARK                         _______ _______ _______ _____ _____    ______ ____
ROOT
ATOM      1  O   LIG A   1      -5.793   4.949 126.738  0.00  0.00    -0.289 OA
ATOM      2  C   LIG A   1      -5.386   4.344 127.710  0.00  0.00    +0.196 C 
ATOM      3  C   LIG A   1      -3.882   4.113 127.953  0.00  0.00    +0.154 C 
ATOM      4  C   LIG A   1      -3.684   2.712 128.481  0.00  0.00    +0.084 C 
ATOM      5  C   LIG A   1      -4.276   2.909 129.872  0.00  0.00    +0.187 C 
ATOM      6  O   LIG A   1      -3.685   4.146 130.330  0.00  0.00    -0.365 OA
ATOM      7  C   LIG A   1      -3.419   4.946 129.153  0.00  0.00    +0.203 C 
ATOM      8  C   LIG A   1      -6.325   3.802 128.751  0.00  0.00    +0.038 C 
ATOM      9  C   LIG A   1      -5.775   3.148 129.801  0.00  0.00    +0.134 C 
ATOM     10  O   LIG A   1      -6.516   2.648 130.877  0.00  0.00    -0.487 OA
ATOM     11  C   LIG A   1      -7.938   2.666 130.646  0.00  0.00    +0.111 C 
ATOM     12  C   LIG A   1      -8.281   1.390 129.849  0.00  0.00    +0.056 C 
ATOM     13  C   LIG A   1      -8.330   4.036 130.059  0.00  0.00    +0.044 C 
ATOM     14  C   LIG A   1      -7.785   4.149 128.647  0.00  0.00    +0.050 C 
ATOM     15  C   LIG A   1      -9.836   4.250 130.314  0.00  0.00    +0.022 C 
ATOM     16  C   LIG A   1     -10.149   3.179 131.403  0.00  0.00    +0.012 C 
ATOM     17  C   LIG A   1      -8.783   2.691 131.923  0.00  0.00    +0.049 C 
ENDROOT
BRANCH  15  18
ATOM     18  C   LIG A   1     -10.112   5.698 130.752  0.00  0.00    -0.073 C 
ATOM     19  C   LIG A   1     -10.247   5.952 132.242  0.00  0.00    +0.039 C 
ATOM     20  C   LIG A   1     -10.192   6.779 129.946  0.00  0.00    -0.026 C 
BRANCH  20  21
ATOM     21  C   LIG A   1     -10.124   6.916 128.444  0.00  0.00    +0.051 C 
BRANCH  21  22
ATOM     22  C   LIG A   1     -11.048   8.043 127.903  0.00  0.00    +0.109 C 
ATOM     23 CL   LIG A   1     -11.151   7.928 126.116  0.00  0.00    -0.117 Cl
BRANCH  22  24
ATOM     24  C   LIG A   1     -12.428   8.114 128.550  0.00  0.00    -0.062 C 
ATOM     25  C   LIG A   1     -13.413   6.998 128.332  0.00  0.00    +0.040 C 
ATOM     26  C   LIG A   1     -12.767   9.154 129.338  0.00  0.00    +0.009 C 
ENDBRANCH  22  24
ENDBRANCH  21  22
ENDBRANCH  20  21
ENDBRANCH  15  18
BRANCH   3  27
ATOM     27  O   LIG A   1      -3.105   4.365 126.797  0.00  0.00    -0.378 OA
ATOM     28  H   LIG A   1      -2.198   4.553 127.109  0.00  0.00    +0.211 HD
ENDBRANCH   3  27
TORSDOF 5
ENDMDL
