MODEL 1
REMARK VINA RESULT:      -7.2      0.000      0.000
REMARK  Name = NuBBE_1862
REMARK  13 active torsions:
REMARK  status: ('A' for Active; 'I' for Inactive)
REMARK    1  A    between atoms: O_1  and  C_2
REMARK    2  A    between atoms: C_2  and  C_4
REMARK    3  A    between atoms: C_2  and  C_14
REMARK    4  A    between atoms: C_4  and  C_5
REMARK    5  A    between atoms: C_5  and  C_6
REMARK    6  A    between atoms: C_9  and  O_12
REMARK    7  A    between atoms: O_12  and  C_13
REMARK    8  A    between atoms: C_14  and  C_15
REMARK    9  A    between atoms: C_15  and  C_16
REMARK   10  A    between atoms: C_16  and  C_17
REMARK   11  A    between atoms: C_17  and  C_18
REMARK   12  A    between atoms: C_21  and  O_24
REMARK   13  A    between atoms: O_24  and  C_25
REMARK                            x       y       z     vdW  Elec       q    Type
REMARK                         _______ _______ _______ _____ _____    ______ ____
ROOT
ATOM      1  C   LIG A   1      -8.296  -0.545 122.902  0.00  0.00    +0.115 C 
ENDROOT
BRANCH   1   2
ATOM      2  O   LIG A   1      -9.590  -0.362 123.471  0.00  0.00    -0.392 OA
ATOM      3  H   LIG A   1      -9.735  -1.095 124.096  0.00  0.00    +0.210 HD
ENDBRANCH   1   2
BRANCH   1   4
ATOM      4  C   LIG A   1      -7.282   0.314 123.667  0.00  0.00    +0.036 C 
BRANCH   4   5
ATOM      5  C   LIG A   1      -7.656   1.796 123.804  0.00  0.00    +0.037 C 
BRANCH   5   6
ATOM      6  C   LIG A   1      -7.550   2.672 122.576  0.00  0.00    -0.047 A 
ATOM      7  C   LIG A   1      -8.664   3.126 121.869  0.00  0.00    +0.007 A 
ATOM      8  C   LIG A   1      -8.516   3.809 120.657  0.00  0.00    +0.046 A 
ATOM      9  C   LIG A   1      -7.244   4.057 120.134  0.00  0.00    +0.120 A 
ATOM     10  C   LIG A   1      -6.126   3.654 120.851  0.00  0.00    +0.046 A 
ATOM     11  C   LIG A   1      -6.273   2.951 122.053  0.00  0.00    +0.007 A 
BRANCH   9  12
ATOM     12  O   LIG A   1      -7.231   4.743 118.950  0.00  0.00    -0.495 OA
ATOM     13  C   LIG A   1      -6.007   5.400 118.636  0.00  0.00    +0.277 C 
ENDBRANCH   9  12
ENDBRANCH   5   6
ENDBRANCH   4   5
ENDBRANCH   1   4
BRANCH   1  14
ATOM     14  C   LIG A   1      -7.898  -2.024 123.012  0.00  0.00    +0.031 C 
BRANCH  14  15
ATOM     15  C   LIG A   1      -9.089  -2.947 123.278  0.00  0.00    +0.003 C 
BRANCH  15  16
ATOM     16  C   LIG A   1      -8.912  -3.694 124.604  0.00  0.00    +0.005 C 
BRANCH  16  17
ATOM     17  C   LIG A   1      -9.540  -2.920 125.765  0.00  0.00    +0.035 C 
BRANCH  17  18
ATOM     18  C   LIG A   1      -8.635  -2.829 126.969  0.00  0.00    -0.047 A 
ATOM     19  C   LIG A   1      -7.658  -1.830 127.045  0.00  0.00    +0.007 A 
ATOM     20  C   LIG A   1      -6.769  -1.778 128.121  0.00  0.00    +0.046 A 
ATOM     21  C   LIG A   1      -6.841  -2.734 129.133  0.00  0.00    +0.120 A 
ATOM     22  C   LIG A   1      -7.837  -3.710 129.086  0.00  0.00    +0.046 A 
ATOM     23  C   LIG A   1      -8.726  -3.764 128.008  0.00  0.00    +0.007 A 
BRANCH  21  24
ATOM     24  O   LIG A   1      -6.010  -2.782 130.220  0.00  0.00    -0.495 OA
ATOM     25  C   LIG A   1      -5.845  -4.077 130.790  0.00  0.00    +0.277 C 
ENDBRANCH  21  24
ENDBRANCH  17  18
ENDBRANCH  16  17
ENDBRANCH  15  16
ENDBRANCH  14  15
ENDBRANCH   1  14
TORSDOF 11
ENDMDL
MODEL 2
REMARK VINA RESULT:      -7.0      3.201      4.574
REMARK  Name = NuBBE_1862
REMARK  13 active torsions:
REMARK  status: ('A' for Active; 'I' for Inactive)
REMARK    1  A    between atoms: O_1  and  C_2
REMARK    2  A    between atoms: C_2  and  C_4
REMARK    3  A    between atoms: C_2  and  C_14
REMARK    4  A    between atoms: C_4  and  C_5
REMARK    5  A    between atoms: C_5  and  C_6
REMARK    6  A    between atoms: C_9  and  O_12
REMARK    7  A    between atoms: O_12  and  C_13
REMARK    8  A    between atoms: C_14  and  C_15
REMARK    9  A    between atoms: C_15  and  C_16
REMARK   10  A    between atoms: C_16  and  C_17
REMARK   11  A    between atoms: C_17  and  C_18
REMARK   12  A    between atoms: C_21  and  O_24
REMARK   13  A    between atoms: O_24  and  C_25
REMARK                            x       y       z     vdW  Elec       q    Type
REMARK                         _______ _______ _______ _____ _____    ______ ____
ROOT
ATOM      1  C   LIG A   1      -8.744  -3.296 123.417  0.00  0.00    +0.115 C 
ENDROOT
BRANCH   1   2
ATOM      2  O   LIG A   1     -10.151  -3.304 123.643  0.00  0.00    -0.392 OA
ATOM      3  H   LIG A   1     -10.308  -3.825 124.451  0.00  0.00    +0.210 HD
ENDBRANCH   1   2
BRANCH   1   4
ATOM      4  C   LIG A   1      -8.371  -2.054 122.597  0.00  0.00    +0.036 C 
BRANCH   4   5
ATOM      5  C   LIG A   1      -7.327  -1.135 123.247  0.00  0.00    +0.037 C 
BRANCH   5   6
ATOM      6  C   LIG A   1      -7.768   0.244 123.684  0.00  0.00    -0.047 A 
ATOM      7  C   LIG A   1      -6.923   1.352 123.668  0.00  0.00    +0.007 A 
ATOM      8  C   LIG A   1      -7.327   2.573 124.219  0.00  0.00    +0.046 A 
ATOM      9  C   LIG A   1      -8.595   2.705 124.793  0.00  0.00    +0.120 A 
ATOM     10  C   LIG A   1      -9.465   1.625 124.772  0.00  0.00    +0.046 A 
ATOM     11  C   LIG A   1      -9.053   0.397 124.240  0.00  0.00    +0.007 A 
BRANCH   9  12
ATOM     12  O   LIG A   1      -8.876   3.951 125.287  0.00  0.00    -0.495 OA
ATOM     13  C   LIG A   1      -7.753   4.809 125.460  0.00  0.00    +0.277 C 
ENDBRANCH   9  12
ENDBRANCH   5   6
ENDBRANCH   4   5
ENDBRANCH   1   4
BRANCH   1  14
ATOM     14  C   LIG A   1      -8.012  -3.254 124.767  0.00  0.00    +0.031 C 
BRANCH  14  15
ATOM     15  C   LIG A   1      -8.952  -3.008 125.949  0.00  0.00    +0.003 C 
BRANCH  15  16
ATOM     16  C   LIG A   1      -8.180  -2.455 127.151  0.00  0.00    +0.005 C 
BRANCH  16  17
ATOM     17  C   LIG A   1      -6.858  -1.819 126.716  0.00  0.00    +0.035 C 
BRANCH  17  18
ATOM     18  C   LIG A   1      -6.713  -0.390 127.179  0.00  0.00    -0.047 A 
ATOM     19  C   LIG A   1      -7.781   0.263 127.805  0.00  0.00    +0.007 A 
ATOM     20  C   LIG A   1      -7.682   1.605 128.175  0.00  0.00    +0.046 A 
ATOM     21  C   LIG A   1      -6.512   2.317 127.914  0.00  0.00    +0.120 A 
ATOM     22  C   LIG A   1      -5.428   1.665 127.327  0.00  0.00    +0.046 A 
ATOM     23  C   LIG A   1      -5.527   0.321 126.954  0.00  0.00    +0.007 A 
BRANCH  21  24
ATOM     24  O   LIG A   1      -6.319   3.637 128.221  0.00  0.00    -0.495 OA
ATOM     25  C   LIG A   1      -4.955   4.034 128.324  0.00  0.00    +0.277 C 
ENDBRANCH  21  24
ENDBRANCH  17  18
ENDBRANCH  16  17
ENDBRANCH  15  16
ENDBRANCH  14  15
ENDBRANCH   1  14
TORSDOF 11
ENDMDL
MODEL 3
REMARK VINA RESULT:      -6.8      2.887      4.581
REMARK  Name = NuBBE_1862
REMARK  13 active torsions:
REMARK  status: ('A' for Active; 'I' for Inactive)
REMARK    1  A    between atoms: O_1  and  C_2
REMARK    2  A    between atoms: C_2  and  C_4
REMARK    3  A    between atoms: C_2  and  C_14
REMARK    4  A    between atoms: C_4  and  C_5
REMARK    5  A    between atoms: C_5  and  C_6
REMARK    6  A    between atoms: C_9  and  O_12
REMARK    7  A    between atoms: O_12  and  C_13
REMARK    8  A    between atoms: C_14  and  C_15
REMARK    9  A    between atoms: C_15  and  C_16
REMARK   10  A    between atoms: C_16  and  C_17
REMARK   11  A    between atoms: C_17  and  C_18
REMARK   12  A    between atoms: C_21  and  O_24
REMARK   13  A    between atoms: O_24  and  C_25
REMARK                            x       y       z     vdW  Elec       q    Type
REMARK                         _______ _______ _______ _____ _____    ______ ____
ROOT
ATOM      1  C   LIG A   1      -9.952   0.295 122.463  0.00  0.00    +0.115 C 
ENDROOT
BRANCH   1   2
ATOM      2  O   LIG A   1     -11.341   0.493 122.710  0.00  0.00    -0.392 OA
ATOM      3  H   LIG A   1     -11.514   0.204 123.624  0.00  0.00    +0.210 HD
ENDBRANCH   1   2
BRANCH   1   4
ATOM      4  C   LIG A   1      -9.140   1.259 123.336  0.00  0.00    +0.036 C 
BRANCH   4   5
ATOM      5  C   LIG A   1      -9.469   1.215 124.835  0.00  0.00    +0.037 C 
BRANCH   5   6
ATOM      6  C   LIG A   1      -8.323   1.066 125.810  0.00  0.00    -0.047 A 
ATOM      7  C   LIG A   1      -8.503   1.018 127.192  0.00  0.00    +0.007 A 
ATOM      8  C   LIG A   1      -7.407   1.029 128.061  0.00  0.00    +0.046 A 
ATOM      9  C   LIG A   1      -6.104   1.080 127.556  0.00  0.00    +0.120 A 
ATOM     10  C   LIG A   1      -5.908   1.078 126.183  0.00  0.00    +0.046 A 
ATOM     11  C   LIG A   1      -7.006   1.090 125.313  0.00  0.00    +0.007 A 
BRANCH   9  12
ATOM     12  O   LIG A   1      -5.118   1.073 128.506  0.00  0.00    -0.495 OA
ATOM     13  C   LIG A   1      -4.468   2.322 128.723  0.00  0.00    +0.277 C 
ENDBRANCH   9  12
ENDBRANCH   5   6
ENDBRANCH   4   5
ENDBRANCH   1   4
BRANCH   1  14
ATOM     14  C   LIG A   1      -9.575  -1.152 122.815  0.00  0.00    +0.031 C 
BRANCH  14  15
ATOM     15  C   LIG A   1      -8.065  -1.399 122.798  0.00  0.00    +0.003 C 
BRANCH  15  16
ATOM     16  C   LIG A   1      -7.683  -2.504 123.786  0.00  0.00    +0.005 C 
BRANCH  16  17
ATOM     17  C   LIG A   1      -8.817  -2.779 124.776  0.00  0.00    +0.035 C 
BRANCH  17  18
ATOM     18  C   LIG A   1      -8.330  -2.948 126.195  0.00  0.00    -0.047 A 
ATOM     19  C   LIG A   1      -9.131  -3.591 127.146  0.00  0.00    +0.007 A 
ATOM     20  C   LIG A   1      -8.721  -3.692 128.477  0.00  0.00    +0.046 A 
ATOM     21  C   LIG A   1      -7.504  -3.140 128.877  0.00  0.00    +0.120 A 
ATOM     22  C   LIG A   1      -6.682  -2.532 127.929  0.00  0.00    +0.046 A 
ATOM     23  C   LIG A   1      -7.092  -2.428 126.596  0.00  0.00    +0.007 A 
BRANCH  21  24
ATOM     24  O   LIG A   1      -7.019  -3.170 130.156  0.00  0.00    -0.495 OA
ATOM     25  C   LIG A   1      -6.035  -4.170 130.399  0.00  0.00    +0.277 C 
ENDBRANCH  21  24
ENDBRANCH  17  18
ENDBRANCH  16  17
ENDBRANCH  15  16
ENDBRANCH  14  15
ENDBRANCH   1  14
TORSDOF 11
ENDMDL
MODEL 4
REMARK VINA RESULT:      -6.8      2.239      2.841
REMARK  Name = NuBBE_1862
REMARK  13 active torsions:
REMARK  status: ('A' for Active; 'I' for Inactive)
REMARK    1  A    between atoms: O_1  and  C_2
REMARK    2  A    between atoms: C_2  and  C_4
REMARK    3  A    between atoms: C_2  and  C_14
REMARK    4  A    between atoms: C_4  and  C_5
REMARK    5  A    between atoms: C_5  and  C_6
REMARK    6  A    between atoms: C_9  and  O_12
REMARK    7  A    between atoms: O_12  and  C_13
REMARK    8  A    between atoms: C_14  and  C_15
REMARK    9  A    between atoms: C_15  and  C_16
REMARK   10  A    between atoms: C_16  and  C_17
REMARK   11  A    between atoms: C_17  and  C_18
REMARK   12  A    between atoms: C_21  and  O_24
REMARK   13  A    between atoms: O_24  and  C_25
REMARK                            x       y       z     vdW  Elec       q    Type
REMARK                         _______ _______ _______ _____ _____    ______ ____
ROOT
ATOM      1  C   LIG A   1      -9.558  -0.150 122.612  0.00  0.00    +0.115 C 
ENDROOT
BRANCH   1   2
ATOM      2  O   LIG A   1     -10.898   0.321 122.500  0.00  0.00    -0.392 OA
ATOM      3  H   LIG A   1     -10.852   1.265 122.264  0.00  0.00    +0.210 HD
ENDBRANCH   1   2
BRANCH   1   4
ATOM      4  C   LIG A   1      -8.791   0.739 123.599  0.00  0.00    +0.036 C 
BRANCH   4   5
ATOM      5  C   LIG A   1      -9.016   2.248 123.426  0.00  0.00    +0.037 C 
BRANCH   5   6
ATOM      6  C   LIG A   1      -8.081   3.005 122.509  0.00  0.00    -0.047 A 
ATOM      7  C   LIG A   1      -8.448   3.428 121.231  0.00  0.00    +0.007 A 
ATOM      8  C   LIG A   1      -7.508   3.993 120.364  0.00  0.00    +0.046 A 
ATOM      9  C   LIG A   1      -6.178   4.151 120.766  0.00  0.00    +0.120 A 
ATOM     10  C   LIG A   1      -5.810   3.779 122.051  0.00  0.00    +0.046 A 
ATOM     11  C   LIG A   1      -6.745   3.194 122.912  0.00  0.00    +0.007 A 
BRANCH   9  12
ATOM     12  O   LIG A   1      -5.358   4.726 119.832  0.00  0.00    -0.495 OA
ATOM     13  C   LIG A   1      -6.020   5.452 118.801  0.00  0.00    +0.277 C 
ENDBRANCH   9  12
ENDBRANCH   5   6
ENDBRANCH   4   5
ENDBRANCH   1   4
BRANCH   1  14
ATOM     14  C   LIG A   1      -9.570  -1.595 123.131  0.00  0.00    +0.031 C 
BRANCH  14  15
ATOM     15  C   LIG A   1      -8.243  -2.324 122.904  0.00  0.00    +0.003 C 
BRANCH  15  16
ATOM     16  C   LIG A   1      -7.970  -3.320 124.033  0.00  0.00    +0.005 C 
BRANCH  16  17
ATOM     17  C   LIG A   1      -6.677  -2.976 124.776  0.00  0.00    +0.035 C 
BRANCH  17  18
ATOM     18  C   LIG A   1      -6.756  -1.665 125.518  0.00  0.00    -0.047 A 
ATOM     19  C   LIG A   1      -5.797  -0.668 125.297  0.00  0.00    +0.007 A 
ATOM     20  C   LIG A   1      -5.821   0.522 126.027  0.00  0.00    +0.046 A 
ATOM     21  C   LIG A   1      -6.801   0.727 126.997  0.00  0.00    +0.120 A 
ATOM     22  C   LIG A   1      -7.783  -0.243 127.196  0.00  0.00    +0.046 A 
ATOM     23  C   LIG A   1      -7.760  -1.436 126.468  0.00  0.00    +0.007 A 
BRANCH  21  24
ATOM     24  O   LIG A   1      -6.902   1.848 127.776  0.00  0.00    -0.495 OA
ATOM     25  C   LIG A   1      -7.759   2.861 127.259  0.00  0.00    +0.277 C 
ENDBRANCH  21  24
ENDBRANCH  17  18
ENDBRANCH  16  17
ENDBRANCH  15  16
ENDBRANCH  14  15
ENDBRANCH   1  14
TORSDOF 11
ENDMDL
MODEL 5
REMARK VINA RESULT:      -6.7      3.358      4.845
REMARK  Name = NuBBE_1862
REMARK  13 active torsions:
REMARK  status: ('A' for Active; 'I' for Inactive)
REMARK    1  A    between atoms: O_1  and  C_2
REMARK    2  A    between atoms: C_2  and  C_4
REMARK    3  A    between atoms: C_2  and  C_14
REMARK    4  A    between atoms: C_4  and  C_5
REMARK    5  A    between atoms: C_5  and  C_6
REMARK    6  A    between atoms: C_9  and  O_12
REMARK    7  A    between atoms: O_12  and  C_13
REMARK    8  A    between atoms: C_14  and  C_15
REMARK    9  A    between atoms: C_15  and  C_16
REMARK   10  A    between atoms: C_16  and  C_17
REMARK   11  A    between atoms: C_17  and  C_18
REMARK   12  A    between atoms: C_21  and  O_24
REMARK   13  A    between atoms: O_24  and  C_25
REMARK                            x       y       z     vdW  Elec       q    Type
REMARK                         _______ _______ _______ _____ _____    ______ ____
ROOT
ATOM      1  C   LIG A   1      -9.182  -3.534 124.629  0.00  0.00    +0.115 C 
ENDROOT
BRANCH   1   2
ATOM      2  O   LIG A   1      -9.882  -2.748 123.668  0.00  0.00    -0.392 OA
ATOM      3  H   LIG A   1      -9.552  -3.008 122.789  0.00  0.00    +0.210 HD
ENDBRANCH   1   2
BRANCH   1   4
ATOM      4  C   LIG A   1      -7.688  -3.542 124.283  0.00  0.00    +0.036 C 
BRANCH   4   5
ATOM      5  C   LIG A   1      -7.205  -2.344 123.454  0.00  0.00    +0.037 C 
BRANCH   5   6
ATOM      6  C   LIG A   1      -6.664  -1.140 124.192  0.00  0.00    -0.047 A 
ATOM      7  C   LIG A   1      -5.679  -1.232 125.175  0.00  0.00    +0.007 A 
ATOM      8  C   LIG A   1      -5.316  -0.115 125.935  0.00  0.00    +0.046 A 
ATOM      9  C   LIG A   1      -5.932   1.121 125.716  0.00  0.00    +0.120 A 
ATOM     10  C   LIG A   1      -6.878   1.238 124.708  0.00  0.00    +0.046 A 
ATOM     11  C   LIG A   1      -7.258   0.116 123.963  0.00  0.00    +0.007 A 
BRANCH   9  12
ATOM     12  O   LIG A   1      -5.481   2.138 126.514  0.00  0.00    -0.495 OA
ATOM     13  C   LIG A   1      -4.079   2.382 126.462  0.00  0.00    +0.277 C 
ENDBRANCH   9  12
ENDBRANCH   5   6
ENDBRANCH   4   5
ENDBRANCH   1   4
BRANCH   1  14
ATOM     14  C   LIG A   1      -9.379  -2.923 126.024  0.00  0.00    +0.031 C 
BRANCH  14  15
ATOM     15  C   LIG A   1      -8.167  -3.114 126.938  0.00  0.00    +0.003 C 
BRANCH  15  16
ATOM     16  C   LIG A   1      -8.604  -3.581 128.329  0.00  0.00    +0.005 C 
BRANCH  16  17
ATOM     17  C   LIG A   1      -8.143  -2.605 129.414  0.00  0.00    +0.035 C 
BRANCH  17  18
ATOM     18  C   LIG A   1      -7.236  -3.246 130.435  0.00  0.00    -0.047 A 
ATOM     19  C   LIG A   1      -6.303  -4.213 130.044  0.00  0.00    +0.007 A 
ATOM     20  C   LIG A   1      -5.506  -4.863 130.988  0.00  0.00    +0.046 A 
ATOM     21  C   LIG A   1      -5.640  -4.559 132.343  0.00  0.00    +0.120 A 
ATOM     22  C   LIG A   1      -6.538  -3.568 132.738  0.00  0.00    +0.046 A 
ATOM     23  C   LIG A   1      -7.338  -2.919 131.793  0.00  0.00    +0.007 A 
BRANCH  21  24
ATOM     24  O   LIG A   1      -4.921  -5.148 133.348  0.00  0.00    -0.495 OA
ATOM     25  C   LIG A   1      -5.702  -5.650 134.427  0.00  0.00    +0.277 C 
ENDBRANCH  21  24
ENDBRANCH  17  18
ENDBRANCH  16  17
ENDBRANCH  15  16
ENDBRANCH  14  15
ENDBRANCH   1  14
TORSDOF 11
ENDMDL
MODEL 6
REMARK VINA RESULT:      -6.7      2.774      3.889
REMARK  Name = NuBBE_1862
REMARK  13 active torsions:
REMARK  status: ('A' for Active; 'I' for Inactive)
REMARK    1  A    between atoms: O_1  and  C_2
REMARK    2  A    between atoms: C_2  and  C_4
REMARK    3  A    between atoms: C_2  and  C_14
REMARK    4  A    between atoms: C_4  and  C_5
REMARK    5  A    between atoms: C_5  and  C_6
REMARK    6  A    between atoms: C_9  and  O_12
REMARK    7  A    between atoms: O_12  and  C_13
REMARK    8  A    between atoms: C_14  and  C_15
REMARK    9  A    between atoms: C_15  and  C_16
REMARK   10  A    between atoms: C_16  and  C_17
REMARK   11  A    between atoms: C_17  and  C_18
REMARK   12  A    between atoms: C_21  and  O_24
REMARK   13  A    between atoms: O_24  and  C_25
REMARK                            x       y       z     vdW  Elec       q    Type
REMARK                         _______ _______ _______ _____ _____    ______ ____
ROOT
ATOM      1  C   LIG A   1      -8.596  -0.652 123.082  0.00  0.00    +0.115 C 
ENDROOT
BRANCH   1   2
ATOM      2  O   LIG A   1      -9.836  -0.534 123.773  0.00  0.00    -0.392 OA
ATOM      3  H   LIG A   1     -10.281   0.262 123.430  0.00  0.00    +0.210 HD
ENDBRANCH   1   2
BRANCH   1   4
ATOM      4  C   LIG A   1      -7.476  -0.065 123.950  0.00  0.00    +0.036 C 
BRANCH   4   5
ATOM      5  C   LIG A   1      -7.540   1.455 124.156  0.00  0.00    +0.037 C 
BRANCH   5   6
ATOM      6  C   LIG A   1      -6.417   2.116 124.924  0.00  0.00    -0.047 A 
ATOM      7  C   LIG A   1      -6.013   3.431 124.696  0.00  0.00    +0.007 A 
ATOM      8  C   LIG A   1      -4.877   3.953 125.323  0.00  0.00    +0.046 A 
ATOM      9  C   LIG A   1      -4.127   3.163 126.200  0.00  0.00    +0.120 A 
ATOM     10  C   LIG A   1      -4.545   1.869 126.473  0.00  0.00    +0.046 A 
ATOM     11  C   LIG A   1      -5.669   1.339 125.829  0.00  0.00    +0.007 A 
BRANCH   9  12
ATOM     12  O   LIG A   1      -3.046   3.791 126.759  0.00  0.00    -0.495 OA
ATOM     13  C   LIG A   1      -1.828   3.053 126.734  0.00  0.00    +0.277 C 
ENDBRANCH   9  12
ENDBRANCH   5   6
ENDBRANCH   4   5
ENDBRANCH   1   4
BRANCH   1  14
ATOM     14  C   LIG A   1      -8.306  -2.135 122.809  0.00  0.00    +0.031 C 
BRANCH  14  15
ATOM     15  C   LIG A   1      -9.332  -3.073 123.448  0.00  0.00    +0.003 C 
BRANCH  15  16
ATOM     16  C   LIG A   1      -8.746  -3.761 124.684  0.00  0.00    +0.005 C 
BRANCH  16  17
ATOM     17  C   LIG A   1      -9.338  -3.186 125.972  0.00  0.00    +0.035 C 
BRANCH  17  18
ATOM     18  C   LIG A   1      -8.309  -3.002 127.061  0.00  0.00    -0.047 A 
ATOM     19  C   LIG A   1      -8.529  -3.530 128.338  0.00  0.00    +0.007 A 
ATOM     20  C   LIG A   1      -7.616  -3.307 129.372  0.00  0.00    +0.046 A 
ATOM     21  C   LIG A   1      -6.473  -2.543 129.142  0.00  0.00    +0.120 A 
ATOM     22  C   LIG A   1      -6.225  -2.046 127.862  0.00  0.00    +0.046 A 
ATOM     23  C   LIG A   1      -7.139  -2.266 126.827  0.00  0.00    +0.007 A 
BRANCH  21  24
ATOM     24  O   LIG A   1      -5.527  -2.253 130.087  0.00  0.00    -0.495 OA
ATOM     25  C   LIG A   1      -4.641  -1.192 129.742  0.00  0.00    +0.277 C 
ENDBRANCH  21  24
ENDBRANCH  17  18
ENDBRANCH  16  17
ENDBRANCH  15  16
ENDBRANCH  14  15
ENDBRANCH   1  14
TORSDOF 11
ENDMDL
MODEL 7
REMARK VINA RESULT:      -6.6      1.218      8.799
REMARK  Name = NuBBE_1862
REMARK  13 active torsions:
REMARK  status: ('A' for Active; 'I' for Inactive)
REMARK    1  A    between atoms: O_1  and  C_2
REMARK    2  A    between atoms: C_2  and  C_4
REMARK    3  A    between atoms: C_2  and  C_14
REMARK    4  A    between atoms: C_4  and  C_5
REMARK    5  A    between atoms: C_5  and  C_6
REMARK    6  A    between atoms: C_9  and  O_12
REMARK    7  A    between atoms: O_12  and  C_13
REMARK    8  A    between atoms: C_14  and  C_15
REMARK    9  A    between atoms: C_15  and  C_16
REMARK   10  A    between atoms: C_16  and  C_17
REMARK   11  A    between atoms: C_17  and  C_18
REMARK   12  A    between atoms: C_21  and  O_24
REMARK   13  A    between atoms: O_24  and  C_25
REMARK                            x       y       z     vdW  Elec       q    Type
REMARK                         _______ _______ _______ _____ _____    ______ ____
ROOT
ATOM      1  C   LIG A   1      -8.945  -1.454 123.819  0.00  0.00    +0.115 C 
ENDROOT
BRANCH   1   2
ATOM      2  O   LIG A   1      -9.886  -1.355 122.754  0.00  0.00    -0.392 OA
ATOM      3  H   LIG A   1     -10.684  -1.839 123.029  0.00  0.00    +0.210 HD
ENDBRANCH   1   2
BRANCH   1   4
ATOM      4  C   LIG A   1      -8.945  -2.888 124.362  0.00  0.00    +0.036 C 
BRANCH   4   5
ATOM      5  C   LIG A   1      -9.476  -3.043 125.794  0.00  0.00    +0.037 C 
BRANCH   5   6
ATOM      6  C   LIG A   1      -8.469  -3.105 126.921  0.00  0.00    -0.047 A 
ATOM      7  C   LIG A   1      -8.759  -3.662 128.167  0.00  0.00    +0.007 A 
ATOM      8  C   LIG A   1      -7.850  -3.565 129.226  0.00  0.00    +0.046 A 
ATOM      9  C   LIG A   1      -6.626  -2.913 129.051  0.00  0.00    +0.120 A 
ATOM     10  C   LIG A   1      -6.304  -2.397 127.804  0.00  0.00    +0.046 A 
ATOM     11  C   LIG A   1      -7.222  -2.474 126.750  0.00  0.00    +0.007 A 
BRANCH   9  12
ATOM     12  O   LIG A   1      -5.819  -2.896 130.157  0.00  0.00    -0.495 OA
ATOM     13  C   LIG A   1      -5.488  -4.173 130.694  0.00  0.00    +0.277 C 
ENDBRANCH   9  12
ENDBRANCH   5   6
ENDBRANCH   4   5
ENDBRANCH   1   4
BRANCH   1  14
ATOM     14  C   LIG A   1      -7.544  -1.108 123.294  0.00  0.00    +0.031 C 
BRANCH  14  15
ATOM     15  C   LIG A   1      -6.993   0.198 123.872  0.00  0.00    +0.003 C 
BRANCH  15  16
ATOM     16  C   LIG A   1      -7.932   0.755 124.945  0.00  0.00    +0.005 C 
BRANCH  16  17
ATOM     17  C   LIG A   1      -8.507   2.112 124.530  0.00  0.00    +0.035 C 
BRANCH  17  18
ATOM     18  C   LIG A   1      -7.582   2.890 123.627  0.00  0.00    -0.047 A 
ATOM     19  C   LIG A   1      -7.805   2.926 122.246  0.00  0.00    +0.007 A 
ATOM     20  C   LIG A   1      -6.918   3.586 121.393  0.00  0.00    +0.046 A 
ATOM     21  C   LIG A   1      -5.786   4.212 121.913  0.00  0.00    +0.120 A 
ATOM     22  C   LIG A   1      -5.575   4.216 123.292  0.00  0.00    +0.046 A 
ATOM     23  C   LIG A   1      -6.462   3.554 124.146  0.00  0.00    +0.007 A 
BRANCH  21  24
ATOM     24  O   LIG A   1      -4.848   4.870 121.164  0.00  0.00    -0.495 OA
ATOM     25  C   LIG A   1      -5.270   5.222 119.851  0.00  0.00    +0.277 C 
ENDBRANCH  21  24
ENDBRANCH  17  18
ENDBRANCH  16  17
ENDBRANCH  15  16
ENDBRANCH  14  15
ENDBRANCH   1  14
TORSDOF 11
ENDMDL
MODEL 8
REMARK VINA RESULT:      -6.6      1.391      1.844
REMARK  Name = NuBBE_1862
REMARK  13 active torsions:
REMARK  status: ('A' for Active; 'I' for Inactive)
REMARK    1  A    between atoms: O_1  and  C_2
REMARK    2  A    between atoms: C_2  and  C_4
REMARK    3  A    between atoms: C_2  and  C_14
REMARK    4  A    between atoms: C_4  and  C_5
REMARK    5  A    between atoms: C_5  and  C_6
REMARK    6  A    between atoms: C_9  and  O_12
REMARK    7  A    between atoms: O_12  and  C_13
REMARK    8  A    between atoms: C_14  and  C_15
REMARK    9  A    between atoms: C_15  and  C_16
REMARK   10  A    between atoms: C_16  and  C_17
REMARK   11  A    between atoms: C_17  and  C_18
REMARK   12  A    between atoms: C_21  and  O_24
REMARK   13  A    between atoms: O_24  and  C_25
REMARK                            x       y       z     vdW  Elec       q    Type
REMARK                         _______ _______ _______ _____ _____    ______ ____
ROOT
ATOM      1  C   LIG A   1      -8.792  -1.064 122.733  0.00  0.00    +0.115 C 
ENDROOT
BRANCH   1   2
ATOM      2  O   LIG A   1     -10.176  -0.723 122.736  0.00  0.00    -0.392 OA
ATOM      3  H   LIG A   1     -10.677  -1.557 122.744  0.00  0.00    +0.210 HD
ENDBRANCH   1   2
BRANCH   1   4
ATOM      4  C   LIG A   1      -8.054  -0.192 123.756  0.00  0.00    +0.036 C 
BRANCH   4   5
ATOM      5  C   LIG A   1      -8.535   1.263 123.840  0.00  0.00    +0.037 C 
BRANCH   5   6
ATOM      6  C   LIG A   1      -8.035   2.238 122.797  0.00  0.00    -0.047 A 
ATOM      7  C   LIG A   1      -8.886   2.938 121.942  0.00  0.00    +0.007 A 
ATOM      8  C   LIG A   1      -8.375   3.714 120.897  0.00  0.00    +0.046 A 
ATOM      9  C   LIG A   1      -6.995   3.809 120.694  0.00  0.00    +0.120 A 
ATOM     10  C   LIG A   1      -6.135   3.157 121.567  0.00  0.00    +0.046 A 
ATOM     11  C   LIG A   1      -6.647   2.362 122.599  0.00  0.00    +0.007 A 
BRANCH   9  12
ATOM     12  O   LIG A   1      -6.620   4.608 119.648  0.00  0.00    -0.495 OA
ATOM     13  C   LIG A   1      -5.353   5.244 119.787  0.00  0.00    +0.277 C 
ENDBRANCH   9  12
ENDBRANCH   5   6
ENDBRANCH   4   5
ENDBRANCH   1   4
BRANCH   1  14
ATOM     14  C   LIG A   1      -8.633  -2.543 123.114  0.00  0.00    +0.031 C 
BRANCH  14  15
ATOM     15  C   LIG A   1      -9.237  -2.878 124.480  0.00  0.00    +0.003 C 
BRANCH  15  16
ATOM     16  C   LIG A   1      -8.171  -3.448 125.420  0.00  0.00    +0.005 C 
BRANCH  16  17
ATOM     17  C   LIG A   1      -8.763  -3.786 126.790  0.00  0.00    +0.035 C 
BRANCH  17  18
ATOM     18  C   LIG A   1      -8.252  -2.886 127.889  0.00  0.00    -0.047 A 
ATOM     19  C   LIG A   1      -8.120  -3.370 129.195  0.00  0.00    +0.007 A 
ATOM     20  C   LIG A   1      -7.714  -2.528 130.233  0.00  0.00    +0.046 A 
ATOM     21  C   LIG A   1      -7.445  -1.184 129.978  0.00  0.00    +0.120 A 
ATOM     22  C   LIG A   1      -7.536  -0.702 128.672  0.00  0.00    +0.046 A 
ATOM     23  C   LIG A   1      -7.944  -1.543 127.633  0.00  0.00    +0.007 A 
BRANCH  21  24
ATOM     24  O   LIG A   1      -7.058  -0.274 130.924  0.00  0.00    -0.495 OA
ATOM     25  C   LIG A   1      -8.121   0.478 131.501  0.00  0.00    +0.277 C 
ENDBRANCH  21  24
ENDBRANCH  17  18
ENDBRANCH  16  17
ENDBRANCH  15  16
ENDBRANCH  14  15
ENDBRANCH   1  14
TORSDOF 11
ENDMDL
MODEL 9
REMARK VINA RESULT:      -6.6      2.594      3.149
REMARK  Name = NuBBE_1862
REMARK  13 active torsions:
REMARK  status: ('A' for Active; 'I' for Inactive)
REMARK    1  A    between atoms: O_1  and  C_2
REMARK    2  A    between atoms: C_2  and  C_4
REMARK    3  A    between atoms: C_2  and  C_14
REMARK    4  A    between atoms: C_4  and  C_5
REMARK    5  A    between atoms: C_5  and  C_6
REMARK    6  A    between atoms: C_9  and  O_12
REMARK    7  A    between atoms: O_12  and  C_13
REMARK    8  A    between atoms: C_14  and  C_15
REMARK    9  A    between atoms: C_15  and  C_16
REMARK   10  A    between atoms: C_16  and  C_17
REMARK   11  A    between atoms: C_17  and  C_18
REMARK   12  A    between atoms: C_21  and  O_24
REMARK   13  A    between atoms: O_24  and  C_25
REMARK                            x       y       z     vdW  Elec       q    Type
REMARK                         _______ _______ _______ _____ _____    ______ ____
ROOT
ATOM      1  C   LIG A   1      -8.745  -3.231 123.319  0.00  0.00    +0.115 C 
ENDROOT
BRANCH   1   2
ATOM      2  O   LIG A   1     -10.134  -3.280 123.634  0.00  0.00    -0.392 OA
ATOM      3  H   LIG A   1     -10.584  -2.648 123.045  0.00  0.00    +0.210 HD
ENDBRANCH   1   2
BRANCH   1   4
ATOM      4  C   LIG A   1      -8.432  -1.903 122.620  0.00  0.00    +0.036 C 
BRANCH   4   5
ATOM      5  C   LIG A   1      -9.368  -0.741 122.980  0.00  0.00    +0.037 C 
BRANCH   5   6
ATOM      6  C   LIG A   1      -8.751   0.521 123.542  0.00  0.00    -0.047 A 
ATOM      7  C   LIG A   1      -9.505   1.547 124.110  0.00  0.00    +0.007 A 
ATOM      8  C   LIG A   1      -8.909   2.756 124.482  0.00  0.00    +0.046 A 
ATOM      9  C   LIG A   1      -7.538   2.956 124.298  0.00  0.00    +0.120 A 
ATOM     10  C   LIG A   1      -6.766   1.925 123.780  0.00  0.00    +0.046 A 
ATOM     11  C   LIG A   1      -7.366   0.723 123.387  0.00  0.00    +0.007 A 
BRANCH   9  12
ATOM     12  O   LIG A   1      -7.072   4.174 124.712  0.00  0.00    -0.495 OA
ATOM     13  C   LIG A   1      -5.659   4.271 124.862  0.00  0.00    +0.277 C 
ENDBRANCH   9  12
ENDBRANCH   5   6
ENDBRANCH   4   5
ENDBRANCH   1   4
BRANCH   1  14
ATOM     14  C   LIG A   1      -7.926  -3.331 124.614  0.00  0.00    +0.031 C 
BRANCH  14  15
ATOM     15  C   LIG A   1      -6.419  -3.198 124.382  0.00  0.00    +0.003 C 
BRANCH  15  16
ATOM     16  C   LIG A   1      -5.827  -2.104 125.274  0.00  0.00    +0.005 C 
BRANCH  16  17
ATOM     17  C   LIG A   1      -6.861  -1.583 126.275  0.00  0.00    +0.035 C 
BRANCH  17  18
ATOM     18  C   LIG A   1      -6.700  -2.181 127.651  0.00  0.00    -0.047 A 
ATOM     19  C   LIG A   1      -5.424  -2.430 128.170  0.00  0.00    +0.007 A 
ATOM     20  C   LIG A   1      -5.264  -3.046 129.413  0.00  0.00    +0.046 A 
ATOM     21  C   LIG A   1      -6.382  -3.432 130.151  0.00  0.00    +0.120 A 
ATOM     22  C   LIG A   1      -7.658  -3.153 129.660  0.00  0.00    +0.046 A 
ATOM     23  C   LIG A   1      -7.820  -2.538 128.415  0.00  0.00    +0.007 A 
BRANCH  21  24
ATOM     24  O   LIG A   1      -6.335  -4.055 131.368  0.00  0.00    -0.495 OA
ATOM     25  C   LIG A   1      -5.296  -5.020 131.506  0.00  0.00    +0.277 C 
ENDBRANCH  21  24
ENDBRANCH  17  18
ENDBRANCH  16  17
ENDBRANCH  15  16
ENDBRANCH  14  15
ENDBRANCH   1  14
TORSDOF 11
ENDMDL
