MODEL 1
REMARK VINA RESULT:      -6.6      0.000      0.000
REMARK  Name = NuBBE_930
REMARK  8 active torsions:
REMARK  status: ('A' for Active; 'I' for Inactive)
REMARK    1  A    between atoms: C_1  and  C_3
REMARK    2  A    between atoms: C_1  and  O_9
REMARK    3  A    between atoms: C_1  and  C_10
REMARK    4  A    between atoms: C_3  and  C_5
REMARK    5  A    between atoms: C_3  and  O_8
REMARK    6  A    between atoms: C_5  and  C_7
REMARK    7  A    between atoms: C_15  and  O_16
REMARK    8  A    between atoms: O_16  and  C_17
REMARK                            x       y       z     vdW  Elec       q    Type
REMARK                         _______ _______ _______ _____ _____    ______ ____
ROOT
ATOM      1  C   LIG A   1      -7.790   2.837 123.712  0.00  0.00    +0.068 A 
ATOM      2  C   LIG A   1      -6.991   3.408 122.696  0.00  0.00    +0.148 A 
ATOM      3  C   LIG A   1      -5.738   3.976 122.949  0.00  0.00    +0.018 A 
ATOM      4  C   LIG A   1      -5.247   3.976 124.249  0.00  0.00    +0.015 A 
ATOM      5  C   LIG A   1      -6.001   3.405 125.275  0.00  0.00    +0.047 A 
ATOM      6  C   LIG A   1      -7.262   2.839 125.020  0.00  0.00    +0.129 A 
ATOM      7  C   LIG A   1      -4.975   4.567 121.861  0.00  0.00    +0.018 A 
ATOM      8  C   LIG A   1      -5.479   4.576 120.626  0.00  0.00    +0.092 A 
ATOM      9  C   LIG A   1      -6.797   3.996 120.311  0.00  0.00    +0.337 A 
ATOM     10  O   LIG A   1      -7.245   4.038 119.178  0.00  0.00    -0.245 OA
ATOM     11  O   LIG A   1      -7.490   3.416 121.369  0.00  0.00    -0.422 OA
ENDROOT
BRANCH   6  12
ATOM     12  O   LIG A   1      -7.991   2.225 126.009  0.00  0.00    -0.495 OA
ATOM     13  C   LIG A   1      -7.231   1.481 126.960  0.00  0.00    +0.277 C 
ENDBRANCH   6  12
BRANCH   1  14
ATOM     14  C   LIG A   1      -9.167   2.275 123.369  0.00  0.00    +0.184 C 
BRANCH  14  15
ATOM     15  O   LIG A   1     -10.027   2.363 124.524  0.00  0.00    -0.384 OA
ATOM     16  H   LIG A   1     -10.918   2.593 124.217  0.00  0.00    +0.210 HD
ENDBRANCH  14  15
BRANCH  14  17
ATOM     17  C   LIG A   1      -9.194   0.816 122.807  0.00  0.00    +0.173 C 
BRANCH  17  18
ATOM     18  C   LIG A   1      -8.433  -0.215 123.619  0.00  0.00    -0.049 C 
ATOM     19  C   LIG A   1      -8.978  -0.883 124.651  0.00  0.00    +0.010 C 
ATOM     20  C   LIG A   1      -7.012  -0.502 123.215  0.00  0.00    +0.041 C 
ENDBRANCH  17  18
BRANCH  17  21
ATOM     21  O   LIG A   1     -10.534   0.359 122.577  0.00  0.00    -0.385 OA
ATOM     22  H   LIG A   1     -10.707  -0.334 123.244  0.00  0.00    +0.210 HD
ENDBRANCH  17  21
ENDBRANCH  14  17
ENDBRANCH   1  14
TORSDOF 6
ENDMDL
MODEL 2
REMARK VINA RESULT:      -6.4      1.790      4.555
REMARK  Name = NuBBE_930
REMARK  8 active torsions:
REMARK  status: ('A' for Active; 'I' for Inactive)
REMARK    1  A    between atoms: C_1  and  C_3
REMARK    2  A    between atoms: C_1  and  O_9
REMARK    3  A    between atoms: C_1  and  C_10
REMARK    4  A    between atoms: C_3  and  C_5
REMARK    5  A    between atoms: C_3  and  O_8
REMARK    6  A    between atoms: C_5  and  C_7
REMARK    7  A    between atoms: C_15  and  O_16
REMARK    8  A    between atoms: O_16  and  C_17
REMARK                            x       y       z     vdW  Elec       q    Type
REMARK                         _______ _______ _______ _____ _____    ______ ____
ROOT
ATOM      1  C   LIG A   1      -7.065   1.257 125.235  0.00  0.00    +0.068 A 
ATOM      2  C   LIG A   1      -7.519   0.152 124.481  0.00  0.00    +0.148 A 
ATOM      3  C   LIG A   1      -6.795  -1.040 124.373  0.00  0.00    +0.018 A 
ATOM      4  C   LIG A   1      -5.580  -1.153 125.037  0.00  0.00    +0.015 A 
ATOM      5  C   LIG A   1      -5.108  -0.089 125.806  0.00  0.00    +0.047 A 
ATOM      6  C   LIG A   1      -5.835   1.110 125.909  0.00  0.00    +0.129 A 
ATOM      7  C   LIG A   1      -7.309  -2.133 123.562  0.00  0.00    +0.018 A 
ATOM      8  C   LIG A   1      -8.466  -1.990 122.914  0.00  0.00    +0.092 A 
ATOM      9  C   LIG A   1      -9.263  -0.752 122.992  0.00  0.00    +0.337 A 
ATOM     10  O   LIG A   1     -10.306  -0.639 122.372  0.00  0.00    -0.245 OA
ATOM     11  O   LIG A   1      -8.756   0.264 123.796  0.00  0.00    -0.422 OA
ENDROOT
BRANCH   6  12
ATOM     12  O   LIG A   1      -5.410   2.146 126.705  0.00  0.00    -0.495 OA
ATOM     13  C   LIG A   1      -4.011   2.420 126.661  0.00  0.00    +0.277 C 
ENDBRANCH   6  12
BRANCH   1  14
ATOM     14  C   LIG A   1      -7.889   2.541 125.271  0.00  0.00    +0.184 C 
BRANCH  14  15
ATOM     15  O   LIG A   1      -9.252   2.231 125.628  0.00  0.00    -0.384 OA
ATOM     16  H   LIG A   1      -9.823   2.924 125.258  0.00  0.00    +0.210 HD
ENDBRANCH  14  15
BRANCH  14  17
ATOM     17  C   LIG A   1      -7.873   3.405 123.967  0.00  0.00    +0.173 C 
BRANCH  17  18
ATOM     18  C   LIG A   1      -6.547   3.462 123.233  0.00  0.00    -0.049 C 
ATOM     19  C   LIG A   1      -6.320   2.813 122.077  0.00  0.00    +0.010 C 
ATOM     20  C   LIG A   1      -5.459   4.310 123.836  0.00  0.00    +0.041 C 
ENDBRANCH  17  18
BRANCH  17  21
ATOM     21  O   LIG A   1      -8.913   3.016 123.058  0.00  0.00    -0.385 OA
ATOM     22  H   LIG A   1      -9.735   3.428 123.388  0.00  0.00    +0.210 HD
ENDBRANCH  17  21
ENDBRANCH  14  17
ENDBRANCH   1  14
TORSDOF 6
ENDMDL
MODEL 3
REMARK VINA RESULT:      -6.4      2.838      4.708
REMARK  Name = NuBBE_930
REMARK  8 active torsions:
REMARK  status: ('A' for Active; 'I' for Inactive)
REMARK    1  A    between atoms: C_1  and  C_3
REMARK    2  A    between atoms: C_1  and  O_9
REMARK    3  A    between atoms: C_1  and  C_10
REMARK    4  A    between atoms: C_3  and  C_5
REMARK    5  A    between atoms: C_3  and  O_8
REMARK    6  A    between atoms: C_5  and  C_7
REMARK    7  A    between atoms: C_15  and  O_16
REMARK    8  A    between atoms: O_16  and  C_17
REMARK                            x       y       z     vdW  Elec       q    Type
REMARK                         _______ _______ _______ _____ _____    ______ ____
ROOT
ATOM      1  C   LIG A   1      -8.524  -1.211 125.659  0.00  0.00    +0.068 A 
ATOM      2  C   LIG A   1      -8.484   0.168 125.350  0.00  0.00    +0.148 A 
ATOM      3  C   LIG A   1      -8.055   1.135 126.265  0.00  0.00    +0.018 A 
ATOM      4  C   LIG A   1      -7.645   0.733 127.530  0.00  0.00    +0.015 A 
ATOM      5  C   LIG A   1      -7.655  -0.622 127.864  0.00  0.00    +0.047 A 
ATOM      6  C   LIG A   1      -8.091  -1.592 126.945  0.00  0.00    +0.129 A 
ATOM      7  C   LIG A   1      -8.058   2.541 125.891  0.00  0.00    +0.018 A 
ATOM      8  C   LIG A   1      -8.481   2.904 124.679  0.00  0.00    +0.092 A 
ATOM      9  C   LIG A   1      -8.946   1.922 123.683  0.00  0.00    +0.337 A 
ATOM     10  O   LIG A   1      -9.349   2.282 122.590  0.00  0.00    -0.245 OA
ATOM     11  O   LIG A   1      -8.907   0.584 124.062  0.00  0.00    -0.422 OA
ENDROOT
BRANCH   6  12
ATOM     12  O   LIG A   1      -8.055  -2.933 127.240  0.00  0.00    -0.495 OA
ATOM     13  C   LIG A   1      -8.360  -3.273 128.592  0.00  0.00    +0.277 C 
ENDBRANCH   6  12
BRANCH   1  14
ATOM     14  C   LIG A   1      -9.045  -2.204 124.624  0.00  0.00    +0.184 C 
BRANCH  14  15
ATOM     15  O   LIG A   1     -10.079  -3.021 125.215  0.00  0.00    -0.384 OA
ATOM     16  H   LIG A   1      -9.712  -3.440 126.010  0.00  0.00    +0.210 HD
ENDBRANCH  14  15
BRANCH  14  17
ATOM     17  C   LIG A   1      -7.973  -3.124 123.953  0.00  0.00    +0.173 C 
BRANCH  17  18
ATOM     18  C   LIG A   1      -6.640  -2.467 123.650  0.00  0.00    -0.049 C 
ATOM     19  C   LIG A   1      -6.469  -1.586 122.647  0.00  0.00    +0.010 C 
ATOM     20  C   LIG A   1      -5.478  -2.814 124.541  0.00  0.00    +0.041 C 
ENDBRANCH  17  18
BRANCH  17  21
ATOM     21  O   LIG A   1      -7.759  -4.328 124.705  0.00  0.00    -0.385 OA
ATOM     22  H   LIG A   1      -7.868  -5.068 124.076  0.00  0.00    +0.210 HD
ENDBRANCH  17  21
ENDBRANCH  14  17
ENDBRANCH   1  14
TORSDOF 6
ENDMDL
MODEL 4
REMARK VINA RESULT:      -6.4      3.820      7.249
REMARK  Name = NuBBE_930
REMARK  8 active torsions:
REMARK  status: ('A' for Active; 'I' for Inactive)
REMARK    1  A    between atoms: C_1  and  C_3
REMARK    2  A    between atoms: C_1  and  O_9
REMARK    3  A    between atoms: C_1  and  C_10
REMARK    4  A    between atoms: C_3  and  C_5
REMARK    5  A    between atoms: C_3  and  O_8
REMARK    6  A    between atoms: C_5  and  C_7
REMARK    7  A    between atoms: C_15  and  O_16
REMARK    8  A    between atoms: O_16  and  C_17
REMARK                            x       y       z     vdW  Elec       q    Type
REMARK                         _______ _______ _______ _____ _____    ______ ____
ROOT
ATOM      1  C   LIG A   1      -8.601  -1.362 126.516  0.00  0.00    +0.068 A 
ATOM      2  C   LIG A   1      -8.085  -1.588 127.812  0.00  0.00    +0.148 A 
ATOM      3  C   LIG A   1      -8.169  -2.827 128.454  0.00  0.00    +0.018 A 
ATOM      4  C   LIG A   1      -8.779  -3.889 127.796  0.00  0.00    +0.015 A 
ATOM      5  C   LIG A   1      -9.285  -3.707 126.509  0.00  0.00    +0.047 A 
ATOM      6  C   LIG A   1      -9.204  -2.459 125.867  0.00  0.00    +0.129 A 
ATOM      7  C   LIG A   1      -7.636  -2.988 129.798  0.00  0.00    +0.018 A 
ATOM      8  C   LIG A   1      -7.077  -1.947 130.418  0.00  0.00    +0.092 A 
ATOM      9  C   LIG A   1      -6.970  -0.620 129.784  0.00  0.00    +0.337 A 
ATOM     10  O   LIG A   1      -6.475   0.321 130.381  0.00  0.00    -0.245 OA
ATOM     11  O   LIG A   1      -7.467  -0.507 128.490  0.00  0.00    -0.422 OA
ENDROOT
BRANCH   6  12
ATOM     12  O   LIG A   1      -9.648  -2.280 124.579  0.00  0.00    -0.495 OA
ATOM     13  C   LIG A   1      -9.334  -3.333 123.669  0.00  0.00    +0.277 C 
ENDBRANCH   6  12
BRANCH   1  14
ATOM     14  C   LIG A   1      -8.512   0.029 125.895  0.00  0.00    +0.184 C 
BRANCH  14  15
ATOM     15  O   LIG A   1      -9.804   0.413 125.380  0.00  0.00    -0.384 OA
ATOM     16  H   LIG A   1      -9.662   1.024 124.639  0.00  0.00    +0.210 HD
ENDBRANCH  14  15
BRANCH  14  17
ATOM     17  C   LIG A   1      -7.429   0.216 124.782  0.00  0.00    +0.173 C 
BRANCH  17  18
ATOM     18  C   LIG A   1      -6.128  -0.533 124.997  0.00  0.00    -0.049 C 
ATOM     19  C   LIG A   1      -5.206  -0.155 125.901  0.00  0.00    +0.010 C 
ATOM     20  C   LIG A   1      -5.893  -1.764 124.166  0.00  0.00    +0.041 C 
ENDBRANCH  17  18
BRANCH  17  21
ATOM     21  O   LIG A   1      -7.949  -0.081 123.478  0.00  0.00    -0.385 OA
ATOM     22  H   LIG A   1      -7.722   0.681 122.910  0.00  0.00    +0.210 HD
ENDBRANCH  17  21
ENDBRANCH  14  17
ENDBRANCH   1  14
TORSDOF 6
ENDMDL
MODEL 5
REMARK VINA RESULT:      -6.2      1.495      2.333
REMARK  Name = NuBBE_930
REMARK  8 active torsions:
REMARK  status: ('A' for Active; 'I' for Inactive)
REMARK    1  A    between atoms: C_1  and  C_3
REMARK    2  A    between atoms: C_1  and  O_9
REMARK    3  A    between atoms: C_1  and  C_10
REMARK    4  A    between atoms: C_3  and  C_5
REMARK    5  A    between atoms: C_3  and  O_8
REMARK    6  A    between atoms: C_5  and  C_7
REMARK    7  A    between atoms: C_15  and  O_16
REMARK    8  A    between atoms: O_16  and  C_17
REMARK                            x       y       z     vdW  Elec       q    Type
REMARK                         _______ _______ _______ _____ _____    ______ ____
ROOT
ATOM      1  C   LIG A   1      -7.253   3.501 122.568  0.00  0.00    +0.068 A 
ATOM      2  C   LIG A   1      -7.266   3.904 121.214  0.00  0.00    +0.148 A 
ATOM      3  C   LIG A   1      -6.141   4.429 120.570  0.00  0.00    +0.018 A 
ATOM      4  C   LIG A   1      -4.954   4.556 121.282  0.00  0.00    +0.015 A 
ATOM      5  C   LIG A   1      -4.900   4.153 122.617  0.00  0.00    +0.047 A 
ATOM      6  C   LIG A   1      -6.033   3.630 123.263  0.00  0.00    +0.129 A 
ATOM      7  C   LIG A   1      -6.226   4.845 119.179  0.00  0.00    +0.018 A 
ATOM      8  C   LIG A   1      -7.384   4.735 118.524  0.00  0.00    +0.092 A 
ATOM      9  C   LIG A   1      -8.598   4.194 119.161  0.00  0.00    +0.337 A 
ATOM     10  O   LIG A   1      -9.649   4.125 118.547  0.00  0.00    -0.245 OA
ATOM     11  O   LIG A   1      -8.476   3.782 120.484  0.00  0.00    -0.422 OA
ENDROOT
BRANCH   6  12
ATOM     12  O   LIG A   1      -5.981   3.178 124.559  0.00  0.00    -0.495 OA
ATOM     13  C   LIG A   1      -4.962   3.760 125.372  0.00  0.00    +0.277 C 
ENDBRANCH   6  12
BRANCH   1  14
ATOM     14  C   LIG A   1      -8.532   2.979 123.216  0.00  0.00    +0.184 C 
BRANCH  14  15
ATOM     15  O   LIG A   1      -8.634   3.486 124.564  0.00  0.00    -0.384 OA
ATOM     16  H   LIG A   1      -7.806   3.947 124.774  0.00  0.00    +0.210 HD
ENDBRANCH  14  15
BRANCH  14  17
ATOM     17  C   LIG A   1      -8.712   1.425 123.228  0.00  0.00    +0.173 C 
BRANCH  17  18
ATOM     18  C   LIG A   1      -8.529   0.753 124.575  0.00  0.00    -0.049 C 
ATOM     19  C   LIG A   1      -7.351   0.257 124.992  0.00  0.00    +0.010 C 
ATOM     20  C   LIG A   1      -9.732   0.671 125.476  0.00  0.00    +0.041 C 
ENDBRANCH  17  18
BRANCH  17  21
ATOM     21  O   LIG A   1      -9.968   1.031 122.656  0.00  0.00    -0.385 OA
ATOM     22  H   LIG A   1     -10.415   1.855 122.380  0.00  0.00    +0.210 HD
ENDBRANCH  17  21
ENDBRANCH  14  17
ENDBRANCH   1  14
TORSDOF 6
ENDMDL
MODEL 6
REMARK VINA RESULT:      -6.1      2.196      4.254
REMARK  Name = NuBBE_930
REMARK  8 active torsions:
REMARK  status: ('A' for Active; 'I' for Inactive)
REMARK    1  A    between atoms: C_1  and  C_3
REMARK    2  A    between atoms: C_1  and  O_9
REMARK    3  A    between atoms: C_1  and  C_10
REMARK    4  A    between atoms: C_3  and  C_5
REMARK    5  A    between atoms: C_3  and  O_8
REMARK    6  A    between atoms: C_5  and  C_7
REMARK    7  A    between atoms: C_15  and  O_16
REMARK    8  A    between atoms: O_16  and  C_17
REMARK                            x       y       z     vdW  Elec       q    Type
REMARK                         _______ _______ _______ _____ _____    ______ ____
ROOT
ATOM      1  C   LIG A   1      -6.979   3.247 124.797  0.00  0.00    +0.068 A 
ATOM      2  C   LIG A   1      -6.663   3.568 123.458  0.00  0.00    +0.148 A 
ATOM      3  C   LIG A   1      -7.515   3.275 122.388  0.00  0.00    +0.018 A 
ATOM      4  C   LIG A   1      -8.729   2.647 122.644  0.00  0.00    +0.015 A 
ATOM      5  C   LIG A   1      -9.082   2.331 123.957  0.00  0.00    +0.047 A 
ATOM      6  C   LIG A   1      -8.222   2.622 125.030  0.00  0.00    +0.129 A 
ATOM      7  C   LIG A   1      -7.120   3.613 121.030  0.00  0.00    +0.018 A 
ATOM      8  C   LIG A   1      -5.939   4.193 120.808  0.00  0.00    +0.092 A 
ATOM      9  C   LIG A   1      -5.005   4.516 121.901  0.00  0.00    +0.337 A 
ATOM     10  O   LIG A   1      -3.922   5.025 121.669  0.00  0.00    -0.245 OA
ATOM     11  O   LIG A   1      -5.424   4.203 123.190  0.00  0.00    -0.422 OA
ENDROOT
BRANCH   6  12
ATOM     12  O   LIG A   1      -8.580   2.367 126.331  0.00  0.00    -0.495 OA
ATOM     13  C   LIG A   1      -8.717   0.988 126.671  0.00  0.00    +0.277 C 
ENDBRANCH   6  12
BRANCH   1  14
ATOM     14  C   LIG A   1      -5.981   3.558 125.908  0.00  0.00    +0.184 C 
BRANCH  14  15
ATOM     15  O   LIG A   1      -5.533   4.925 125.788  0.00  0.00    -0.384 OA
ATOM     16  H   LIG A   1      -6.287   5.505 125.981  0.00  0.00    +0.210 HD
ENDBRANCH  14  15
BRANCH  14  17
ATOM     17  C   LIG A   1      -4.741   2.609 126.003  0.00  0.00    +0.173 C 
BRANCH  17  18
ATOM     18  C   LIG A   1      -3.635   3.065 126.935  0.00  0.00    -0.049 C 
ATOM     19  C   LIG A   1      -2.416   3.435 126.501  0.00  0.00    +0.010 C 
ATOM     20  C   LIG A   1      -3.948   3.120 128.406  0.00  0.00    +0.041 C 
ENDBRANCH  17  18
BRANCH  17  21
ATOM     21  O   LIG A   1      -5.123   1.265 126.326  0.00  0.00    -0.385 OA
ATOM     22  H   LIG A   1      -5.959   1.329 126.829  0.00  0.00    +0.210 HD
ENDBRANCH  17  21
ENDBRANCH  14  17
ENDBRANCH   1  14
TORSDOF 6
ENDMDL
MODEL 7
REMARK VINA RESULT:      -6.1      4.252      6.989
REMARK  Name = NuBBE_930
REMARK  8 active torsions:
REMARK  status: ('A' for Active; 'I' for Inactive)
REMARK    1  A    between atoms: C_1  and  C_3
REMARK    2  A    between atoms: C_1  and  O_9
REMARK    3  A    between atoms: C_1  and  C_10
REMARK    4  A    between atoms: C_3  and  C_5
REMARK    5  A    between atoms: C_3  and  O_8
REMARK    6  A    between atoms: C_5  and  C_7
REMARK    7  A    between atoms: C_15  and  O_16
REMARK    8  A    between atoms: O_16  and  C_17
REMARK                            x       y       z     vdW  Elec       q    Type
REMARK                         _______ _______ _______ _____ _____    ______ ____
ROOT
ATOM      1  C   LIG A   1      -6.731  -2.004 127.435  0.00  0.00    +0.068 A 
ATOM      2  C   LIG A   1      -7.272  -2.308 126.166  0.00  0.00    +0.148 A 
ATOM      3  C   LIG A   1      -8.393  -3.127 125.997  0.00  0.00    +0.018 A 
ATOM      4  C   LIG A   1      -9.012  -3.663 127.121  0.00  0.00    +0.015 A 
ATOM      5  C   LIG A   1      -8.516  -3.370 128.391  0.00  0.00    +0.047 A 
ATOM      6  C   LIG A   1      -7.386  -2.550 128.558  0.00  0.00    +0.129 A 
ATOM      7  C   LIG A   1      -8.887  -3.419 124.661  0.00  0.00    +0.018 A 
ATOM      8  C   LIG A   1      -8.260  -2.912 123.598  0.00  0.00    +0.092 A 
ATOM      9  C   LIG A   1      -7.072  -2.050 123.723  0.00  0.00    +0.337 A 
ATOM     10  O   LIG A   1      -6.504  -1.618 122.734  0.00  0.00    -0.245 OA
ATOM     11  O   LIG A   1      -6.640  -1.769 125.016  0.00  0.00    -0.422 OA
ENDROOT
BRANCH   6  12
ATOM     12  O   LIG A   1      -6.920  -2.209 129.804  0.00  0.00    -0.495 OA
ATOM     13  C   LIG A   1      -6.769  -3.291 130.721  0.00  0.00    +0.277 C 
ENDBRANCH   6  12
BRANCH   1  14
ATOM     14  C   LIG A   1      -5.478  -1.139 127.539  0.00  0.00    +0.184 C 
BRANCH  14  15
ATOM     15  O   LIG A   1      -4.513  -1.786 128.394  0.00  0.00    -0.384 OA
ATOM     16  H   LIG A   1      -3.636  -1.677 127.991  0.00  0.00    +0.210 HD
ENDBRANCH  14  15
BRANCH  14  17
ATOM     17  C   LIG A   1      -5.697   0.334 128.019  0.00  0.00    +0.173 C 
BRANCH  17  18
ATOM     18  C   LIG A   1      -6.913   1.037 127.447  0.00  0.00    -0.049 C 
ATOM     19  C   LIG A   1      -6.967   1.500 126.186  0.00  0.00    +0.010 C 
ATOM     20  C   LIG A   1      -8.110   1.191 128.347  0.00  0.00    +0.041 C 
ENDBRANCH  17  18
BRANCH  17  21
ATOM     21  O   LIG A   1      -5.710   0.430 129.450  0.00  0.00    -0.385 OA
ATOM     22  H   LIG A   1      -4.787   0.605 129.722  0.00  0.00    +0.210 HD
ENDBRANCH  17  21
ENDBRANCH  14  17
ENDBRANCH   1  14
TORSDOF 6
ENDMDL
MODEL 8
REMARK VINA RESULT:      -6.0      2.642      3.973
REMARK  Name = NuBBE_930
REMARK  8 active torsions:
REMARK  status: ('A' for Active; 'I' for Inactive)
REMARK    1  A    between atoms: C_1  and  C_3
REMARK    2  A    between atoms: C_1  and  O_9
REMARK    3  A    between atoms: C_1  and  C_10
REMARK    4  A    between atoms: C_3  and  C_5
REMARK    5  A    between atoms: C_3  and  O_8
REMARK    6  A    between atoms: C_5  and  C_7
REMARK    7  A    between atoms: C_15  and  O_16
REMARK    8  A    between atoms: O_16  and  C_17
REMARK                            x       y       z     vdW  Elec       q    Type
REMARK                         _______ _______ _______ _____ _____    ______ ____
ROOT
ATOM      1  C   LIG A   1      -7.311   0.219 125.694  0.00  0.00    +0.068 A 
ATOM      2  C   LIG A   1      -7.949   0.872 124.616  0.00  0.00    +0.148 A 
ATOM      3  C   LIG A   1      -7.499   2.090 124.095  0.00  0.00    +0.018 A 
ATOM      4  C   LIG A   1      -6.372   2.686 124.650  0.00  0.00    +0.015 A 
ATOM      5  C   LIG A   1      -5.706   2.060 125.704  0.00  0.00    +0.047 A 
ATOM      6  C   LIG A   1      -6.164   0.839 126.230  0.00  0.00    +0.129 A 
ATOM      7  C   LIG A   1      -8.215   2.721 122.998  0.00  0.00    +0.018 A 
ATOM      8  C   LIG A   1      -9.307   2.141 122.498  0.00  0.00    +0.092 A 
ATOM      9  C   LIG A   1      -9.825   0.862 123.017  0.00  0.00    +0.337 A 
ATOM     10  O   LIG A   1     -10.839   0.364 122.558  0.00  0.00    -0.245 OA
ATOM     11  O   LIG A   1      -9.102   0.272 124.049  0.00  0.00    -0.422 OA
ENDROOT
BRANCH   6  12
ATOM     12  O   LIG A   1      -5.487   0.185 127.230  0.00  0.00    -0.495 OA
ATOM     13  C   LIG A   1      -5.149   0.981 128.365  0.00  0.00    +0.277 C 
ENDBRANCH   6  12
BRANCH   1  14
ATOM     14  C   LIG A   1      -7.886  -1.086 126.238  0.00  0.00    +0.184 C 
BRANCH  14  15
ATOM     15  O   LIG A   1      -7.897  -1.045 127.680  0.00  0.00    -0.384 OA
ATOM     16  H   LIG A   1      -7.455  -1.846 128.006  0.00  0.00    +0.210 HD
ENDBRANCH  14  15
BRANCH  14  17
ATOM     17  C   LIG A   1      -7.185  -2.399 125.757  0.00  0.00    +0.173 C 
BRANCH  17  18
ATOM     18  C   LIG A   1      -7.299  -2.700 124.275  0.00  0.00    -0.049 C 
ATOM     19  C   LIG A   1      -8.432  -3.141 123.702  0.00  0.00    +0.010 C 
ATOM     20  C   LIG A   1      -6.079  -2.463 123.426  0.00  0.00    +0.041 C 
ENDBRANCH  17  18
BRANCH  17  21
ATOM     21  O   LIG A   1      -5.808  -2.444 126.157  0.00  0.00    -0.385 OA
ATOM     22  H   LIG A   1      -5.338  -1.794 125.599  0.00  0.00    +0.210 HD
ENDBRANCH  17  21
ENDBRANCH  14  17
ENDBRANCH   1  14
TORSDOF 6
ENDMDL
MODEL 9
REMARK VINA RESULT:      -5.9      2.234      5.542
REMARK  Name = NuBBE_930
REMARK  8 active torsions:
REMARK  status: ('A' for Active; 'I' for Inactive)
REMARK    1  A    between atoms: C_1  and  C_3
REMARK    2  A    between atoms: C_1  and  O_9
REMARK    3  A    between atoms: C_1  and  C_10
REMARK    4  A    between atoms: C_3  and  C_5
REMARK    5  A    between atoms: C_3  and  O_8
REMARK    6  A    between atoms: C_5  and  C_7
REMARK    7  A    between atoms: C_15  and  O_16
REMARK    8  A    between atoms: O_16  and  C_17
REMARK                            x       y       z     vdW  Elec       q    Type
REMARK                         _______ _______ _______ _____ _____    ______ ____
ROOT
ATOM      1  C   LIG A   1      -8.918   0.518 125.955  0.00  0.00    +0.068 A 
ATOM      2  C   LIG A   1      -8.825  -0.878 125.761  0.00  0.00    +0.148 A 
ATOM      3  C   LIG A   1      -8.251  -1.736 126.705  0.00  0.00    +0.018 A 
ATOM      4  C   LIG A   1      -7.756  -1.203 127.889  0.00  0.00    +0.015 A 
ATOM      5  C   LIG A   1      -7.847   0.170 128.122  0.00  0.00    +0.047 A 
ATOM      6  C   LIG A   1      -8.419   1.031 127.170  0.00  0.00    +0.129 A 
ATOM      7  C   LIG A   1      -8.166  -3.163 126.434  0.00  0.00    +0.018 A 
ATOM      8  C   LIG A   1      -8.627  -3.647 125.279  0.00  0.00    +0.092 A 
ATOM      9  C   LIG A   1      -9.234  -2.783 124.252  0.00  0.00    +0.337 A 
ATOM     10  O   LIG A   1      -9.627  -3.247 123.195  0.00  0.00    -0.245 OA
ATOM     11  O   LIG A   1      -9.323  -1.427 124.552  0.00  0.00    -0.422 OA
ENDROOT
BRANCH   6  12
ATOM     12  O   LIG A   1      -8.565   2.376 127.409  0.00  0.00    -0.495 OA
ATOM     13  C   LIG A   1      -8.187   2.813 128.713  0.00  0.00    +0.277 C 
ENDBRANCH   6  12
BRANCH   1  14
ATOM     14  C   LIG A   1      -9.518   1.398 124.861  0.00  0.00    +0.184 C 
BRANCH  14  15
ATOM     15  O   LIG A   1     -10.777   0.841 124.428  0.00  0.00    -0.384 OA
ATOM     16  H   LIG A   1     -10.587   0.126 123.799  0.00  0.00    +0.210 HD
ENDBRANCH  14  15
BRANCH  14  17
ATOM     17  C   LIG A   1      -8.608   1.663 123.617  0.00  0.00    +0.173 C 
BRANCH  17  18
ATOM     18  C   LIG A   1      -7.773   2.928 123.671  0.00  0.00    -0.049 C 
ATOM     19  C   LIG A   1      -7.893   3.844 124.649  0.00  0.00    +0.010 C 
ATOM     20  C   LIG A   1      -6.755   3.132 122.582  0.00  0.00    +0.041 C 
ENDBRANCH  17  18
BRANCH  17  21
ATOM     21  O   LIG A   1      -7.766   0.539 123.323  0.00  0.00    -0.385 OA
ATOM     22  H   LIG A   1      -7.815   0.402 122.357  0.00  0.00    +0.210 HD
ENDBRANCH  17  21
ENDBRANCH  14  17
ENDBRANCH   1  14
TORSDOF 6
ENDMDL
