MODEL 1
REMARK VINA RESULT:      -8.2      0.000      0.000
REMARK  Name = NuBBE_1302
REMARK  10 active torsions:
REMARK  status: ('A' for Active; 'I' for Inactive)
REMARK    1  A    between atoms: C_2  and  C_3
REMARK    2  A    between atoms: C_2  and  C_13
REMARK    3  A    between atoms: C_4  and  C_5
REMARK    4  A    between atoms: C_8  and  O_11
REMARK    5  A    between atoms: O_11  and  C_12
REMARK    6  A    between atoms: C_14  and  O_27
REMARK    7  A    between atoms: C_16  and  O_25
REMARK    8  A    between atoms: C_20  and  C_21
REMARK    9  A    between atoms: C_20  and  C_22
REMARK   10  A    between atoms: O_25  and  C_26
REMARK                            x       y       z     vdW  Elec       q    Type
REMARK                         _______ _______ _______ _____ _____    ______ ____
ROOT
ATOM      1  C   LIG A   1      -8.375   0.474 125.971  0.00  0.00    +0.105 A 
ATOM      2  C   LIG A   1      -8.274   1.005 127.267  0.00  0.00    +0.135 A 
ATOM      3  C   LIG A   1      -7.298   0.565 128.156  0.00  0.00    +0.092 A 
ATOM      4  C   LIG A   1      -6.370  -0.398 127.761  0.00  0.00    +0.134 A 
ATOM      5  C   LIG A   1      -6.443  -0.938 126.457  0.00  0.00    +0.059 A 
ATOM      6  C   LIG A   1      -7.452  -0.510 125.568  0.00  0.00    +0.147 A 
ATOM      7  O   LIG A   1      -7.519  -0.983 124.278  0.00  0.00    -0.481 OA
ATOM      8  C   LIG A   1      -6.865  -2.233 123.964  0.00  0.00    +0.123 C 
ATOM      9  C   LIG A   1      -7.898  -3.360 124.090  0.00  0.00    +0.060 C 
ATOM     10  C   LIG A   1      -6.411  -2.122 122.502  0.00  0.00    +0.060 C 
ATOM     11  C   LIG A   1      -5.675  -2.539 124.831  0.00  0.00    +0.020 C 
ATOM     12  C   LIG A   1      -5.467  -1.929 126.000  0.00  0.00    +0.015 C 
ENDROOT
BRANCH   1  14
ATOM     13  O   LIG A   1     -10.633   0.848 125.454  0.00  0.00    -0.287 OA
ATOM     14  C   LIG A   1      -9.466   1.004 125.108  0.00  0.00    +0.193 C 
BRANCH  14  15
ATOM     15  C   LIG A   1      -9.121   1.560 123.778  0.00  0.00    +0.052 C 
ATOM     16  C   LIG A   1      -8.094   2.412 123.631  0.00  0.00    +0.012 C 
BRANCH  16  17
ATOM     17  C   LIG A   1      -7.754   3.016 122.335  0.00  0.00    -0.025 A 
ATOM     18  C   LIG A   1      -6.415   3.223 121.988  0.00  0.00    +0.011 A 
ATOM     19  C   LIG A   1      -6.078   3.817 120.763  0.00  0.00    +0.046 A 
ATOM     20  C   LIG A   1      -7.077   4.190 119.864  0.00  0.00    +0.120 A 
ATOM     21  C   LIG A   1      -8.412   3.980 120.201  0.00  0.00    +0.046 A 
ATOM     22  C   LIG A   1      -8.745   3.382 121.416  0.00  0.00    +0.011 A 
BRANCH  20  23
ATOM     23  O   LIG A   1      -6.871   4.797 118.658  0.00  0.00    -0.495 OA
ATOM     24  C   LIG A   1      -5.859   5.796 118.643  0.00  0.00    +0.277 C 
ENDBRANCH  20  23
ENDBRANCH  16  17
ENDBRANCH  14  15
ENDBRANCH   1  14
BRANCH   4  25
ATOM     25  O   LIG A   1      -5.363  -0.866 128.570  0.00  0.00    -0.494 OA
ATOM     26  C   LIG A   1      -4.864   0.015 129.570  0.00  0.00    +0.277 C 
ENDBRANCH   4  25
BRANCH   2  27
ATOM     27  O   LIG A   1      -9.119   1.972 127.751  0.00  0.00    -0.506 OA
ATOM     28  H   LIG A   1      -9.139   1.896 128.732  0.00  0.00    +0.292 HD
ENDBRANCH   2  27
TORSDOF 6
ENDMDL
MODEL 2
REMARK VINA RESULT:      -7.9      1.779      3.489
REMARK  Name = NuBBE_1302
REMARK  10 active torsions:
REMARK  status: ('A' for Active; 'I' for Inactive)
REMARK    1  A    between atoms: C_2  and  C_3
REMARK    2  A    between atoms: C_2  and  C_13
REMARK    3  A    between atoms: C_4  and  C_5
REMARK    4  A    between atoms: C_8  and  O_11
REMARK    5  A    between atoms: O_11  and  C_12
REMARK    6  A    between atoms: C_14  and  O_27
REMARK    7  A    between atoms: C_16  and  O_25
REMARK    8  A    between atoms: C_20  and  C_21
REMARK    9  A    between atoms: C_20  and  C_22
REMARK   10  A    between atoms: O_25  and  C_26
REMARK                            x       y       z     vdW  Elec       q    Type
REMARK                         _______ _______ _______ _____ _____    ______ ____
ROOT
ATOM      1  C   LIG A   1      -8.852  -0.109 125.531  0.00  0.00    +0.105 A 
ATOM      2  C   LIG A   1      -8.950  -1.496 125.338  0.00  0.00    +0.135 A 
ATOM      3  C   LIG A   1      -8.471  -2.395 126.286  0.00  0.00    +0.092 A 
ATOM      4  C   LIG A   1      -7.909  -1.930 127.475  0.00  0.00    +0.134 A 
ATOM      5  C   LIG A   1      -7.812  -0.538 127.697  0.00  0.00    +0.059 A 
ATOM      6  C   LIG A   1      -8.273   0.371 126.721  0.00  0.00    +0.147 A 
ATOM      7  O   LIG A   1      -8.234   1.730 126.930  0.00  0.00    -0.481 OA
ATOM      8  C   LIG A   1      -7.322   2.252 127.924  0.00  0.00    +0.123 C 
ATOM      9  C   LIG A   1      -6.019   2.647 127.218  0.00  0.00    +0.060 C 
ATOM     10  C   LIG A   1      -7.990   3.509 128.497  0.00  0.00    +0.060 C 
ATOM     11  C   LIG A   1      -7.020   1.295 129.044  0.00  0.00    +0.020 C 
ATOM     12  C   LIG A   1      -7.255  -0.015 128.947  0.00  0.00    +0.015 C 
ENDROOT
BRANCH   1  14
ATOM     13  O   LIG A   1     -10.593   0.828 124.266  0.00  0.00    -0.287 OA
ATOM     14  C   LIG A   1      -9.381   0.763 124.445  0.00  0.00    +0.193 C 
BRANCH  14  15
ATOM     15  C   LIG A   1      -8.424   1.400 123.510  0.00  0.00    +0.052 C 
ATOM     16  C   LIG A   1      -8.669   2.614 122.989  0.00  0.00    +0.012 C 
BRANCH  16  17
ATOM     17  C   LIG A   1      -7.764   3.253 122.025  0.00  0.00    -0.025 A 
ATOM     18  C   LIG A   1      -6.426   3.480 122.364  0.00  0.00    +0.011 A 
ATOM     19  C   LIG A   1      -5.557   4.107 121.460  0.00  0.00    +0.046 A 
ATOM     20  C   LIG A   1      -6.012   4.494 120.200  0.00  0.00    +0.120 A 
ATOM     21  C   LIG A   1      -7.341   4.265 119.854  0.00  0.00    +0.046 A 
ATOM     22  C   LIG A   1      -8.202   3.633 120.751  0.00  0.00    +0.011 A 
BRANCH  20  23
ATOM     23  O   LIG A   1      -5.267   5.134 119.250  0.00  0.00    -0.495 OA
ATOM     24  C   LIG A   1      -6.004   5.927 118.328  0.00  0.00    +0.277 C 
ENDBRANCH  20  23
ENDBRANCH  16  17
ENDBRANCH  14  15
ENDBRANCH   1  14
BRANCH   4  25
ATOM     25  O   LIG A   1      -7.437  -2.751 128.469  0.00  0.00    -0.494 OA
ATOM     26  C   LIG A   1      -8.399  -3.428 129.271  0.00  0.00    +0.277 C 
ENDBRANCH   4  25
BRANCH   2  27
ATOM     27  O   LIG A   1      -9.504  -2.061 124.217  0.00  0.00    -0.506 OA
ATOM     28  H   LIG A   1      -8.905  -1.883 123.457  0.00  0.00    +0.292 HD
ENDBRANCH   2  27
TORSDOF 6
ENDMDL
MODEL 3
REMARK VINA RESULT:      -7.6      6.820      9.503
REMARK  Name = NuBBE_1302
REMARK  10 active torsions:
REMARK  status: ('A' for Active; 'I' for Inactive)
REMARK    1  A    between atoms: C_2  and  C_3
REMARK    2  A    between atoms: C_2  and  C_13
REMARK    3  A    between atoms: C_4  and  C_5
REMARK    4  A    between atoms: C_8  and  O_11
REMARK    5  A    between atoms: O_11  and  C_12
REMARK    6  A    between atoms: C_14  and  O_27
REMARK    7  A    between atoms: C_16  and  O_25
REMARK    8  A    between atoms: C_20  and  C_21
REMARK    9  A    between atoms: C_20  and  C_22
REMARK   10  A    between atoms: O_25  and  C_26
REMARK                            x       y       z     vdW  Elec       q    Type
REMARK                         _______ _______ _______ _____ _____    ______ ____
ROOT
ATOM      1  C   LIG A   1      -6.277   4.869 130.895  0.00  0.00    +0.105 A 
ATOM      2  C   LIG A   1      -6.627   3.657 130.280  0.00  0.00    +0.135 A 
ATOM      3  C   LIG A   1      -5.762   3.015 129.399  0.00  0.00    +0.092 A 
ATOM      4  C   LIG A   1      -4.503   3.553 129.134  0.00  0.00    +0.134 A 
ATOM      5  C   LIG A   1      -4.123   4.766 129.752  0.00  0.00    +0.059 A 
ATOM      6  C   LIG A   1      -5.014   5.429 130.622  0.00  0.00    +0.147 A 
ATOM      7  O   LIG A   1      -4.654   6.585 131.274  0.00  0.00    -0.481 OA
ATOM      8  C   LIG A   1      -3.565   7.371 130.738  0.00  0.00    +0.123 C 
ATOM      9  C   LIG A   1      -4.158   8.451 129.824  0.00  0.00    +0.060 C 
ATOM     10  C   LIG A   1      -2.889   8.041 131.942  0.00  0.00    +0.060 C 
ATOM     11  C   LIG A   1      -2.544   6.570 129.978  0.00  0.00    +0.020 C 
ATOM     12  C   LIG A   1      -2.797   5.343 129.518  0.00  0.00    +0.015 C 
ENDROOT
BRANCH   1  14
ATOM     13  O   LIG A   1      -7.370   5.074 132.962  0.00  0.00    -0.287 OA
ATOM     14  C   LIG A   1      -7.284   5.479 131.807  0.00  0.00    +0.193 C 
BRANCH  14  15
ATOM     15  C   LIG A   1      -8.262   6.444 131.251  0.00  0.00    +0.052 C 
ATOM     16  C   LIG A   1      -9.498   6.053 130.902  0.00  0.00    +0.012 C 
BRANCH  16  17
ATOM     17  C   LIG A   1     -10.475   6.975 130.307  0.00  0.00    -0.025 A 
ATOM     18  C   LIG A   1     -10.153   7.683 129.146  0.00  0.00    +0.011 A 
ATOM     19  C   LIG A   1     -11.068   8.581 128.579  0.00  0.00    +0.046 A 
ATOM     20  C   LIG A   1     -12.325   8.763 129.157  0.00  0.00    +0.120 A 
ATOM     21  C   LIG A   1     -12.655   8.054 130.310  0.00  0.00    +0.046 A 
ATOM     22  C   LIG A   1     -11.745   7.156 130.867  0.00  0.00    +0.011 A 
BRANCH  20  23
ATOM     23  O   LIG A   1     -13.286   9.625 128.710  0.00  0.00    -0.495 OA
ATOM     24  C   LIG A   1     -13.529  10.752 129.544  0.00  0.00    +0.277 C 
ENDBRANCH  20  23
ENDBRANCH  16  17
ENDBRANCH  14  15
ENDBRANCH   1  14
BRANCH   4  25
ATOM     25  O   LIG A   1      -3.583   2.969 128.297  0.00  0.00    -0.494 OA
ATOM     26  C   LIG A   1      -3.975   2.750 126.946  0.00  0.00    +0.277 C 
ENDBRANCH   4  25
BRANCH   2  27
ATOM     27  O   LIG A   1      -7.830   3.029 130.487  0.00  0.00    -0.506 OA
ATOM     28  H   LIG A   1      -8.404   3.204 129.707  0.00  0.00    +0.292 HD
ENDBRANCH   2  27
TORSDOF 6
ENDMDL
MODEL 4
REMARK VINA RESULT:      -7.5      8.287      9.931
REMARK  Name = NuBBE_1302
REMARK  10 active torsions:
REMARK  status: ('A' for Active; 'I' for Inactive)
REMARK    1  A    between atoms: C_2  and  C_3
REMARK    2  A    between atoms: C_2  and  C_13
REMARK    3  A    between atoms: C_4  and  C_5
REMARK    4  A    between atoms: C_8  and  O_11
REMARK    5  A    between atoms: O_11  and  C_12
REMARK    6  A    between atoms: C_14  and  O_27
REMARK    7  A    between atoms: C_16  and  O_25
REMARK    8  A    between atoms: C_20  and  C_21
REMARK    9  A    between atoms: C_20  and  C_22
REMARK   10  A    between atoms: O_25  and  C_26
REMARK                            x       y       z     vdW  Elec       q    Type
REMARK                         _______ _______ _______ _____ _____    ______ ____
ROOT
ATOM      1  C   LIG A   1      -7.927   4.520 132.546  0.00  0.00    +0.105 A 
ATOM      2  C   LIG A   1      -8.600   4.402 133.771  0.00  0.00    +0.135 A 
ATOM      3  C   LIG A   1      -8.021   4.834 134.961  0.00  0.00    +0.092 A 
ATOM      4  C   LIG A   1      -6.761   5.431 134.953  0.00  0.00    +0.134 A 
ATOM      5  C   LIG A   1      -6.069   5.572 133.729  0.00  0.00    +0.059 A 
ATOM      6  C   LIG A   1      -6.647   5.106 132.528  0.00  0.00    +0.147 A 
ATOM      7  O   LIG A   1      -6.018   5.273 131.317  0.00  0.00    -0.481 OA
ATOM      8  C   LIG A   1      -4.590   5.501 131.304  0.00  0.00    +0.123 C 
ATOM      9  C   LIG A   1      -3.891   4.149 131.118  0.00  0.00    +0.060 C 
ATOM     10  C   LIG A   1      -4.310   6.388 130.083  0.00  0.00    +0.060 C 
ATOM     11  C   LIG A   1      -4.064   6.176 132.540  0.00  0.00    +0.020 C 
ATOM     12  C   LIG A   1      -4.756   6.220 133.680  0.00  0.00    +0.015 C 
ENDROOT
BRANCH   1  14
ATOM     13  O   LIG A   1      -8.284   2.939 130.847  0.00  0.00    -0.287 OA
ATOM     14  C   LIG A   1      -8.631   4.010 131.336  0.00  0.00    +0.193 C 
BRANCH  14  15
ATOM     15  C   LIG A   1      -9.621   4.883 130.663  0.00  0.00    +0.052 C 
ATOM     16  C   LIG A   1      -9.604   6.214 130.841  0.00  0.00    +0.012 C 
BRANCH  16  17
ATOM     17  C   LIG A   1     -10.598   7.102 130.224  0.00  0.00    -0.025 A 
ATOM     18  C   LIG A   1     -10.289   7.789 129.046  0.00  0.00    +0.011 A 
ATOM     19  C   LIG A   1     -11.222   8.655 128.458  0.00  0.00    +0.046 A 
ATOM     20  C   LIG A   1     -12.482   8.826 129.032  0.00  0.00    +0.120 A 
ATOM     21  C   LIG A   1     -12.798   8.140 130.202  0.00  0.00    +0.046 A 
ATOM     22  C   LIG A   1     -11.872   7.273 130.780  0.00  0.00    +0.011 A 
BRANCH  20  23
ATOM     23  O   LIG A   1     -13.459   9.659 128.565  0.00  0.00    -0.495 OA
ATOM     24  C   LIG A   1     -13.681  10.832 129.338  0.00  0.00    +0.277 C 
ENDBRANCH  20  23
ENDBRANCH  16  17
ENDBRANCH  14  15
ENDBRANCH   1  14
BRANCH   4  25
ATOM     25  O   LIG A   1      -6.133   5.904 136.079  0.00  0.00    -0.494 OA
ATOM     26  C   LIG A   1      -6.946   6.182 137.213  0.00  0.00    +0.277 C 
ENDBRANCH   4  25
BRANCH   2  27
ATOM     27  O   LIG A   1      -9.853   3.852 133.891  0.00  0.00    -0.506 OA
ATOM     28  H   LIG A   1     -10.050   3.750 134.850  0.00  0.00    +0.292 HD
ENDBRANCH   2  27
TORSDOF 6
ENDMDL
MODEL 5
REMARK VINA RESULT:      -7.4      6.912      9.224
REMARK  Name = NuBBE_1302
REMARK  10 active torsions:
REMARK  status: ('A' for Active; 'I' for Inactive)
REMARK    1  A    between atoms: C_2  and  C_3
REMARK    2  A    between atoms: C_2  and  C_13
REMARK    3  A    between atoms: C_4  and  C_5
REMARK    4  A    between atoms: C_8  and  O_11
REMARK    5  A    between atoms: O_11  and  C_12
REMARK    6  A    between atoms: C_14  and  O_27
REMARK    7  A    between atoms: C_16  and  O_25
REMARK    8  A    between atoms: C_20  and  C_21
REMARK    9  A    between atoms: C_20  and  C_22
REMARK   10  A    between atoms: O_25  and  C_26
REMARK                            x       y       z     vdW  Elec       q    Type
REMARK                         _______ _______ _______ _____ _____    ______ ____
ROOT
ATOM      1  C   LIG A   1      -5.536   5.391 131.161  0.00  0.00    +0.105 A 
ATOM      2  C   LIG A   1      -5.194   6.022 132.367  0.00  0.00    +0.135 A 
ATOM      3  C   LIG A   1      -3.955   6.633 132.539  0.00  0.00    +0.092 A 
ATOM      4  C   LIG A   1      -3.033   6.659 131.493  0.00  0.00    +0.134 A 
ATOM      5  C   LIG A   1      -3.361   6.042 130.265  0.00  0.00    +0.059 A 
ATOM      6  C   LIG A   1      -4.607   5.399 130.103  0.00  0.00    +0.147 A 
ATOM      7  O   LIG A   1      -4.972   4.831 128.905  0.00  0.00    -0.481 OA
ATOM      8  C   LIG A   1      -3.935   4.484 127.960  0.00  0.00    +0.123 C 
ATOM      9  C   LIG A   1      -3.563   3.011 128.177  0.00  0.00    +0.060 C 
ATOM     10  C   LIG A   1      -4.555   4.649 126.565  0.00  0.00    +0.060 C 
ATOM     11  C   LIG A   1      -2.700   5.336 128.059  0.00  0.00    +0.020 C 
ATOM     12  C   LIG A   1      -2.428   6.077 129.136  0.00  0.00    +0.015 C 
ENDROOT
BRANCH   1  14
ATOM     13  O   LIG A   1      -7.016   3.596 131.473  0.00  0.00    -0.287 OA
ATOM     14  C   LIG A   1      -6.881   4.754 131.090  0.00  0.00    +0.193 C 
BRANCH  14  15
ATOM     15  C   LIG A   1      -7.981   5.479 130.413  0.00  0.00    +0.052 C 
ATOM     16  C   LIG A   1      -8.830   6.254 131.107  0.00  0.00    +0.012 C 
BRANCH  16  17
ATOM     17  C   LIG A   1      -9.958   6.950 130.471  0.00  0.00    -0.025 A 
ATOM     18  C   LIG A   1     -11.238   6.859 131.025  0.00  0.00    +0.011 A 
ATOM     19  C   LIG A   1     -12.326   7.501 130.417  0.00  0.00    +0.046 A 
ATOM     20  C   LIG A   1     -12.139   8.258 129.260  0.00  0.00    +0.120 A 
ATOM     21  C   LIG A   1     -10.865   8.358 128.708  0.00  0.00    +0.046 A 
ATOM     22  C   LIG A   1      -9.783   7.725 129.319  0.00  0.00    +0.011 A 
BRANCH  20  23
ATOM     23  O   LIG A   1     -13.124   8.905 128.568  0.00  0.00    -0.495 OA
ATOM     24  C   LIG A   1     -13.477  10.190 129.067  0.00  0.00    +0.277 C 
ENDBRANCH  20  23
ENDBRANCH  16  17
ENDBRANCH  14  15
ENDBRANCH   1  14
BRANCH   4  25
ATOM     25  O   LIG A   1      -1.802   7.262 131.575  0.00  0.00    -0.494 OA
ATOM     26  C   LIG A   1      -0.816   6.628 132.382  0.00  0.00    +0.277 C 
ENDBRANCH   4  25
BRANCH   2  27
ATOM     27  O   LIG A   1      -6.032   6.076 133.452  0.00  0.00    -0.506 OA
ATOM     28  H   LIG A   1      -5.492   5.936 134.263  0.00  0.00    +0.292 HD
ENDBRANCH   2  27
TORSDOF 6
ENDMDL
MODEL 6
REMARK VINA RESULT:      -7.3      4.689      8.242
REMARK  Name = NuBBE_1302
REMARK  10 active torsions:
REMARK  status: ('A' for Active; 'I' for Inactive)
REMARK    1  A    between atoms: C_2  and  C_3
REMARK    2  A    between atoms: C_2  and  C_13
REMARK    3  A    between atoms: C_4  and  C_5
REMARK    4  A    between atoms: C_8  and  O_11
REMARK    5  A    between atoms: O_11  and  C_12
REMARK    6  A    between atoms: C_14  and  O_27
REMARK    7  A    between atoms: C_16  and  O_25
REMARK    8  A    between atoms: C_20  and  C_21
REMARK    9  A    between atoms: C_20  and  C_22
REMARK   10  A    between atoms: O_25  and  C_26
REMARK                            x       y       z     vdW  Elec       q    Type
REMARK                         _______ _______ _______ _____ _____    ______ ____
ROOT
ATOM      1  C   LIG A   1      -8.565   4.571 129.538  0.00  0.00    +0.105 A 
ATOM      2  C   LIG A   1      -9.384   5.612 129.074  0.00  0.00    +0.135 A 
ATOM      3  C   LIG A   1     -10.320   6.221 129.904  0.00  0.00    +0.092 A 
ATOM      4  C   LIG A   1     -10.441   5.827 131.236  0.00  0.00    +0.134 A 
ATOM      5  C   LIG A   1      -9.618   4.790 131.729  0.00  0.00    +0.059 A 
ATOM      6  C   LIG A   1      -8.689   4.155 130.877  0.00  0.00    +0.147 A 
ATOM      7  O   LIG A   1      -7.843   3.175 131.342  0.00  0.00    -0.481 OA
ATOM      8  C   LIG A   1      -8.197   2.473 132.555  0.00  0.00    +0.123 C 
ATOM      9  C   LIG A   1      -8.946   1.192 132.166  0.00  0.00    +0.060 C 
ATOM     10  C   LIG A   1      -6.872   2.098 133.233  0.00  0.00    +0.060 C 
ATOM     11  C   LIG A   1      -9.034   3.278 133.510  0.00  0.00    +0.020 C 
ATOM     12  C   LIG A   1      -9.698   4.371 133.130  0.00  0.00    +0.015 C 
ENDROOT
BRANCH   1  14
ATOM     13  O   LIG A   1      -6.579   4.586 128.287  0.00  0.00    -0.287 OA
ATOM     14  C   LIG A   1      -7.608   3.978 128.562  0.00  0.00    +0.193 C 
BRANCH  14  15
ATOM     15  C   LIG A   1      -8.002   2.751 127.830  0.00  0.00    +0.052 C 
ATOM     16  C   LIG A   1      -7.679   1.533 128.295  0.00  0.00    +0.012 C 
BRANCH  16  17
ATOM     17  C   LIG A   1      -8.015   0.301 127.570  0.00  0.00    -0.025 A 
ATOM     18  C   LIG A   1      -8.719   0.366 126.364  0.00  0.00    +0.011 A 
ATOM     19  C   LIG A   1      -9.064  -0.804 125.673  0.00  0.00    +0.046 A 
ATOM     20  C   LIG A   1      -8.688  -2.051 126.171  0.00  0.00    +0.120 A 
ATOM     21  C   LIG A   1      -7.980  -2.123 127.368  0.00  0.00    +0.046 A 
ATOM     22  C   LIG A   1      -7.631  -0.957 128.050  0.00  0.00    +0.011 A 
BRANCH  20  23
ATOM     23  O   LIG A   1      -8.988  -3.256 125.600  0.00  0.00    -0.495 OA
ATOM     24  C   LIG A   1      -9.224  -3.224 124.198  0.00  0.00    +0.277 C 
ENDBRANCH  20  23
ENDBRANCH  16  17
ENDBRANCH  14  15
ENDBRANCH   1  14
BRANCH   4  25
ATOM     25  O   LIG A   1     -11.322   6.395 132.124  0.00  0.00    -0.494 OA
ATOM     26  C   LIG A   1     -12.424   7.115 131.582  0.00  0.00    +0.277 C 
ENDBRANCH   4  25
BRANCH   2  27
ATOM     27  O   LIG A   1      -9.332   6.093 127.790  0.00  0.00    -0.506 OA
ATOM     28  H   LIG A   1      -8.483   6.578 127.679  0.00  0.00    +0.292 HD
ENDBRANCH   2  27
TORSDOF 6
ENDMDL
MODEL 7
REMARK VINA RESULT:      -7.3      2.299      7.859
REMARK  Name = NuBBE_1302
REMARK  10 active torsions:
REMARK  status: ('A' for Active; 'I' for Inactive)
REMARK    1  A    between atoms: C_2  and  C_3
REMARK    2  A    between atoms: C_2  and  C_13
REMARK    3  A    between atoms: C_4  and  C_5
REMARK    4  A    between atoms: C_8  and  O_11
REMARK    5  A    between atoms: O_11  and  C_12
REMARK    6  A    between atoms: C_14  and  O_27
REMARK    7  A    between atoms: C_16  and  O_25
REMARK    8  A    between atoms: C_20  and  C_21
REMARK    9  A    between atoms: C_20  and  C_22
REMARK   10  A    between atoms: O_25  and  C_26
REMARK                            x       y       z     vdW  Elec       q    Type
REMARK                         _______ _______ _______ _____ _____    ______ ____
ROOT
ATOM      1  C   LIG A   1      -8.930   1.389 124.162  0.00  0.00    +0.105 A 
ATOM      2  C   LIG A   1      -9.731   1.374 123.009  0.00  0.00    +0.135 A 
ATOM      3  C   LIG A   1      -9.436   2.177 121.911  0.00  0.00    +0.092 A 
ATOM      4  C   LIG A   1      -8.307   2.995 121.922  0.00  0.00    +0.134 A 
ATOM      5  C   LIG A   1      -7.477   3.016 123.066  0.00  0.00    +0.059 A 
ATOM      6  C   LIG A   1      -7.796   2.223 124.189  0.00  0.00    +0.147 A 
ATOM      7  O   LIG A   1      -6.982   2.189 125.297  0.00  0.00    -0.481 OA
ATOM      8  C   LIG A   1      -6.062   3.283 125.515  0.00  0.00    +0.123 C 
ATOM      9  C   LIG A   1      -6.740   4.300 126.442  0.00  0.00    +0.060 C 
ATOM     10  C   LIG A   1      -4.844   2.681 126.228  0.00  0.00    +0.060 C 
ATOM     11  C   LIG A   1      -5.612   3.969 124.255  0.00  0.00    +0.020 C 
ATOM     12  C   LIG A   1      -6.268   3.842 123.099  0.00  0.00    +0.015 C 
ENDROOT
BRANCH   1  14
ATOM     13  O   LIG A   1     -10.539   0.396 125.553  0.00  0.00    -0.287 OA
ATOM     14  C   LIG A   1      -9.346   0.504 125.285  0.00  0.00    +0.193 C 
BRANCH  14  15
ATOM     15  C   LIG A   1      -8.302  -0.094 126.149  0.00  0.00    +0.052 C 
ATOM     16  C   LIG A   1      -8.384  -1.373 126.551  0.00  0.00    +0.012 C 
BRANCH  16  17
ATOM     17  C   LIG A   1      -7.390  -1.983 127.443  0.00  0.00    -0.025 A 
ATOM     18  C   LIG A   1      -7.805  -2.753 128.534  0.00  0.00    +0.011 A 
ATOM     19  C   LIG A   1      -6.866  -3.323 129.405  0.00  0.00    +0.046 A 
ATOM     20  C   LIG A   1      -5.501  -3.145 129.182  0.00  0.00    +0.120 A 
ATOM     21  C   LIG A   1      -5.080  -2.385 128.093  0.00  0.00    +0.046 A 
ATOM     22  C   LIG A   1      -6.016  -1.826 127.223  0.00  0.00    +0.011 A 
BRANCH  20  23
ATOM     23  O   LIG A   1      -4.498  -3.629 129.974  0.00  0.00    -0.495 OA
ATOM     24  C   LIG A   1      -3.204  -3.635 129.384  0.00  0.00    +0.277 C 
ENDBRANCH  20  23
ENDBRANCH  16  17
ENDBRANCH  14  15
ENDBRANCH   1  14
BRANCH   4  25
ATOM     25  O   LIG A   1      -7.934   3.796 120.870  0.00  0.00    -0.494 OA
ATOM     26  C   LIG A   1      -8.912   4.061 119.871  0.00  0.00    +0.277 C 
ENDBRANCH   4  25
BRANCH   2  27
ATOM     27  O   LIG A   1     -10.851   0.591 122.883  0.00  0.00    -0.506 OA
ATOM     28  H   LIG A   1     -10.829  -0.090 123.593  0.00  0.00    +0.292 HD
ENDBRANCH   2  27
TORSDOF 6
ENDMDL
MODEL 8
REMARK VINA RESULT:      -7.2      3.809      8.280
REMARK  Name = NuBBE_1302
REMARK  10 active torsions:
REMARK  status: ('A' for Active; 'I' for Inactive)
REMARK    1  A    between atoms: C_2  and  C_3
REMARK    2  A    between atoms: C_2  and  C_13
REMARK    3  A    between atoms: C_4  and  C_5
REMARK    4  A    between atoms: C_8  and  O_11
REMARK    5  A    between atoms: O_11  and  C_12
REMARK    6  A    between atoms: C_14  and  O_27
REMARK    7  A    between atoms: C_16  and  O_25
REMARK    8  A    between atoms: C_20  and  C_21
REMARK    9  A    between atoms: C_20  and  C_22
REMARK   10  A    between atoms: O_25  and  C_26
REMARK                            x       y       z     vdW  Elec       q    Type
REMARK                         _______ _______ _______ _____ _____    ______ ____
ROOT
ATOM      1  C   LIG A   1      -7.601  -1.999 127.847  0.00  0.00    +0.105 A 
ATOM      2  C   LIG A   1      -8.542  -2.998 127.550  0.00  0.00    +0.135 A 
ATOM      3  C   LIG A   1      -9.205  -3.027 126.327  0.00  0.00    +0.092 A 
ATOM      4  C   LIG A   1      -8.919  -2.075 125.349  0.00  0.00    +0.134 A 
ATOM      5  C   LIG A   1      -7.966  -1.067 125.621  0.00  0.00    +0.059 A 
ATOM      6  C   LIG A   1      -7.317  -1.023 126.873  0.00  0.00    +0.147 A 
ATOM      7  O   LIG A   1      -6.352  -0.083 127.148  0.00  0.00    -0.481 OA
ATOM      8  C   LIG A   1      -6.318   1.127 126.357  0.00  0.00    +0.123 C 
ATOM      9  C   LIG A   1      -7.123   2.205 127.095  0.00  0.00    +0.060 C 
ATOM     10  C   LIG A   1      -4.845   1.552 126.289  0.00  0.00    +0.060 C 
ATOM     11  C   LIG A   1      -6.853   0.964 124.961  0.00  0.00    +0.020 C 
ATOM     12  C   LIG A   1      -7.622  -0.068 124.607  0.00  0.00    +0.015 C 
ENDROOT
BRANCH   1  14
ATOM     13  O   LIG A   1      -6.450  -3.100 129.572  0.00  0.00    -0.287 OA
ATOM     14  C   LIG A   1      -6.963  -2.051 129.192  0.00  0.00    +0.193 C 
BRANCH  14  15
ATOM     15  C   LIG A   1      -7.106  -0.887 130.098  0.00  0.00    +0.052 C 
ATOM     16  C   LIG A   1      -8.266  -0.638 130.727  0.00  0.00    +0.012 C 
BRANCH  16  17
ATOM     17  C   LIG A   1      -8.454   0.532 131.595  0.00  0.00    -0.025 A 
ATOM     18  C   LIG A   1      -7.398   0.992 132.389  0.00  0.00    +0.011 A 
ATOM     19  C   LIG A   1      -7.570   2.095 133.237  0.00  0.00    +0.046 A 
ATOM     20  C   LIG A   1      -8.795   2.762 133.284  0.00  0.00    +0.120 A 
ATOM     21  C   LIG A   1      -9.848   2.313 132.491  0.00  0.00    +0.046 A 
ATOM     22  C   LIG A   1      -9.672   1.220 131.642  0.00  0.00    +0.011 A 
BRANCH  20  23
ATOM     23  O   LIG A   1      -9.086   3.828 134.087  0.00  0.00    -0.495 OA
ATOM     24  C   LIG A   1      -7.961   4.494 134.648  0.00  0.00    +0.277 C 
ENDBRANCH  20  23
ENDBRANCH  16  17
ENDBRANCH  14  15
ENDBRANCH   1  14
BRANCH   4  25
ATOM     25  O   LIG A   1      -9.512  -2.050 124.110  0.00  0.00    -0.494 OA
ATOM     26  C   LIG A   1      -9.516  -3.262 123.363  0.00  0.00    +0.277 C 
ENDBRANCH   4  25
BRANCH   2  27
ATOM     27  O   LIG A   1      -8.881  -3.996 128.428  0.00  0.00    -0.506 OA
ATOM     28  H   LIG A   1      -9.861  -4.001 128.522  0.00  0.00    +0.292 HD
ENDBRANCH   2  27
TORSDOF 6
ENDMDL
MODEL 9
REMARK VINA RESULT:      -7.2      8.275      9.763
REMARK  Name = NuBBE_1302
REMARK  10 active torsions:
REMARK  status: ('A' for Active; 'I' for Inactive)
REMARK    1  A    between atoms: C_2  and  C_3
REMARK    2  A    between atoms: C_2  and  C_13
REMARK    3  A    between atoms: C_4  and  C_5
REMARK    4  A    between atoms: C_8  and  O_11
REMARK    5  A    between atoms: O_11  and  C_12
REMARK    6  A    between atoms: C_14  and  O_27
REMARK    7  A    between atoms: C_16  and  O_25
REMARK    8  A    between atoms: C_20  and  C_21
REMARK    9  A    between atoms: C_20  and  C_22
REMARK   10  A    between atoms: O_25  and  C_26
REMARK                            x       y       z     vdW  Elec       q    Type
REMARK                         _______ _______ _______ _____ _____    ______ ____
ROOT
ATOM      1  C   LIG A   1      -6.937   4.109 132.980  0.00  0.00    +0.105 A 
ATOM      2  C   LIG A   1      -7.324   2.762 132.895  0.00  0.00    +0.135 A 
ATOM      3  C   LIG A   1      -6.500   1.807 132.306  0.00  0.00    +0.092 A 
ATOM      4  C   LIG A   1      -5.246   2.169 131.814  0.00  0.00    +0.134 A 
ATOM      5  C   LIG A   1      -4.829   3.516 131.901  0.00  0.00    +0.059 A 
ATOM      6  C   LIG A   1      -5.679   4.487 132.473  0.00  0.00    +0.147 A 
ATOM      7  O   LIG A   1      -5.282   5.796 132.613  0.00  0.00    -0.481 OA
ATOM      8  C   LIG A   1      -4.205   6.285 131.781  0.00  0.00    +0.123 C 
ATOM      9  C   LIG A   1      -4.820   6.941 130.538  0.00  0.00    +0.060 C 
ATOM     10  C   LIG A   1      -3.477   7.353 132.609  0.00  0.00    +0.060 C 
ATOM     11  C   LIG A   1      -3.223   5.227 131.360  0.00  0.00    +0.020 C 
ATOM     12  C   LIG A   1      -3.507   3.924 131.421  0.00  0.00    +0.015 C 
ENDROOT
BRANCH   1  14
ATOM     13  O   LIG A   1      -8.138   4.947 134.814  0.00  0.00    -0.287 OA
ATOM     14  C   LIG A   1      -7.902   5.049 133.614  0.00  0.00    +0.193 C 
BRANCH  14  15
ATOM     15  C   LIG A   1      -8.671   5.976 132.750  0.00  0.00    +0.052 C 
ATOM     16  C   LIG A   1      -9.862   5.621 132.242  0.00  0.00    +0.012 C 
BRANCH  16  17
ATOM     17  C   LIG A   1     -10.627   6.499 131.346  0.00  0.00    -0.025 A 
ATOM     18  C   LIG A   1     -10.016   7.054 130.218  0.00  0.00    +0.011 A 
ATOM     19  C   LIG A   1     -10.729   7.909 129.367  0.00  0.00    +0.046 A 
ATOM     20  C   LIG A   1     -12.069   8.201 129.625  0.00  0.00    +0.120 A 
ATOM     21  C   LIG A   1     -12.686   7.645 130.743  0.00  0.00    +0.046 A 
ATOM     22  C   LIG A   1     -11.976   6.788 131.584  0.00  0.00    +0.011 A 
BRANCH  20  23
ATOM     23  O   LIG A   1     -12.855   9.037 128.883  0.00  0.00    -0.495 OA
ATOM     24  C   LIG A   1     -13.274  10.226 129.544  0.00  0.00    +0.277 C 
ENDBRANCH  20  23
ENDBRANCH  16  17
ENDBRANCH  14  15
ENDBRANCH   1  14
BRANCH   4  25
ATOM     25  O   LIG A   1      -4.365   1.283 131.242  0.00  0.00    -0.494 OA
ATOM     26  C   LIG A   1      -4.076   0.090 131.962  0.00  0.00    +0.277 C 
ENDBRANCH   4  25
BRANCH   2  27
ATOM     27  O   LIG A   1      -8.525   2.293 133.366  0.00  0.00    -0.506 OA
ATOM     28  H   LIG A   1      -8.505   1.310 133.326  0.00  0.00    +0.292 HD
ENDBRANCH   2  27
TORSDOF 6
ENDMDL
