MODEL 1
REMARK VINA RESULT:      -8.0      0.000      0.000
REMARK  Name = NuBBE_928
REMARK  12 active torsions:
REMARK  status: ('A' for Active; 'I' for Inactive)
REMARK    1  A    between atoms: C_1  and  C_2
REMARK    2  A    between atoms: C_12  and  C_14
REMARK    3  A    between atoms: C_15  and  O_19
REMARK    4  A    between atoms: C_22  and  C_23
REMARK    5  A    between atoms: C_24  and  C_28
REMARK    6  A    between atoms: C_28  and  C_30
REMARK    7  A    between atoms: C_28  and  C_37
REMARK    8  A    between atoms: C_30  and  C_31
REMARK    9  A    between atoms: C_31  and  C_32
REMARK   10  A    between atoms: C_32  and  C_34
REMARK   11  A    between atoms: C_34  and  C_35
REMARK   12  A    between atoms: C_34  and  C_36
REMARK                            x       y       z     vdW  Elec       q    Type
REMARK                         _______ _______ _______ _____ _____    ______ ____
ROOT
ATOM      1  C   LIG A   1      -4.440   2.798 126.164  0.00  0.00    +0.012 C 
ATOM      2  C   LIG A   1      -5.354   2.061 127.164  0.00  0.00    -0.023 C 
ATOM      3  C   LIG A   1      -6.011   0.804 126.476  0.00  0.00    +0.002 C 
ATOM      4  C   LIG A   1      -7.108   1.186 125.479  0.00  0.00    -0.019 C 
ATOM      5  C   LIG A   1      -7.593   0.086 124.508  0.00  0.00    -0.020 C 
ATOM      6  C   LIG A   1      -6.855   1.312 123.993  0.00  0.00    +0.015 C 
ATOM      7  C   LIG A   1      -6.840  -1.257 124.384  0.00  0.00    +0.001 C 
ATOM      8  C   LIG A   1      -5.755  -1.458 125.457  0.00  0.00    +0.005 C 
ATOM      9  C   LIG A   1      -5.015  -0.188 125.856  0.00  0.00    +0.005 C 
ATOM     10  C   LIG A   1      -7.835  -2.454 124.409  0.00  0.00    +0.018 C 
ATOM     11  C   LIG A   1      -7.142  -3.821 124.306  0.00  0.00    +0.010 C 
ATOM     12  C   LIG A   1      -8.891  -2.339 123.292  0.00  0.00    +0.118 C 
ATOM     13  C   LIG A   1      -9.378  -0.916 123.037  0.00  0.00    +0.032 C 
ATOM     14  C   LIG A   1      -9.088   0.002 124.213  0.00  0.00    +0.010 C 
ATOM     15  C   LIG A   1      -8.158   2.091 126.085  0.00  0.00    +0.008 C 
ATOM     16  C   LIG A   1      -7.565   3.288 126.806  0.00  0.00    +0.008 C 
ATOM     17  C   LIG A   1      -6.460   2.979 127.827  0.00  0.00    -0.023 C 
ATOM     18  C   LIG A   1      -5.893   4.380 128.231  0.00  0.00    +0.012 C 
ATOM     19  C   LIG A   1      -6.819   2.255 129.202  0.00  0.00    -0.002 C 
ATOM     20  C   LIG A   1      -5.558   1.390 129.497  0.00  0.00    +0.005 C 
ATOM     21  C   LIG A   1      -4.532   1.659 128.403  0.00  0.00    +0.008 C 
ENDROOT
BRANCH  12  22
ATOM     22  O   LIG A   1     -10.012  -3.163 123.626  0.00  0.00    -0.392 OA
ATOM     23  H   LIG A   1     -10.819  -2.695 123.348  0.00  0.00    +0.210 HD
ENDBRANCH  12  22
BRANCH  19  24
ATOM     24  C   LIG A   1      -8.147   1.443 129.455  0.00  0.00    -0.010 C 
ATOM     25  C   LIG A   1      -8.928   1.932 130.682  0.00  0.00    +0.008 C 
BRANCH  24  26
ATOM     26  C   LIG A   1      -7.826  -0.071 129.685  0.00  0.00    +0.008 C 
BRANCH  26  27
ATOM     27  C   LIG A   1      -8.016  -0.995 128.456  0.00  0.00    +0.030 C 
BRANCH  27  28
ATOM     28  C   LIG A   1      -7.571  -2.444 128.615  0.00  0.00    -0.074 C 
ATOM     29  C   LIG A   1      -8.233  -3.467 128.021  0.00  0.00    +0.008 C 
BRANCH  28  30
ATOM     30  C   LIG A   1      -6.337  -2.735 129.477  0.00  0.00    +0.008 C 
ATOM     31  C   LIG A   1      -6.386  -4.117 130.143  0.00  0.00    +0.012 C 
ATOM     32  C   LIG A   1      -5.008  -2.605 128.722  0.00  0.00    +0.012 C 
ENDBRANCH  28  30
ENDBRANCH  27  28
ENDBRANCH  26  27
ENDBRANCH  24  26
ENDBRANCH  19  24
TORSDOF 6
ENDMDL
MODEL 2
REMARK VINA RESULT:      -7.9      2.847      6.649
REMARK  Name = NuBBE_928
REMARK  12 active torsions:
REMARK  status: ('A' for Active; 'I' for Inactive)
REMARK    1  A    between atoms: C_1  and  C_2
REMARK    2  A    between atoms: C_12  and  C_14
REMARK    3  A    between atoms: C_15  and  O_19
REMARK    4  A    between atoms: C_22  and  C_23
REMARK    5  A    between atoms: C_24  and  C_28
REMARK    6  A    between atoms: C_28  and  C_30
REMARK    7  A    between atoms: C_28  and  C_37
REMARK    8  A    between atoms: C_30  and  C_31
REMARK    9  A    between atoms: C_31  and  C_32
REMARK   10  A    between atoms: C_32  and  C_34
REMARK   11  A    between atoms: C_34  and  C_35
REMARK   12  A    between atoms: C_34  and  C_36
REMARK                            x       y       z     vdW  Elec       q    Type
REMARK                         _______ _______ _______ _____ _____    ______ ____
ROOT
ATOM      1  C   LIG A   1      -4.263  -1.483 131.056  0.00  0.00    +0.012 C 
ATOM      2  C   LIG A   1      -5.364  -1.626 129.986  0.00  0.00    -0.023 C 
ATOM      3  C   LIG A   1      -6.284  -0.346 129.975  0.00  0.00    +0.002 C 
ATOM      4  C   LIG A   1      -7.220  -0.285 131.185  0.00  0.00    -0.019 C 
ATOM      5  C   LIG A   1      -7.925   1.061 131.465  0.00  0.00    -0.020 C 
ATOM      6  C   LIG A   1      -6.892   0.505 132.433  0.00  0.00    +0.015 C 
ATOM      7  C   LIG A   1      -7.519   2.346 130.710  0.00  0.00    +0.001 C 
ATOM      8  C   LIG A   1      -6.553   2.094 129.538  0.00  0.00    +0.005 C 
ATOM      9  C   LIG A   1      -5.540   0.983 129.778  0.00  0.00    +0.005 C 
ATOM     10  C   LIG A   1      -8.776   3.111 130.202  0.00  0.00    +0.018 C 
ATOM     11  C   LIG A   1      -8.435   4.392 129.427  0.00  0.00    +0.010 C 
ATOM     12  C   LIG A   1      -9.732   3.461 131.359  0.00  0.00    +0.118 C 
ATOM     13  C   LIG A   1      -9.849   2.377 132.425  0.00  0.00    +0.032 C 
ATOM     14  C   LIG A   1      -9.384   1.025 131.910  0.00  0.00    +0.010 C 
ATOM     15  C   LIG A   1      -8.036  -1.546 131.356  0.00  0.00    +0.008 C 
ATOM     16  C   LIG A   1      -7.194  -2.809 131.317  0.00  0.00    +0.008 C 
ATOM     17  C   LIG A   1      -6.234  -2.941 130.125  0.00  0.00    -0.023 C 
ATOM     18  C   LIG A   1      -5.356  -4.191 130.462  0.00  0.00    +0.012 C 
ATOM     19  C   LIG A   1      -6.807  -3.207 128.661  0.00  0.00    -0.002 C 
ATOM     20  C   LIG A   1      -5.806  -2.452 127.736  0.00  0.00    +0.005 C 
ATOM     21  C   LIG A   1      -4.708  -1.859 128.611  0.00  0.00    +0.008 C 
ENDROOT
BRANCH  12  22
ATOM     22  O   LIG A   1     -11.032   3.729 130.822  0.00  0.00    -0.392 OA
ATOM     23  H   LIG A   1     -11.348   2.917 130.389  0.00  0.00    +0.210 HD
ENDBRANCH  12  22
BRANCH  19  24
ATOM     24  C   LIG A   1      -8.301  -2.942 128.231  0.00  0.00    -0.010 C 
ATOM     25  C   LIG A   1      -9.123  -4.229 128.080  0.00  0.00    +0.008 C 
BRANCH  24  26
ATOM     26  C   LIG A   1      -8.349  -2.198 126.855  0.00  0.00    +0.008 C 
BRANCH  26  27
ATOM     27  C   LIG A   1      -9.233  -2.854 125.765  0.00  0.00    +0.030 C 
BRANCH  27  28
ATOM     28  C   LIG A   1      -8.677  -2.860 124.346  0.00  0.00    -0.074 C 
ATOM     29  C   LIG A   1      -9.437  -3.211 123.279  0.00  0.00    +0.008 C 
BRANCH  28  30
ATOM     30  C   LIG A   1      -7.213  -2.456 124.138  0.00  0.00    +0.008 C 
ATOM     31  C   LIG A   1      -6.248  -3.647 124.218  0.00  0.00    +0.012 C 
ATOM     32  C   LIG A   1      -6.956  -1.710 122.823  0.00  0.00    +0.012 C 
ENDBRANCH  28  30
ENDBRANCH  27  28
ENDBRANCH  26  27
ENDBRANCH  24  26
ENDBRANCH  19  24
TORSDOF 6
ENDMDL
MODEL 3
REMARK VINA RESULT:      -7.8      1.694      4.503
REMARK  Name = NuBBE_928
REMARK  12 active torsions:
REMARK  status: ('A' for Active; 'I' for Inactive)
REMARK    1  A    between atoms: C_1  and  C_2
REMARK    2  A    between atoms: C_12  and  C_14
REMARK    3  A    between atoms: C_15  and  O_19
REMARK    4  A    between atoms: C_22  and  C_23
REMARK    5  A    between atoms: C_24  and  C_28
REMARK    6  A    between atoms: C_28  and  C_30
REMARK    7  A    between atoms: C_28  and  C_37
REMARK    8  A    between atoms: C_30  and  C_31
REMARK    9  A    between atoms: C_31  and  C_32
REMARK   10  A    between atoms: C_32  and  C_34
REMARK   11  A    between atoms: C_34  and  C_35
REMARK   12  A    between atoms: C_34  and  C_36
REMARK                            x       y       z     vdW  Elec       q    Type
REMARK                         _______ _______ _______ _____ _____    ______ ____
ROOT
ATOM      1  C   LIG A   1      -6.344  -2.351 130.980  0.00  0.00    +0.012 C 
ATOM      2  C   LIG A   1      -7.020  -1.137 130.311  0.00  0.00    -0.023 C 
ATOM      3  C   LIG A   1      -7.317  -1.446 128.794  0.00  0.00    +0.002 C 
ATOM      4  C   LIG A   1      -6.050  -1.440 127.935  0.00  0.00    -0.019 C 
ATOM      5  C   LIG A   1      -6.156  -2.047 126.517  0.00  0.00    -0.020 C 
ATOM      6  C   LIG A   1      -5.294  -2.703 127.585  0.00  0.00    +0.015 C 
ATOM      7  C   LIG A   1      -7.408  -2.840 126.080  0.00  0.00    +0.001 C 
ATOM      8  C   LIG A   1      -8.575  -2.751 127.081  0.00  0.00    +0.005 C 
ATOM      9  C   LIG A   1      -8.155  -2.710 128.544  0.00  0.00    +0.005 C 
ATOM     10  C   LIG A   1      -7.886  -2.387 124.670  0.00  0.00    +0.018 C 
ATOM     11  C   LIG A   1      -9.140  -3.129 124.187  0.00  0.00    +0.010 C 
ATOM     12  C   LIG A   1      -6.772  -2.541 123.616  0.00  0.00    +0.118 C 
ATOM     13  C   LIG A   1      -5.377  -2.191 124.124  0.00  0.00    +0.032 C 
ATOM     14  C   LIG A   1      -5.430  -1.336 125.379  0.00  0.00    +0.010 C 
ATOM     15  C   LIG A   1      -5.247  -0.169 128.088  0.00  0.00    +0.008 C 
ATOM     16  C   LIG A   1      -4.985   0.197 129.538  0.00  0.00    +0.008 C 
ATOM     17  C   LIG A   1      -6.214   0.217 130.459  0.00  0.00    -0.023 C 
ATOM     18  C   LIG A   1      -5.625   0.392 131.899  0.00  0.00    +0.012 C 
ATOM     19  C   LIG A   1      -7.311   1.363 130.307  0.00  0.00    -0.002 C 
ATOM     20  C   LIG A   1      -8.642   0.644 130.678  0.00  0.00    +0.005 C 
ATOM     21  C   LIG A   1      -8.311  -0.789 131.077  0.00  0.00    +0.008 C 
ENDROOT
BRANCH  12  22
ATOM     22  O   LIG A   1      -7.080  -1.714 122.490  0.00  0.00    -0.392 OA
ATOM     23  H   LIG A   1      -6.588  -0.880 122.590  0.00  0.00    +0.210 HD
ENDBRANCH  12  22
BRANCH  19  24
ATOM     24  C   LIG A   1      -7.480   2.264 129.024  0.00  0.00    -0.010 C 
ATOM     25  C   LIG A   1      -8.114   3.629 129.324  0.00  0.00    +0.008 C 
BRANCH  24  26
ATOM     26  C   LIG A   1      -8.394   1.551 127.973  0.00  0.00    +0.008 C 
BRANCH  26  27
ATOM     27  C   LIG A   1      -7.852   1.512 126.523  0.00  0.00    +0.030 C 
BRANCH  27  28
ATOM     28  C   LIG A   1      -8.800   0.987 125.452  0.00  0.00    -0.074 C 
ATOM     29  C   LIG A   1      -9.983   0.402 125.764  0.00  0.00    +0.008 C 
BRANCH  28  30
ATOM     30  C   LIG A   1      -8.387   1.129 123.982  0.00  0.00    +0.008 C 
ATOM     31  C   LIG A   1      -9.353   2.005 123.172  0.00  0.00    +0.012 C 
ATOM     32  C   LIG A   1      -6.963   1.667 123.787  0.00  0.00    +0.012 C 
ENDBRANCH  28  30
ENDBRANCH  27  28
ENDBRANCH  26  27
ENDBRANCH  24  26
ENDBRANCH  19  24
TORSDOF 6
ENDMDL
MODEL 4
REMARK VINA RESULT:      -7.5      3.793      7.733
REMARK  Name = NuBBE_928
REMARK  12 active torsions:
REMARK  status: ('A' for Active; 'I' for Inactive)
REMARK    1  A    between atoms: C_1  and  C_2
REMARK    2  A    between atoms: C_12  and  C_14
REMARK    3  A    between atoms: C_15  and  O_19
REMARK    4  A    between atoms: C_22  and  C_23
REMARK    5  A    between atoms: C_24  and  C_28
REMARK    6  A    between atoms: C_28  and  C_30
REMARK    7  A    between atoms: C_28  and  C_37
REMARK    8  A    between atoms: C_30  and  C_31
REMARK    9  A    between atoms: C_31  and  C_32
REMARK   10  A    between atoms: C_32  and  C_34
REMARK   11  A    between atoms: C_34  and  C_35
REMARK   12  A    between atoms: C_34  and  C_36
REMARK                            x       y       z     vdW  Elec       q    Type
REMARK                         _______ _______ _______ _____ _____    ______ ____
ROOT
ATOM      1  C   LIG A   1      -3.447   7.761 131.959  0.00  0.00    +0.012 C 
ATOM      2  C   LIG A   1      -3.722   6.839 130.754  0.00  0.00    -0.023 C 
ATOM      3  C   LIG A   1      -5.130   6.146 130.908  0.00  0.00    +0.002 C 
ATOM      4  C   LIG A   1      -5.132   5.049 131.976  0.00  0.00    -0.019 C 
ATOM      5  C   LIG A   1      -6.507   4.530 132.452  0.00  0.00    -0.020 C 
ATOM      6  C   LIG A   1      -5.591   5.292 133.397  0.00  0.00    +0.015 C 
ATOM      7  C   LIG A   1      -7.814   5.251 132.053  0.00  0.00    +0.001 C 
ATOM      8  C   LIG A   1      -7.615   6.341 130.984  0.00  0.00    +0.005 C 
ATOM      9  C   LIG A   1      -6.309   7.114 131.101  0.00  0.00    +0.005 C 
ATOM     10  C   LIG A   1      -8.885   4.229 131.571  0.00  0.00    +0.018 C 
ATOM     11  C   LIG A   1     -10.204   4.889 131.144  0.00  0.00    +0.010 C 
ATOM     12  C   LIG A   1      -9.179   3.166 132.648  0.00  0.00    +0.118 C 
ATOM     13  C   LIG A   1      -7.951   2.709 133.428  0.00  0.00    +0.032 C 
ATOM     14  C   LIG A   1      -6.661   3.031 132.693  0.00  0.00    +0.010 C 
ATOM     15  C   LIG A   1      -4.038   4.027 131.763  0.00  0.00    +0.008 C 
ATOM     16  C   LIG A   1      -2.671   4.654 131.555  0.00  0.00    +0.008 C 
ATOM     17  C   LIG A   1      -2.594   5.761 130.492  0.00  0.00    -0.023 C 
ATOM     18  C   LIG A   1      -1.159   6.364 130.656  0.00  0.00    +0.012 C 
ATOM     19  C   LIG A   1      -2.728   5.397 128.946  0.00  0.00    -0.002 C 
ATOM     20  C   LIG A   1      -3.444   6.641 128.341  0.00  0.00    +0.005 C 
ATOM     21  C   LIG A   1      -3.640   7.663 129.455  0.00  0.00    +0.008 C 
ENDROOT
BRANCH  12  22
ATOM     22  O   LIG A   1      -9.785   2.029 132.024  0.00  0.00    -0.392 OA
ATOM     23  H   LIG A   1      -9.949   1.363 132.715  0.00  0.00    +0.210 HD
ENDBRANCH  12  22
BRANCH  19  24
ATOM     24  C   LIG A   1      -3.348   4.053 128.401  0.00  0.00    -0.010 C 
ATOM     25  C   LIG A   1      -2.434   3.329 127.404  0.00  0.00    +0.008 C 
BRANCH  24  26
ATOM     26  C   LIG A   1      -4.701   4.334 127.669  0.00  0.00    +0.008 C 
BRANCH  26  27
ATOM     27  C   LIG A   1      -5.983   3.952 128.451  0.00  0.00    +0.030 C 
BRANCH  27  28
ATOM     28  C   LIG A   1      -6.394   2.485 128.416  0.00  0.00    -0.074 C 
ATOM     29  C   LIG A   1      -6.923   1.914 127.305  0.00  0.00    +0.008 C 
BRANCH  28  30
ATOM     30  C   LIG A   1      -6.200   1.645 129.684  0.00  0.00    +0.008 C 
ATOM     31  C   LIG A   1      -7.312   0.607 129.889  0.00  0.00    +0.012 C 
ATOM     32  C   LIG A   1      -4.846   0.928 129.751  0.00  0.00    +0.012 C 
ENDBRANCH  28  30
ENDBRANCH  27  28
ENDBRANCH  26  27
ENDBRANCH  24  26
ENDBRANCH  19  24
TORSDOF 6
ENDMDL
MODEL 5
REMARK VINA RESULT:      -7.4      2.731      6.920
REMARK  Name = NuBBE_928
REMARK  12 active torsions:
REMARK  status: ('A' for Active; 'I' for Inactive)
REMARK    1  A    between atoms: C_1  and  C_2
REMARK    2  A    between atoms: C_12  and  C_14
REMARK    3  A    between atoms: C_15  and  O_19
REMARK    4  A    between atoms: C_22  and  C_23
REMARK    5  A    between atoms: C_24  and  C_28
REMARK    6  A    between atoms: C_28  and  C_30
REMARK    7  A    between atoms: C_28  and  C_37
REMARK    8  A    between atoms: C_30  and  C_31
REMARK    9  A    between atoms: C_31  and  C_32
REMARK   10  A    between atoms: C_32  and  C_34
REMARK   11  A    between atoms: C_34  and  C_35
REMARK   12  A    between atoms: C_34  and  C_36
REMARK                            x       y       z     vdW  Elec       q    Type
REMARK                         _______ _______ _______ _____ _____    ______ ____
ROOT
ATOM      1  C   LIG A   1      -4.072  -2.121 132.144  0.00  0.00    +0.012 C 
ATOM      2  C   LIG A   1      -4.940  -2.007 130.874  0.00  0.00    -0.023 C 
ATOM      3  C   LIG A   1      -5.624  -0.588 130.807  0.00  0.00    +0.002 C 
ATOM      4  C   LIG A   1      -6.765  -0.438 131.816  0.00  0.00    -0.019 C 
ATOM      5  C   LIG A   1      -7.291   0.991 132.080  0.00  0.00    -0.020 C 
ATOM      6  C   LIG A   1      -6.578   0.207 133.171  0.00  0.00    +0.015 C 
ATOM      7  C   LIG A   1      -6.541   2.229 131.539  0.00  0.00    +0.001 C 
ATOM      8  C   LIG A   1      -5.408   1.884 130.556  0.00  0.00    +0.005 C 
ATOM      9  C   LIG A   1      -4.654   0.601 130.881  0.00  0.00    +0.005 C 
ATOM     10  C   LIG A   1      -7.531   3.229 130.874  0.00  0.00    +0.018 C 
ATOM     11  C   LIG A   1      -6.840   4.476 130.302  0.00  0.00    +0.010 C 
ATOM     12  C   LIG A   1      -8.636   3.670 131.854  0.00  0.00    +0.118 C 
ATOM     13  C   LIG A   1      -9.138   2.561 132.773  0.00  0.00    +0.032 C 
ATOM     14  C   LIG A   1      -8.797   1.181 132.232  0.00  0.00    +0.010 C 
ATOM     15  C   LIG A   1      -7.788  -1.546 131.709  0.00  0.00    +0.008 C 
ATOM     16  C   LIG A   1      -7.166  -2.931 131.714  0.00  0.00    +0.008 C 
ATOM     17  C   LIG A   1      -6.016  -3.156 130.721  0.00  0.00    -0.023 C 
ATOM     18  C   LIG A   1      -5.435  -4.558 131.102  0.00  0.00    +0.012 C 
ATOM     19  C   LIG A   1      -6.313  -3.231 129.156  0.00  0.00    -0.002 C 
ATOM     20  C   LIG A   1      -5.038  -2.607 128.515  0.00  0.00    +0.005 C 
ATOM     21  C   LIG A   1      -4.062  -2.268 129.635  0.00  0.00    +0.008 C 
ENDROOT
BRANCH  12  22
ATOM     22  O   LIG A   1      -9.739   4.191 131.106  0.00  0.00    -0.392 OA
ATOM     23  H   LIG A   1      -9.382   4.631 130.316  0.00  0.00    +0.210 HD
ENDBRANCH  12  22
BRANCH  19  24
ATOM     24  C   LIG A   1      -7.626  -2.685 128.475  0.00  0.00    -0.010 C 
ATOM     25  C   LIG A   1      -8.787  -3.688 128.514  0.00  0.00    +0.008 C 
BRANCH  24  26
ATOM     26  C   LIG A   1      -7.360  -2.344 126.972  0.00  0.00    +0.008 C 
BRANCH  26  27
ATOM     27  C   LIG A   1      -7.785  -0.925 126.517  0.00  0.00    +0.030 C 
BRANCH  27  28
ATOM     28  C   LIG A   1      -7.327   0.238 127.389  0.00  0.00    -0.074 C 
ATOM     29  C   LIG A   1      -8.120   0.769 128.352  0.00  0.00    +0.008 C 
BRANCH  28  30
ATOM     30  C   LIG A   1      -5.926   0.815 127.154  0.00  0.00    +0.008 C 
ATOM     31  C   LIG A   1      -5.178   0.120 126.007  0.00  0.00    +0.012 C 
ATOM     32  C   LIG A   1      -5.912   2.327 126.897  0.00  0.00    +0.012 C 
ENDBRANCH  28  30
ENDBRANCH  27  28
ENDBRANCH  26  27
ENDBRANCH  24  26
ENDBRANCH  19  24
TORSDOF 6
ENDMDL
MODEL 6
REMARK VINA RESULT:      -7.3      2.317      5.853
REMARK  Name = NuBBE_928
REMARK  12 active torsions:
REMARK  status: ('A' for Active; 'I' for Inactive)
REMARK    1  A    between atoms: C_1  and  C_2
REMARK    2  A    between atoms: C_12  and  C_14
REMARK    3  A    between atoms: C_15  and  O_19
REMARK    4  A    between atoms: C_22  and  C_23
REMARK    5  A    between atoms: C_24  and  C_28
REMARK    6  A    between atoms: C_28  and  C_30
REMARK    7  A    between atoms: C_28  and  C_37
REMARK    8  A    between atoms: C_30  and  C_31
REMARK    9  A    between atoms: C_31  and  C_32
REMARK   10  A    between atoms: C_32  and  C_34
REMARK   11  A    between atoms: C_34  and  C_35
REMARK   12  A    between atoms: C_34  and  C_36
REMARK                            x       y       z     vdW  Elec       q    Type
REMARK                         _______ _______ _______ _____ _____    ______ ____
ROOT
ATOM      1  C   LIG A   1      -8.690  -2.246 123.715  0.00  0.00    +0.012 C 
ATOM      2  C   LIG A   1      -7.880  -0.984 124.077  0.00  0.00    -0.023 C 
ATOM      3  C   LIG A   1      -7.084  -1.215 125.417  0.00  0.00    +0.002 C 
ATOM      4  C   LIG A   1      -7.991  -1.203 126.650  0.00  0.00    -0.019 C 
ATOM      5  C   LIG A   1      -7.394  -1.740 127.971  0.00  0.00    -0.020 C 
ATOM      6  C   LIG A   1      -8.535  -2.468 127.276  0.00  0.00    +0.015 C 
ATOM      7  C   LIG A   1      -6.037  -2.477 127.991  0.00  0.00    +0.001 C 
ATOM      8  C   LIG A   1      -5.274  -2.403 126.656  0.00  0.00    +0.005 C 
ATOM      9  C   LIG A   1      -6.159  -2.442 125.417  0.00  0.00    +0.005 C 
ATOM     10  C   LIG A   1      -5.136  -1.946 129.143  0.00  0.00    +0.018 C 
ATOM     11  C   LIG A   1      -3.763  -2.631 129.205  0.00  0.00    +0.010 C 
ATOM     12  C   LIG A   1      -5.828  -2.082 130.514  0.00  0.00    +0.118 C 
ATOM     13  C   LIG A   1      -7.326  -1.793 130.490  0.00  0.00    +0.032 C 
ATOM     14  C   LIG A   1      -7.729  -0.996 129.260  0.00  0.00    +0.010 C 
ATOM     15  C   LIG A   1      -8.851   0.038 126.730  0.00  0.00    +0.008 C 
ATOM     16  C   LIG A   1      -9.596   0.328 125.439  0.00  0.00    +0.008 C 
ATOM     17  C   LIG A   1      -8.745   0.338 124.159  0.00  0.00    -0.023 C 
ATOM     18  C   LIG A   1      -9.787   0.430 122.995  0.00  0.00    +0.012 C 
ATOM     19  C   LIG A   1      -7.709   1.520 123.896  0.00  0.00    -0.002 C 
ATOM     20  C   LIG A   1      -6.549   0.821 123.127  0.00  0.00    +0.005 C 
ATOM     21  C   LIG A   1      -6.934  -0.637 122.912  0.00  0.00    +0.008 C 
ENDROOT
BRANCH  12  22
ATOM     22  O   LIG A   1      -5.197  -1.194 131.443  0.00  0.00    -0.392 OA
ATOM     23  H   LIG A   1      -4.758  -0.492 130.933  0.00  0.00    +0.210 HD
ENDBRANCH  12  22
BRANCH  19  24
ATOM     24  C   LIG A   1      -7.159   2.484 125.017  0.00  0.00    -0.010 C 
ATOM     25  C   LIG A   1      -7.216   3.965 124.620  0.00  0.00    +0.008 C 
BRANCH  24  26
ATOM     26  C   LIG A   1      -5.666   2.148 125.341  0.00  0.00    +0.008 C 
BRANCH  26  27
ATOM     27  C   LIG A   1      -5.391   1.602 126.764  0.00  0.00    +0.030 C 
BRANCH  27  28
ATOM     28  C   LIG A   1      -4.318   2.317 127.576  0.00  0.00    -0.074 C 
ATOM     29  C   LIG A   1      -4.137   2.074 128.898  0.00  0.00    +0.008 C 
BRANCH  28  30
ATOM     30  C   LIG A   1      -3.427   3.340 126.861  0.00  0.00    +0.008 C 
ATOM     31  C   LIG A   1      -3.653   4.776 127.354  0.00  0.00    +0.012 C 
ATOM     32  C   LIG A   1      -1.928   3.026 126.949  0.00  0.00    +0.012 C 
ENDBRANCH  28  30
ENDBRANCH  27  28
ENDBRANCH  26  27
ENDBRANCH  24  26
ENDBRANCH  19  24
TORSDOF 6
ENDMDL
MODEL 7
REMARK VINA RESULT:      -7.2      5.601      8.313
REMARK  Name = NuBBE_928
REMARK  12 active torsions:
REMARK  status: ('A' for Active; 'I' for Inactive)
REMARK    1  A    between atoms: C_1  and  C_2
REMARK    2  A    between atoms: C_12  and  C_14
REMARK    3  A    between atoms: C_15  and  O_19
REMARK    4  A    between atoms: C_22  and  C_23
REMARK    5  A    between atoms: C_24  and  C_28
REMARK    6  A    between atoms: C_28  and  C_30
REMARK    7  A    between atoms: C_28  and  C_37
REMARK    8  A    between atoms: C_30  and  C_31
REMARK    9  A    between atoms: C_31  and  C_32
REMARK   10  A    between atoms: C_32  and  C_34
REMARK   11  A    between atoms: C_34  and  C_35
REMARK   12  A    between atoms: C_34  and  C_36
REMARK                            x       y       z     vdW  Elec       q    Type
REMARK                         _______ _______ _______ _____ _____    ______ ____
ROOT
ATOM      1  C   LIG A   1      -3.772   0.766 132.671  0.00  0.00    +0.012 C 
ATOM      2  C   LIG A   1      -5.125   1.369 132.238  0.00  0.00    -0.023 C 
ATOM      3  C   LIG A   1      -4.891   2.660 131.365  0.00  0.00    +0.002 C 
ATOM      4  C   LIG A   1      -4.422   3.856 132.199  0.00  0.00    -0.019 C 
ATOM      5  C   LIG A   1      -3.847   5.068 131.432  0.00  0.00    -0.020 C 
ATOM      6  C   LIG A   1      -2.964   4.230 132.344  0.00  0.00    +0.015 C 
ATOM      7  C   LIG A   1      -3.533   4.981 129.922  0.00  0.00    +0.001 C 
ATOM      8  C   LIG A   1      -4.059   3.697 129.255  0.00  0.00    +0.005 C 
ATOM      9  C   LIG A   1      -3.996   2.454 130.133  0.00  0.00    +0.005 C 
ATOM     10  C   LIG A   1      -4.080   6.229 129.170  0.00  0.00    +0.018 C 
ATOM     11  C   LIG A   1      -3.812   6.192 127.658  0.00  0.00    +0.010 C 
ATOM     12  C   LIG A   1      -3.509   7.537 129.751  0.00  0.00    +0.118 C 
ATOM     13  C   LIG A   1      -3.362   7.536 131.269  0.00  0.00    +0.032 C 
ATOM     14  C   LIG A   1      -4.220   6.465 131.920  0.00  0.00    +0.010 C 
ATOM     15  C   LIG A   1      -5.334   4.143 133.370  0.00  0.00    +0.008 C 
ATOM     16  C   LIG A   1      -5.630   2.912 134.208  0.00  0.00    +0.008 C 
ATOM     17  C   LIG A   1      -6.111   1.674 133.438  0.00  0.00    -0.023 C 
ATOM     18  C   LIG A   1      -6.114   0.525 134.500  0.00  0.00    +0.012 C 
ATOM     19  C   LIG A   1      -7.565   1.651 132.785  0.00  0.00    -0.002 C 
ATOM     20  C   LIG A   1      -7.374   0.791 131.501  0.00  0.00    +0.005 C 
ATOM     21  C   LIG A   1      -5.930   0.305 131.467  0.00  0.00    +0.008 C 
ENDROOT
BRANCH  12  22
ATOM     22  O   LIG A   1      -4.355   8.625 129.365  0.00  0.00    -0.392 OA
ATOM     23  H   LIG A   1      -4.690   8.439 128.470  0.00  0.00    +0.210 HD
ENDBRANCH  12  22
BRANCH  19  24
ATOM     24  C   LIG A   1      -8.426   2.940 132.492  0.00  0.00    -0.010 C 
ATOM     25  C   LIG A   1      -9.145   3.480 133.736  0.00  0.00    +0.008 C 
BRANCH  24  26
ATOM     26  C   LIG A   1      -9.523   2.632 131.421  0.00  0.00    +0.008 C 
BRANCH  26  27
ATOM     27  C   LIG A   1      -9.822   3.771 130.414  0.00  0.00    +0.030 C 
BRANCH  27  28
ATOM     28  C   LIG A   1      -8.680   4.734 130.113  0.00  0.00    -0.074 C 
ATOM     29  C   LIG A   1      -7.572   4.343 129.434  0.00  0.00    +0.008 C 
BRANCH  28  30
ATOM     30  C   LIG A   1      -8.802   6.182 130.600  0.00  0.00    +0.008 C 
ATOM     31  C   LIG A   1      -9.975   6.389 131.570  0.00  0.00    +0.012 C 
ATOM     32  C   LIG A   1      -7.527   6.726 131.257  0.00  0.00    +0.012 C 
ENDBRANCH  28  30
ENDBRANCH  27  28
ENDBRANCH  26  27
ENDBRANCH  24  26
ENDBRANCH  19  24
TORSDOF 6
ENDMDL
MODEL 8
REMARK VINA RESULT:      -6.9      4.848      8.446
REMARK  Name = NuBBE_928
REMARK  12 active torsions:
REMARK  status: ('A' for Active; 'I' for Inactive)
REMARK    1  A    between atoms: C_1  and  C_2
REMARK    2  A    between atoms: C_12  and  C_14
REMARK    3  A    between atoms: C_15  and  O_19
REMARK    4  A    between atoms: C_22  and  C_23
REMARK    5  A    between atoms: C_24  and  C_28
REMARK    6  A    between atoms: C_28  and  C_30
REMARK    7  A    between atoms: C_28  and  C_37
REMARK    8  A    between atoms: C_30  and  C_31
REMARK    9  A    between atoms: C_31  and  C_32
REMARK   10  A    between atoms: C_32  and  C_34
REMARK   11  A    between atoms: C_34  and  C_35
REMARK   12  A    between atoms: C_34  and  C_36
REMARK                            x       y       z     vdW  Elec       q    Type
REMARK                         _______ _______ _______ _____ _____    ______ ____
ROOT
ATOM      1  C   LIG A   1      -9.920   5.629 132.450  0.00  0.00    +0.012 C 
ATOM      2  C   LIG A   1      -9.027   4.397 132.201  0.00  0.00    -0.023 C 
ATOM      3  C   LIG A   1      -7.506   4.801 132.285  0.00  0.00    +0.002 C 
ATOM      4  C   LIG A   1      -7.044   5.605 131.067  0.00  0.00    -0.019 C 
ATOM      5  C   LIG A   1      -5.686   6.336 131.178  0.00  0.00    -0.020 C 
ATOM      6  C   LIG A   1      -6.986   7.116 131.059  0.00  0.00    +0.015 C 
ATOM      7  C   LIG A   1      -4.951   6.451 132.531  0.00  0.00    +0.001 C 
ATOM      8  C   LIG A   1      -5.572   5.591 133.647  0.00  0.00    +0.005 C 
ATOM      9  C   LIG A   1      -7.090   5.486 133.596  0.00  0.00    +0.005 C 
ATOM     10  C   LIG A   1      -3.443   6.102 132.374  0.00  0.00    +0.018 C 
ATOM     11  C   LIG A   1      -2.660   6.184 133.692  0.00  0.00    +0.010 C 
ATOM     12  C   LIG A   1      -2.758   7.001 131.325  0.00  0.00    +0.118 C 
ATOM     13  C   LIG A   1      -3.624   7.315 130.109  0.00  0.00    +0.032 C 
ATOM     14  C   LIG A   1      -4.769   6.326 129.959  0.00  0.00    +0.010 C 
ATOM     15  C   LIG A   1      -7.356   4.914 129.759  0.00  0.00    +0.008 C 
ATOM     16  C   LIG A   1      -8.801   4.458 129.659  0.00  0.00    +0.008 C 
ATOM     17  C   LIG A   1      -9.332   3.640 130.845  0.00  0.00    -0.023 C 
ATOM     18  C   LIG A   1     -10.869   3.512 130.579  0.00  0.00    +0.012 C 
ATOM     19  C   LIG A   1      -8.818   2.150 131.085  0.00  0.00    -0.002 C 
ATOM     20  C   LIG A   1      -8.829   2.008 132.636  0.00  0.00    +0.005 C 
ATOM     21  C   LIG A   1      -9.376   3.301 133.227  0.00  0.00    +0.008 C 
ENDROOT
BRANCH  12  22
ATOM     22  O   LIG A   1      -1.551   6.368 130.887  0.00  0.00    -0.392 OA
ATOM     23  H   LIG A   1      -1.315   6.744 130.021  0.00  0.00    +0.210 HD
ENDBRANCH  12  22
BRANCH  19  24
ATOM     24  C   LIG A   1      -7.496   1.557 130.462  0.00  0.00    -0.010 C 
ATOM     25  C   LIG A   1      -7.721   0.885 129.101  0.00  0.00    +0.008 C 
BRANCH  24  26
ATOM     26  C   LIG A   1      -6.879   0.480 131.414  0.00  0.00    +0.008 C 
BRANCH  26  27
ATOM     27  C   LIG A   1      -5.335   0.494 131.537  0.00  0.00    +0.030 C 
BRANCH  27  28
ATOM     28  C   LIG A   1      -4.713   1.725 132.185  0.00  0.00    -0.074 C 
ATOM     29  C   LIG A   1      -4.337   2.807 131.457  0.00  0.00    +0.008 C 
BRANCH  28  30
ATOM     30  C   LIG A   1      -4.509   1.723 133.704  0.00  0.00    +0.008 C 
ATOM     31  C   LIG A   1      -3.402   2.683 134.160  0.00  0.00    +0.012 C 
ATOM     32  C   LIG A   1      -5.782   2.036 134.501  0.00  0.00    +0.012 C 
ENDBRANCH  28  30
ENDBRANCH  27  28
ENDBRANCH  26  27
ENDBRANCH  24  26
ENDBRANCH  19  24
TORSDOF 6
ENDMDL
MODEL 9
REMARK VINA RESULT:      -6.9      3.880      6.889
REMARK  Name = NuBBE_928
REMARK  12 active torsions:
REMARK  status: ('A' for Active; 'I' for Inactive)
REMARK    1  A    between atoms: C_1  and  C_2
REMARK    2  A    between atoms: C_12  and  C_14
REMARK    3  A    between atoms: C_15  and  O_19
REMARK    4  A    between atoms: C_22  and  C_23
REMARK    5  A    between atoms: C_24  and  C_28
REMARK    6  A    between atoms: C_28  and  C_30
REMARK    7  A    between atoms: C_28  and  C_37
REMARK    8  A    between atoms: C_30  and  C_31
REMARK    9  A    between atoms: C_31  and  C_32
REMARK   10  A    between atoms: C_32  and  C_34
REMARK   11  A    between atoms: C_34  and  C_35
REMARK   12  A    between atoms: C_34  and  C_36
REMARK                            x       y       z     vdW  Elec       q    Type
REMARK                         _______ _______ _______ _____ _____    ______ ____
ROOT
ATOM      1  C   LIG A   1     -10.791   3.969 130.567  0.00  0.00    +0.012 C 
ATOM      2  C   LIG A   1      -9.310   4.285 130.861  0.00  0.00    -0.023 C 
ATOM      3  C   LIG A   1      -8.429   2.992 130.668  0.00  0.00    +0.002 C 
ATOM      4  C   LIG A   1      -8.621   1.976 131.796  0.00  0.00    -0.019 C 
ATOM      5  C   LIG A   1      -8.078   0.548 131.560  0.00  0.00    -0.020 C 
ATOM      6  C   LIG A   1      -9.572   0.804 131.688  0.00  0.00    +0.015 C 
ATOM      7  C   LIG A   1      -7.586   0.102 130.165  0.00  0.00    +0.001 C 
ATOM      8  C   LIG A   1      -7.478   1.256 129.152  0.00  0.00    +0.005 C 
ATOM      9  C   LIG A   1      -8.553   2.325 129.289  0.00  0.00    +0.005 C 
ATOM     10  C   LIG A   1      -6.222  -0.639 130.270  0.00  0.00    +0.018 C 
ATOM     11  C   LIG A   1      -5.672  -1.093 128.910  0.00  0.00    +0.010 C 
ATOM     12  C   LIG A   1      -6.308  -1.857 131.211  0.00  0.00    +0.118 C 
ATOM     13  C   LIG A   1      -7.179  -1.635 132.443  0.00  0.00    +0.032 C 
ATOM     14  C   LIG A   1      -7.393  -0.157 132.727  0.00  0.00    +0.010 C 
ATOM     15  C   LIG A   1      -8.416   2.580 133.167  0.00  0.00    +0.008 C 
ATOM     16  C   LIG A   1      -9.206   3.859 133.376  0.00  0.00    +0.008 C 
ATOM     17  C   LIG A   1      -9.056   4.929 132.284  0.00  0.00    -0.023 C 
ATOM     18  C   LIG A   1     -10.132   6.008 132.639  0.00  0.00    +0.012 C 
ATOM     19  C   LIG A   1      -7.686   5.730 132.130  0.00  0.00    -0.002 C 
ATOM     20  C   LIG A   1      -7.585   5.985 130.597  0.00  0.00    +0.005 C 
ATOM     21  C   LIG A   1      -8.843   5.428 129.940  0.00  0.00    +0.008 C 
ENDROOT
BRANCH  12  22
ATOM     22  O   LIG A   1      -4.987  -2.213 131.631  0.00  0.00    -0.392 OA
ATOM     23  H   LIG A   1      -4.850  -3.153 131.419  0.00  0.00    +0.210 HD
ENDBRANCH  12  22
BRANCH  19  24
ATOM     24  C   LIG A   1      -6.307   5.252 132.726  0.00  0.00    -0.010 C 
ATOM     25  C   LIG A   1      -6.071   5.737 134.163  0.00  0.00    +0.008 C 
BRANCH  24  26
ATOM     26  C   LIG A   1      -5.121   5.787 131.857  0.00  0.00    +0.008 C 
BRANCH  26  27
ATOM     27  C   LIG A   1      -3.971   4.783 131.595  0.00  0.00    +0.030 C 
BRANCH  27  28
ATOM     28  C   LIG A   1      -4.321   3.535 130.794  0.00  0.00    -0.074 C 
ATOM     29  C   LIG A   1      -4.788   2.408 131.387  0.00  0.00    +0.008 C 
BRANCH  28  30
ATOM     30  C   LIG A   1      -4.131   3.571 129.273  0.00  0.00    +0.008 C 
ATOM     31  C   LIG A   1      -5.362   4.109 128.530  0.00  0.00    +0.012 C 
ATOM     32  C   LIG A   1      -2.902   4.369 128.820  0.00  0.00    +0.012 C 
ENDBRANCH  28  30
ENDBRANCH  27  28
ENDBRANCH  26  27
ENDBRANCH  24  26
ENDBRANCH  19  24
TORSDOF 6
ENDMDL
