MODEL 1
REMARK VINA RESULT:      -7.6      0.000      0.000
REMARK  Name = NuBBE_2420
REMARK  5 active torsions:
REMARK  status: ('A' for Active; 'I' for Inactive)
REMARK    1  A    between atoms: O_1  and  C_2
REMARK    2  A    between atoms: O_1  and  C_3
REMARK    3  A    between atoms: N_18  and  C_19
REMARK    4  A    between atoms: C_24  and  O_25
REMARK    5  A    between atoms: O_25  and  C_26
REMARK                            x       y       z     vdW  Elec       q    Type
REMARK                         _______ _______ _______ _____ _____    ______ ____
ROOT
ATOM      1  C   LIG A   1      -5.900   3.173 125.083  0.00  0.00    +0.170 A 
ATOM      2  C   LIG A   1      -6.675   2.611 124.041  0.00  0.00    +0.033 A 
ATOM      3  C   LIG A   1      -7.483   1.487 124.356  0.00  0.00    -0.015 A 
ATOM      4  C   LIG A   1      -8.410   0.922 123.269  0.00  0.00    +0.092 C 
ATOM      5  C   LIG A   1      -9.049   2.129 122.531  0.00  0.00    +0.059 C 
ATOM      6  C   LIG A   1      -7.962   2.996 121.932  0.00  0.00    -0.034 A 
ATOM      7  C   LIG A   1      -6.751   3.170 122.666  0.00  0.00    -0.007 A 
ATOM      8  C   LIG A   1      -5.691   3.848 122.045  0.00  0.00    +0.058 A 
ATOM      9  C   LIG A   1      -5.895   4.417 120.804  0.00  0.00    +0.167 A 
ATOM     10  C   LIG A   1      -7.099   4.310 120.148  0.00  0.00    +0.167 A 
ATOM     11  C   LIG A   1      -8.146   3.601 120.676  0.00  0.00    +0.053 A 
ATOM     12  O   LIG A   1      -7.094   4.959 118.951  0.00  0.00    -0.453 OA
ATOM     13  C   LIG A   1      -5.760   5.510 118.948  0.00  0.00    +0.466 C 
ATOM     14  O   LIG A   1      -4.982   5.137 120.102  0.00  0.00    -0.453 OA
ATOM     15  N   LIG A   1      -9.442  -0.016 123.791  0.00  0.00    -0.298 NA
ATOM     16  C   LIG A   1     -10.107  -0.742 122.704  0.00  0.00    +0.105 C 
ATOM     17  C   LIG A   1      -8.811  -0.989 124.701  0.00  0.00    +0.089 C 
ATOM     18  C   LIG A   1      -8.293  -0.290 125.958  0.00  0.00    +0.051 C 
ATOM     19  C   LIG A   1      -7.424   0.894 125.632  0.00  0.00    -0.037 A 
ATOM     20  C   LIG A   1      -6.610   1.451 126.627  0.00  0.00    +0.053 A 
ATOM     21  C   LIG A   1      -5.844   2.586 126.360  0.00  0.00    +0.162 A 
ENDROOT
BRANCH   1  22
ATOM     22  O   LIG A   1      -5.145   4.308 124.881  0.00  0.00    -0.491 OA
ATOM     23  C   LIG A   1      -5.907   5.488 125.139  0.00  0.00    +0.277 C 
ENDBRANCH   1  22
BRANCH  21  24
ATOM     24  O   LIG A   1      -5.078   3.225 127.302  0.00  0.00    -0.491 OA
ATOM     25  C   LIG A   1      -5.786   3.791 128.398  0.00  0.00    +0.277 C 
ENDBRANCH  21  24
TORSDOF 2
ENDMDL
MODEL 2
REMARK VINA RESULT:      -7.5      3.014      6.007
REMARK  Name = NuBBE_2420
REMARK  5 active torsions:
REMARK  status: ('A' for Active; 'I' for Inactive)
REMARK    1  A    between atoms: O_1  and  C_2
REMARK    2  A    between atoms: O_1  and  C_3
REMARK    3  A    between atoms: N_18  and  C_19
REMARK    4  A    between atoms: C_24  and  O_25
REMARK    5  A    between atoms: O_25  and  C_26
REMARK                            x       y       z     vdW  Elec       q    Type
REMARK                         _______ _______ _______ _____ _____    ______ ____
ROOT
ATOM      1  C   LIG A   1      -6.497   2.635 123.667  0.00  0.00    +0.170 A 
ATOM      2  C   LIG A   1      -6.536   1.754 124.775  0.00  0.00    +0.033 A 
ATOM      3  C   LIG A   1      -5.863   2.157 125.958  0.00  0.00    -0.015 A 
ATOM      4  C   LIG A   1      -5.977   1.267 127.205  0.00  0.00    +0.092 C 
ATOM      5  C   LIG A   1      -7.450   0.787 127.299  0.00  0.00    +0.059 C 
ATOM      6  C   LIG A   1      -7.821   0.025 126.045  0.00  0.00    -0.034 A 
ATOM      7  C   LIG A   1      -7.298   0.478 124.797  0.00  0.00    -0.007 A 
ATOM      8  C   LIG A   1      -7.521  -0.312 123.659  0.00  0.00    +0.058 A 
ATOM      9  C   LIG A   1      -8.326  -1.428 123.765  0.00  0.00    +0.167 A 
ATOM     10  C   LIG A   1      -8.890  -1.802 124.963  0.00  0.00    +0.167 A 
ATOM     11  C   LIG A   1      -8.652  -1.106 126.119  0.00  0.00    +0.053 A 
ATOM     12  O   LIG A   1      -9.663  -2.916 124.842  0.00  0.00    -0.453 OA
ATOM     13  C   LIG A   1      -9.543  -3.178 123.428  0.00  0.00    +0.466 C 
ATOM     14  O   LIG A   1      -8.664  -2.261 122.747  0.00  0.00    -0.453 OA
ATOM     15  N   LIG A   1      -5.532   1.936 128.459  0.00  0.00    -0.298 NA
ATOM     16  C   LIG A   1      -5.386   0.975 129.558  0.00  0.00    +0.105 C 
ATOM     17  C   LIG A   1      -4.237   2.603 128.232  0.00  0.00    +0.089 C 
ATOM     18  C   LIG A   1      -4.396   3.761 127.246  0.00  0.00    +0.051 C 
ATOM     19  C   LIG A   1      -5.097   3.338 125.982  0.00  0.00    -0.037 A 
ATOM     20  C   LIG A   1      -5.044   4.163 124.852  0.00  0.00    +0.053 A 
ATOM     21  C   LIG A   1      -5.736   3.817 123.692  0.00  0.00    +0.162 A 
ENDROOT
BRANCH   1  22
ATOM     22  O   LIG A   1      -7.183   2.354 122.506  0.00  0.00    -0.491 OA
ATOM     23  C   LIG A   1      -8.479   2.957 122.513  0.00  0.00    +0.277 C 
ENDBRANCH   1  22
BRANCH  21  24
ATOM     24  O   LIG A   1      -5.786   4.609 122.571  0.00  0.00    -0.491 OA
ATOM     25  C   LIG A   1      -4.579   4.704 121.824  0.00  0.00    +0.277 C 
ENDBRANCH  21  24
TORSDOF 2
ENDMDL
MODEL 3
REMARK VINA RESULT:      -7.4      2.559      4.515
REMARK  Name = NuBBE_2420
REMARK  5 active torsions:
REMARK  status: ('A' for Active; 'I' for Inactive)
REMARK    1  A    between atoms: O_1  and  C_2
REMARK    2  A    between atoms: O_1  and  C_3
REMARK    3  A    between atoms: N_18  and  C_19
REMARK    4  A    between atoms: C_24  and  O_25
REMARK    5  A    between atoms: O_25  and  C_26
REMARK                            x       y       z     vdW  Elec       q    Type
REMARK                         _______ _______ _______ _____ _____    ______ ____
ROOT
ATOM      1  C   LIG A   1      -8.094   0.237 124.498  0.00  0.00    +0.170 A 
ATOM      2  C   LIG A   1      -7.564   1.477 124.928  0.00  0.00    +0.033 A 
ATOM      3  C   LIG A   1      -7.590   1.756 126.320  0.00  0.00    -0.015 A 
ATOM      4  C   LIG A   1      -6.929   3.049 126.821  0.00  0.00    +0.092 C 
ATOM      5  C   LIG A   1      -5.598   3.222 126.041  0.00  0.00    +0.059 C 
ATOM      6  C   LIG A   1      -5.881   3.289 124.556  0.00  0.00    -0.034 A 
ATOM      7  C   LIG A   1      -6.916   2.463 124.024  0.00  0.00    -0.007 A 
ATOM      8  C   LIG A   1      -7.277   2.635 122.679  0.00  0.00    +0.058 A 
ATOM      9  C   LIG A   1      -6.547   3.507 121.896  0.00  0.00    +0.167 A 
ATOM     10  C   LIG A   1      -5.497   4.234 122.408  0.00  0.00    +0.167 A 
ATOM     11  C   LIG A   1      -5.145   4.157 123.730  0.00  0.00    +0.053 A 
ATOM     12  O   LIG A   1      -4.903   5.015 121.465  0.00  0.00    -0.453 OA
ATOM     13  C   LIG A   1      -5.680   4.671 120.298  0.00  0.00    +0.466 C 
ATOM     14  O   LIG A   1      -6.750   3.745 120.574  0.00  0.00    -0.453 OA
ATOM     15  N   LIG A   1      -6.714   3.077 128.295  0.00  0.00    -0.298 NA
ATOM     16  C   LIG A   1      -6.354   4.421 128.759  0.00  0.00    +0.105 C 
ATOM     17  C   LIG A   1      -7.945   2.648 128.983  0.00  0.00    +0.089 C 
ATOM     18  C   LIG A   1      -8.236   1.175 128.692  0.00  0.00    +0.051 C 
ATOM     19  C   LIG A   1      -8.223   0.874 127.217  0.00  0.00    -0.037 A 
ATOM     20  C   LIG A   1      -8.778  -0.324 126.750  0.00  0.00    +0.053 A 
ATOM     21  C   LIG A   1      -8.721  -0.647 125.394  0.00  0.00    +0.162 A 
ENDROOT
BRANCH   1  22
ATOM     22  O   LIG A   1      -8.041  -0.143 123.175  0.00  0.00    -0.491 OA
ATOM     23  C   LIG A   1      -6.907  -0.973 122.920  0.00  0.00    +0.277 C 
ENDBRANCH   1  22
BRANCH  21  24
ATOM     24  O   LIG A   1      -9.181  -1.831 124.875  0.00  0.00    -0.491 OA
ATOM     25  C   LIG A   1      -9.391  -2.881 125.812  0.00  0.00    +0.277 C 
ENDBRANCH  21  24
TORSDOF 2
ENDMDL
MODEL 4
REMARK VINA RESULT:      -7.2      1.622      2.233
REMARK  Name = NuBBE_2420
REMARK  5 active torsions:
REMARK  status: ('A' for Active; 'I' for Inactive)
REMARK    1  A    between atoms: O_1  and  C_2
REMARK    2  A    between atoms: O_1  and  C_3
REMARK    3  A    between atoms: N_18  and  C_19
REMARK    4  A    between atoms: C_24  and  O_25
REMARK    5  A    between atoms: O_25  and  C_26
REMARK                            x       y       z     vdW  Elec       q    Type
REMARK                         _______ _______ _______ _____ _____    ______ ____
ROOT
ATOM      1  C   LIG A   1      -5.237   2.879 125.626  0.00  0.00    +0.170 A 
ATOM      2  C   LIG A   1      -6.239   2.049 125.068  0.00  0.00    +0.033 A 
ATOM      3  C   LIG A   1      -6.600   0.880 125.788  0.00  0.00    -0.015 A 
ATOM      4  C   LIG A   1      -7.754   0.018 125.255  0.00  0.00    +0.092 C 
ATOM      5  C   LIG A   1      -8.870   0.983 124.773  0.00  0.00    +0.059 C 
ATOM      6  C   LIG A   1      -8.325   1.898 123.697  0.00  0.00    -0.034 A 
ATOM      7  C   LIG A   1      -6.982   2.366 123.821  0.00  0.00    -0.007 A 
ATOM      8  C   LIG A   1      -6.431   3.090 122.752  0.00  0.00    +0.058 A 
ATOM      9  C   LIG A   1      -7.236   3.419 121.680  0.00  0.00    +0.167 A 
ATOM     10  C   LIG A   1      -8.554   3.029 121.618  0.00  0.00    +0.167 A 
ATOM     11  C   LIG A   1      -9.125   2.263 122.600  0.00  0.00    +0.053 A 
ATOM     12  O   LIG A   1      -9.170   3.474 120.489  0.00  0.00    -0.453 OA
ATOM     13  C   LIG A   1      -8.098   4.213 119.867  0.00  0.00    +0.466 C 
ATOM     14  O   LIG A   1      -6.857   4.148 120.599  0.00  0.00    -0.453 OA
ATOM     15  N   LIG A   1      -8.267  -0.971 126.244  0.00  0.00    -0.298 NA
ATOM     16  C   LIG A   1      -9.156  -1.951 125.610  0.00  0.00    +0.105 C 
ATOM     17  C   LIG A   1      -7.136  -1.682 126.865  0.00  0.00    +0.089 C 
ATOM     18  C   LIG A   1      -6.303  -0.723 127.717  0.00  0.00    +0.051 C 
ATOM     19  C   LIG A   1      -5.904   0.512 126.956  0.00  0.00    -0.037 A 
ATOM     20  C   LIG A   1      -4.887   1.335 127.456  0.00  0.00    +0.053 A 
ATOM     21  C   LIG A   1      -4.546   2.516 126.796  0.00  0.00    +0.162 A 
ENDROOT
BRANCH   1  22
ATOM     22  O   LIG A   1      -4.880   4.068 125.030  0.00  0.00    -0.491 OA
ATOM     23  C   LIG A   1      -5.612   5.164 125.580  0.00  0.00    +0.277 C 
ENDBRANCH   1  22
BRANCH  21  24
ATOM     24  O   LIG A   1      -3.609   3.404 127.262  0.00  0.00    -0.491 OA
ATOM     25  C   LIG A   1      -2.254   3.087 126.972  0.00  0.00    +0.277 C 
ENDBRANCH  21  24
TORSDOF 2
ENDMDL
MODEL 5
REMARK VINA RESULT:      -7.1      3.337      5.960
REMARK  Name = NuBBE_2420
REMARK  5 active torsions:
REMARK  status: ('A' for Active; 'I' for Inactive)
REMARK    1  A    between atoms: O_1  and  C_2
REMARK    2  A    between atoms: O_1  and  C_3
REMARK    3  A    between atoms: N_18  and  C_19
REMARK    4  A    between atoms: C_24  and  O_25
REMARK    5  A    between atoms: O_25  and  C_26
REMARK                            x       y       z     vdW  Elec       q    Type
REMARK                         _______ _______ _______ _____ _____    ______ ____
ROOT
ATOM      1  C   LIG A   1      -7.652  -1.706 124.863  0.00  0.00    +0.170 A 
ATOM      2  C   LIG A   1      -7.275  -0.843 125.920  0.00  0.00    +0.033 A 
ATOM      3  C   LIG A   1      -7.397  -1.336 127.246  0.00  0.00    -0.015 A 
ATOM      4  C   LIG A   1      -6.899  -0.458 128.403  0.00  0.00    +0.092 C 
ATOM      5  C   LIG A   1      -5.558   0.184 127.955  0.00  0.00    +0.059 C 
ATOM      6  C   LIG A   1      -5.776   1.001 126.700  0.00  0.00    -0.034 A 
ATOM      7  C   LIG A   1      -6.693   0.510 125.722  0.00  0.00    -0.007 A 
ATOM      8  C   LIG A   1      -7.006   1.337 124.632  0.00  0.00    +0.058 A 
ATOM      9  C   LIG A   1      -6.336   2.535 124.486  0.00  0.00    +0.167 A 
ATOM     10  C   LIG A   1      -5.393   2.952 125.397  0.00  0.00    +0.167 A 
ATOM     11  C   LIG A   1      -5.097   2.217 126.515  0.00  0.00    +0.053 A 
ATOM     12  O   LIG A   1      -4.840   4.148 125.055  0.00  0.00    -0.453 OA
ATOM     13  C   LIG A   1      -5.521   4.416 123.811  0.00  0.00    +0.466 C 
ATOM     14  O   LIG A   1      -6.500   3.415 123.466  0.00  0.00    -0.453 OA
ATOM     15  N   LIG A   1      -6.758  -1.191 129.692  0.00  0.00    -0.298 NA
ATOM     16  C   LIG A   1      -6.562  -0.268 130.816  0.00  0.00    +0.105 C 
ATOM     17  C   LIG A   1      -7.968  -1.996 129.939  0.00  0.00    +0.089 C 
ATOM     18  C   LIG A   1      -8.089  -3.114 128.902  0.00  0.00    +0.051 C 
ATOM     19  C   LIG A   1      -7.975  -2.596 127.494  0.00  0.00    -0.037 A 
ATOM     20  C   LIG A   1      -8.378  -3.406 126.424  0.00  0.00    +0.053 A 
ATOM     21  C   LIG A   1      -8.224  -2.967 125.109  0.00  0.00    +0.162 A 
ENDROOT
BRANCH   1  22
ATOM     22  O   LIG A   1      -7.497  -1.333 123.546  0.00  0.00    -0.491 OA
ATOM     23  C   LIG A   1      -6.282  -1.850 123.002  0.00  0.00    +0.277 C 
ENDBRANCH   1  22
BRANCH  21  24
ATOM     24  O   LIG A   1      -8.533  -3.731 124.012  0.00  0.00    -0.491 OA
ATOM     25  C   LIG A   1      -9.791  -3.465 123.404  0.00  0.00    +0.277 C 
ENDBRANCH  21  24
TORSDOF 2
ENDMDL
MODEL 6
REMARK VINA RESULT:      -7.0      3.320      5.371
REMARK  Name = NuBBE_2420
REMARK  5 active torsions:
REMARK  status: ('A' for Active; 'I' for Inactive)
REMARK    1  A    between atoms: O_1  and  C_2
REMARK    2  A    between atoms: O_1  and  C_3
REMARK    3  A    between atoms: N_18  and  C_19
REMARK    4  A    between atoms: C_24  and  O_25
REMARK    5  A    between atoms: O_25  and  C_26
REMARK                            x       y       z     vdW  Elec       q    Type
REMARK                         _______ _______ _______ _____ _____    ______ ____
ROOT
ATOM      1  C   LIG A   1      -6.798  -1.256 128.425  0.00  0.00    +0.170 A 
ATOM      2  C   LIG A   1      -6.945  -0.767 127.105  0.00  0.00    +0.033 A 
ATOM      3  C   LIG A   1      -7.847  -1.452 126.248  0.00  0.00    -0.015 A 
ATOM      4  C   LIG A   1      -8.101  -0.881 124.845  0.00  0.00    +0.092 C 
ATOM      5  C   LIG A   1      -8.215   0.661 124.985  0.00  0.00    +0.059 C 
ATOM      6  C   LIG A   1      -6.938   1.216 125.581  0.00  0.00    -0.034 A 
ATOM      7  C   LIG A   1      -6.275   0.455 126.590  0.00  0.00    -0.007 A 
ATOM      8  C   LIG A   1      -5.019   0.896 127.035  0.00  0.00    +0.058 A 
ATOM      9  C   LIG A   1      -4.527   2.098 126.567  0.00  0.00    +0.167 A 
ATOM     10  C   LIG A   1      -5.222   2.859 125.655  0.00  0.00    +0.167 A 
ATOM     11  C   LIG A   1      -6.421   2.444 125.136  0.00  0.00    +0.053 A 
ATOM     12  O   LIG A   1      -4.570   4.013 125.345  0.00  0.00    -0.453 OA
ATOM     13  C   LIG A   1      -3.405   3.902 126.189  0.00  0.00    +0.466 C 
ATOM     14  O   LIG A   1      -3.353   2.671 126.937  0.00  0.00    -0.453 OA
ATOM     15  N   LIG A   1      -9.294  -1.464 124.169  0.00  0.00    -0.298 NA
ATOM     16  C   LIG A   1      -9.331  -1.110 122.746  0.00  0.00    +0.105 C 
ATOM     17  C   LIG A   1      -9.266  -2.932 124.297  0.00  0.00    +0.089 C 
ATOM     18  C   LIG A   1      -9.444  -3.347 125.758  0.00  0.00    +0.051 C 
ATOM     19  C   LIG A   1      -8.482  -2.636 126.671  0.00  0.00    -0.037 A 
ATOM     20  C   LIG A   1      -8.277  -3.116 127.971  0.00  0.00    +0.053 A 
ATOM     21  C   LIG A   1      -7.436  -2.435 128.850  0.00  0.00    +0.162 A 
ENDROOT
BRANCH   1  22
ATOM     22  O   LIG A   1      -6.000  -0.609 129.342  0.00  0.00    -0.491 OA
ATOM     23  C   LIG A   1      -6.760   0.301 130.138  0.00  0.00    +0.277 C 
ENDBRANCH   1  22
BRANCH  21  24
ATOM     24  O   LIG A   1      -7.241  -2.807 130.157  0.00  0.00    -0.491 OA
ATOM     25  C   LIG A   1      -6.392  -3.930 130.364  0.00  0.00    +0.277 C 
ENDBRANCH  21  24
TORSDOF 2
ENDMDL
MODEL 7
REMARK VINA RESULT:      -6.9      2.561      4.222
REMARK  Name = NuBBE_2420
REMARK  5 active torsions:
REMARK  status: ('A' for Active; 'I' for Inactive)
REMARK    1  A    between atoms: O_1  and  C_2
REMARK    2  A    between atoms: O_1  and  C_3
REMARK    3  A    between atoms: N_18  and  C_19
REMARK    4  A    between atoms: C_24  and  O_25
REMARK    5  A    between atoms: O_25  and  C_26
REMARK                            x       y       z     vdW  Elec       q    Type
REMARK                         _______ _______ _______ _____ _____    ______ ____
ROOT
ATOM      1  C   LIG A   1      -7.116   0.176 128.354  0.00  0.00    +0.170 A 
ATOM      2  C   LIG A   1      -7.358  -0.077 126.983  0.00  0.00    +0.033 A 
ATOM      3  C   LIG A   1      -7.958  -1.317 126.639  0.00  0.00    -0.015 A 
ATOM      4  C   LIG A   1      -8.324  -1.572 125.169  0.00  0.00    +0.092 C 
ATOM      5  C   LIG A   1      -8.930  -0.258 124.607  0.00  0.00    +0.059 C 
ATOM      6  C   LIG A   1      -7.923   0.866 124.736  0.00  0.00    -0.034 A 
ATOM      7  C   LIG A   1      -7.094   0.902 125.897  0.00  0.00    -0.007 A 
ATOM      8  C   LIG A   1      -6.063   1.854 125.945  0.00  0.00    +0.058 A 
ATOM      9  C   LIG A   1      -5.963   2.785 124.931  0.00  0.00    +0.167 A 
ATOM     10  C   LIG A   1      -6.827   2.784 123.860  0.00  0.00    +0.167 A 
ATOM     11  C   LIG A   1      -7.808   1.837 123.727  0.00  0.00    +0.053 A 
ATOM     12  O   LIG A   1      -6.566   3.796 122.987  0.00  0.00    -0.453 OA
ATOM     13  C   LIG A   1      -5.462   4.448 123.649  0.00  0.00    +0.466 C 
ATOM     14  O   LIG A   1      -5.049   3.787 124.862  0.00  0.00    -0.453 OA
ATOM     15  N   LIG A   1      -9.240  -2.731 124.973  0.00  0.00    -0.298 NA
ATOM     16  C   LIG A   1      -9.330  -3.110 123.559  0.00  0.00    +0.105 C 
ATOM     17  C   LIG A   1      -8.750  -3.885 125.748  0.00  0.00    +0.089 C 
ATOM     18  C   LIG A   1      -8.844  -3.603 127.249  0.00  0.00    +0.051 C 
ATOM     19  C   LIG A   1      -8.198  -2.296 127.622  0.00  0.00    -0.037 A 
ATOM     20  C   LIG A   1      -7.904  -2.029 128.965  0.00  0.00    +0.053 A 
ATOM     21  C   LIG A   1      -7.360  -0.799 129.338  0.00  0.00    +0.162 A 
ENDROOT
BRANCH   1  22
ATOM     22  O   LIG A   1      -6.605   1.382 128.780  0.00  0.00    -0.491 OA
ATOM     23  C   LIG A   1      -7.648   2.288 129.139  0.00  0.00    +0.277 C 
ENDBRANCH   1  22
BRANCH  21  24
ATOM     24  O   LIG A   1      -7.110  -0.442 130.639  0.00  0.00    -0.491 OA
ATOM     25  C   LIG A   1      -8.204  -0.569 131.540  0.00  0.00    +0.277 C 
ENDBRANCH  21  24
TORSDOF 2
ENDMDL
MODEL 8
REMARK VINA RESULT:      -6.8      4.853      6.959
REMARK  Name = NuBBE_2420
REMARK  5 active torsions:
REMARK  status: ('A' for Active; 'I' for Inactive)
REMARK    1  A    between atoms: O_1  and  C_2
REMARK    2  A    between atoms: O_1  and  C_3
REMARK    3  A    between atoms: N_18  and  C_19
REMARK    4  A    between atoms: C_24  and  O_25
REMARK    5  A    between atoms: O_25  and  C_26
REMARK                            x       y       z     vdW  Elec       q    Type
REMARK                         _______ _______ _______ _____ _____    ______ ____
ROOT
ATOM      1  C   LIG A   1      -8.252   0.964 128.326  0.00  0.00    +0.170 A 
ATOM      2  C   LIG A   1      -7.860  -0.393 128.239  0.00  0.00    +0.033 A 
ATOM      3  C   LIG A   1      -7.224  -0.967 129.371  0.00  0.00    -0.015 A 
ATOM      4  C   LIG A   1      -6.882  -2.464 129.339  0.00  0.00    +0.092 C 
ATOM      5  C   LIG A   1      -8.085  -3.202 128.694  0.00  0.00    +0.059 C 
ATOM      6  C   LIG A   1      -8.327  -2.663 127.300  0.00  0.00    -0.034 A 
ATOM      7  C   LIG A   1      -8.140  -1.267 127.070  0.00  0.00    -0.007 A 
ATOM      8  C   LIG A   1      -8.220  -0.796 125.751  0.00  0.00    +0.058 A 
ATOM      9  C   LIG A   1      -8.584  -1.671 124.747  0.00  0.00    +0.167 A 
ATOM     10  C   LIG A   1      -8.842  -2.998 125.003  0.00  0.00    +0.167 A 
ATOM     11  C   LIG A   1      -8.714  -3.527 126.260  0.00  0.00    +0.053 A 
ATOM     12  O   LIG A   1      -9.204  -3.678 123.881  0.00  0.00    -0.453 OA
ATOM     13  C   LIG A   1      -9.174  -2.619 122.900  0.00  0.00    +0.466 C 
ATOM     14  O   LIG A   1      -8.743  -1.352 123.437  0.00  0.00    -0.453 OA
ATOM     15  N   LIG A   1      -6.540  -3.027 130.675  0.00  0.00    -0.298 NA
ATOM     16  C   LIG A   1      -5.949  -4.365 130.558  0.00  0.00    +0.105 C 
ATOM     17  C   LIG A   1      -5.582  -2.139 131.357  0.00  0.00    +0.089 C 
ATOM     18  C   LIG A   1      -6.238  -0.798 131.691  0.00  0.00    +0.051 C 
ATOM     19  C   LIG A   1      -6.902  -0.177 130.491  0.00  0.00    -0.037 A 
ATOM     20  C   LIG A   1      -7.266   1.175 130.525  0.00  0.00    +0.053 A 
ATOM     21  C   LIG A   1      -7.936   1.753 129.446  0.00  0.00    +0.162 A 
ENDROOT
BRANCH   1  22
ATOM     22  O   LIG A   1      -8.939   1.577 127.301  0.00  0.00    -0.491 OA
ATOM     23  C   LIG A   1      -8.073   2.397 126.515  0.00  0.00    +0.277 C 
ENDBRANCH   1  22
BRANCH  21  24
ATOM     24  O   LIG A   1      -8.383   3.051 129.436  0.00  0.00    -0.491 OA
ATOM     25  C   LIG A   1      -9.456   3.345 130.321  0.00  0.00    +0.277 C 
ENDBRANCH  21  24
TORSDOF 2
ENDMDL
MODEL 9
REMARK VINA RESULT:      -6.8      5.436      9.511
REMARK  Name = NuBBE_2420
REMARK  5 active torsions:
REMARK  status: ('A' for Active; 'I' for Inactive)
REMARK    1  A    between atoms: O_1  and  C_2
REMARK    2  A    between atoms: O_1  and  C_3
REMARK    3  A    between atoms: N_18  and  C_19
REMARK    4  A    between atoms: C_24  and  O_25
REMARK    5  A    between atoms: O_25  and  C_26
REMARK                            x       y       z     vdW  Elec       q    Type
REMARK                         _______ _______ _______ _____ _____    ______ ____
ROOT
ATOM      1  C   LIG A   1      -8.523  -2.589 127.041  0.00  0.00    +0.170 A 
ATOM      2  C   LIG A   1      -7.865  -1.748 127.971  0.00  0.00    +0.033 A 
ATOM      3  C   LIG A   1      -7.882  -0.351 127.718  0.00  0.00    -0.015 A 
ATOM      4  C   LIG A   1      -7.264   0.590 128.764  0.00  0.00    +0.092 C 
ATOM      5  C   LIG A   1      -7.688   0.070 130.164  0.00  0.00    +0.059 C 
ATOM      6  C   LIG A   1      -7.203  -1.352 130.349  0.00  0.00    -0.034 A 
ATOM      7  C   LIG A   1      -7.230  -2.230 129.225  0.00  0.00    -0.007 A 
ATOM      8  C   LIG A   1      -6.644  -3.498 129.359  0.00  0.00    +0.058 A 
ATOM      9  C   LIG A   1      -6.169  -3.889 130.595  0.00  0.00    +0.167 A 
ATOM     10  C   LIG A   1      -6.228  -3.057 131.689  0.00  0.00    +0.167 A 
ATOM     11  C   LIG A   1      -6.727  -1.784 131.600  0.00  0.00    +0.053 A 
ATOM     12  O   LIG A   1      -5.726  -3.644 132.810  0.00  0.00    -0.453 OA
ATOM     13  C   LIG A   1      -5.376  -4.948 132.300  0.00  0.00    +0.466 C 
ATOM     14  O   LIG A   1      -5.618  -5.095 130.887  0.00  0.00    -0.453 OA
ATOM     15  N   LIG A   1      -7.631   2.021 128.571  0.00  0.00    -0.298 NA
ATOM     16  C   LIG A   1      -6.804   2.904 129.400  0.00  0.00    +0.105 C 
ATOM     17  C   LIG A   1      -7.456   2.390 127.155  0.00  0.00    +0.089 C 
ATOM     18  C   LIG A   1      -8.459   1.641 126.277  0.00  0.00    +0.051 C 
ATOM     19  C   LIG A   1      -8.438   0.158 126.529  0.00  0.00    -0.037 A 
ATOM     20  C   LIG A   1      -9.041  -0.710 125.609  0.00  0.00    +0.053 A 
ATOM     21  C   LIG A   1      -9.084  -2.082 125.856  0.00  0.00    +0.162 A 
ENDROOT
BRANCH   1  22
ATOM     22  O   LIG A   1      -8.617  -3.948 127.248  0.00  0.00    -0.491 OA
ATOM     23  C   LIG A   1      -9.721  -4.267 128.097  0.00  0.00    +0.277 C 
ENDBRANCH   1  22
BRANCH  21  24
ATOM     24  O   LIG A   1      -9.716  -2.982 125.035  0.00  0.00    -0.491 OA
ATOM     25  C   LIG A   1      -9.226  -3.058 123.702  0.00  0.00    +0.277 C 
ENDBRANCH  21  24
TORSDOF 2
ENDMDL
