MODEL 1
REMARK VINA RESULT:      -6.1      0.000      0.000
REMARK  Name = NuBBE_1101
REMARK  5 active torsions:
REMARK  status: ('A' for Active; 'I' for Inactive)
REMARK    1  A    between atoms: N_8  and  C_9
REMARK    2  A    between atoms: C_14  and  O_15
REMARK    3  A    between atoms: O_15  and  C_16
REMARK    4  A    between atoms: C_17  and  O_18
REMARK    5  A    between atoms: O_18  and  C_19
REMARK                            x       y       z     vdW  Elec       q    Type
REMARK                         _______ _______ _______ _____ _____    ______ ____
ROOT
ATOM      1  O   LIG A   1     -10.196  -0.665 122.470  0.00  0.00    -0.286 OA
ATOM      2  C   LIG A   1      -9.244  -0.669 123.240  0.00  0.00    +0.200 A 
ATOM      3  C   LIG A   1      -8.757  -1.864 123.869  0.00  0.00    +0.085 A 
ATOM      4  C   LIG A   1      -7.707  -1.787 124.745  0.00  0.00    +0.212 A 
ATOM      5  O   LIG A   1      -7.400  -3.017 125.230  0.00  0.00    -0.447 OA
ATOM      6  C   LIG A   1      -8.269  -3.890 124.646  0.00  0.00    +0.198 A 
ATOM      7  C   LIG A   1      -9.129  -3.226 123.797  0.00  0.00    +0.055 A 
ATOM      8  N   LIG A   1      -7.033  -0.670 125.105  0.00  0.00    -0.311 N 
ATOM      9  C   LIG A   1      -5.992  -0.763 126.120  0.00  0.00    +0.152 C 
ATOM     10  C   LIG A   1      -7.388   0.569 124.489  0.00  0.00    +0.101 A 
ATOM     11  C   LIG A   1      -8.496   0.588 123.580  0.00  0.00    +0.050 A 
ATOM     12  C   LIG A   1      -8.923   1.767 122.958  0.00  0.00    +0.017 A 
ATOM     13  C   LIG A   1      -8.249   2.958 123.186  0.00  0.00    +0.050 A 
ATOM     14  C   LIG A   1      -7.130   2.986 124.023  0.00  0.00    +0.164 A 
ATOM     15  C   LIG A   1      -6.717   1.808 124.703  0.00  0.00    +0.186 A 
ENDROOT
BRANCH  14  16
ATOM     16  O   LIG A   1      -6.413   4.138 124.228  0.00  0.00    -0.491 OA
ATOM     17  C   LIG A   1      -5.380   4.426 123.293  0.00  0.00    +0.277 C 
ENDBRANCH  14  16
BRANCH  15  18
ATOM     18  O   LIG A   1      -5.584   1.786 125.488  0.00  0.00    -0.489 OA
ATOM     19  C   LIG A   1      -5.645   2.490 126.725  0.00  0.00    +0.277 C 
ENDBRANCH  15  18
TORSDOF 2
ENDMDL
MODEL 2
REMARK VINA RESULT:      -6.1      1.436      3.089
REMARK  Name = NuBBE_1101
REMARK  5 active torsions:
REMARK  status: ('A' for Active; 'I' for Inactive)
REMARK    1  A    between atoms: N_8  and  C_9
REMARK    2  A    between atoms: C_14  and  O_15
REMARK    3  A    between atoms: O_15  and  C_16
REMARK    4  A    between atoms: C_17  and  O_18
REMARK    5  A    between atoms: O_18  and  C_19
REMARK                            x       y       z     vdW  Elec       q    Type
REMARK                         _______ _______ _______ _____ _____    ______ ____
ROOT
ATOM      1  O   LIG A   1      -6.110  -1.913 125.877  0.00  0.00    -0.286 OA
ATOM      2  C   LIG A   1      -6.962  -1.389 125.170  0.00  0.00    +0.200 A 
ATOM      3  C   LIG A   1      -8.022  -2.133 124.550  0.00  0.00    +0.085 A 
ATOM      4  C   LIG A   1      -8.921  -1.484 123.746  0.00  0.00    +0.212 A 
ATOM      5  O   LIG A   1      -9.838  -2.356 123.257  0.00  0.00    -0.447 OA
ATOM      6  C   LIG A   1      -9.517  -3.580 123.764  0.00  0.00    +0.198 A 
ATOM      7  C   LIG A   1      -8.400  -3.494 124.569  0.00  0.00    +0.055 A 
ATOM      8  N   LIG A   1      -8.940  -0.162 123.454  0.00  0.00    -0.311 N 
ATOM      9  C   LIG A   1      -9.926   0.343 122.507  0.00  0.00    +0.152 C 
ATOM     10  C   LIG A   1      -7.972   0.687 124.071  0.00  0.00    +0.101 A 
ATOM     11  C   LIG A   1      -6.972   0.089 124.906  0.00  0.00    +0.050 A 
ATOM     12  C   LIG A   1      -5.971   0.849 125.523  0.00  0.00    +0.017 A 
ATOM     13  C   LIG A   1      -5.946   2.227 125.364  0.00  0.00    +0.050 A 
ATOM     14  C   LIG A   1      -6.928   2.867 124.603  0.00  0.00    +0.164 A 
ATOM     15  C   LIG A   1      -7.918   2.104 123.927  0.00  0.00    +0.186 A 
ENDROOT
BRANCH  14  16
ATOM     16  O   LIG A   1      -6.960   4.232 124.469  0.00  0.00    -0.491 OA
ATOM     17  C   LIG A   1      -5.940   4.967 125.137  0.00  0.00    +0.277 C 
ENDBRANCH  14  16
BRANCH  15  18
ATOM     18  O   LIG A   1      -8.935   2.705 123.218  0.00  0.00    -0.489 OA
ATOM     19  C   LIG A   1      -8.609   3.205 121.924  0.00  0.00    +0.277 C 
ENDBRANCH  15  18
TORSDOF 2
ENDMDL
MODEL 3
REMARK VINA RESULT:      -6.0      3.051      5.494
REMARK  Name = NuBBE_1101
REMARK  5 active torsions:
REMARK  status: ('A' for Active; 'I' for Inactive)
REMARK    1  A    between atoms: N_8  and  C_9
REMARK    2  A    between atoms: C_14  and  O_15
REMARK    3  A    between atoms: O_15  and  C_16
REMARK    4  A    between atoms: C_17  and  O_18
REMARK    5  A    between atoms: O_18  and  C_19
REMARK                            x       y       z     vdW  Elec       q    Type
REMARK                         _______ _______ _______ _____ _____    ______ ____
ROOT
ATOM      1  O   LIG A   1      -9.755  -2.927 124.335  0.00  0.00    -0.286 OA
ATOM      2  C   LIG A   1      -9.143  -2.081 124.977  0.00  0.00    +0.200 A 
ATOM      3  C   LIG A   1      -8.824  -0.785 124.448  0.00  0.00    +0.085 A 
ATOM      4  C   LIG A   1      -8.109   0.098 125.213  0.00  0.00    +0.212 A 
ATOM      5  O   LIG A   1      -7.910   1.259 124.538  0.00  0.00    -0.447 OA
ATOM      6  C   LIG A   1      -8.514   1.109 123.326  0.00  0.00    +0.198 A 
ATOM      7  C   LIG A   1      -9.092  -0.138 123.220  0.00  0.00    +0.055 A 
ATOM      8  N   LIG A   1      -7.650  -0.106 126.469  0.00  0.00    -0.311 N 
ATOM      9  C   LIG A   1      -6.829   0.919 127.102  0.00  0.00    +0.152 C 
ATOM     10  C   LIG A   1      -7.968  -1.336 127.121  0.00  0.00    +0.101 A 
ATOM     11  C   LIG A   1      -8.688  -2.333 126.385  0.00  0.00    +0.050 A 
ATOM     12  C   LIG A   1      -9.013  -3.575 126.943  0.00  0.00    +0.017 A 
ATOM     13  C   LIG A   1      -8.667  -3.860 128.256  0.00  0.00    +0.050 A 
ATOM     14  C   LIG A   1      -8.010  -2.904 129.035  0.00  0.00    +0.164 A 
ATOM     15  C   LIG A   1      -7.626  -1.659 128.466  0.00  0.00    +0.186 A 
ENDROOT
BRANCH  14  16
ATOM     16  O   LIG A   1      -7.700  -3.137 130.352  0.00  0.00    -0.491 OA
ATOM     17  C   LIG A   1      -6.470  -3.803 130.615  0.00  0.00    +0.277 C 
ENDBRANCH  14  16
BRANCH  15  18
ATOM     18  O   LIG A   1      -7.031  -0.672 129.221  0.00  0.00    -0.489 OA
ATOM     19  C   LIG A   1      -7.851  -0.014 130.183  0.00  0.00    +0.277 C 
ENDBRANCH  15  18
TORSDOF 2
ENDMDL
MODEL 4
REMARK VINA RESULT:      -5.9      2.199      3.691
REMARK  Name = NuBBE_1101
REMARK  5 active torsions:
REMARK  status: ('A' for Active; 'I' for Inactive)
REMARK    1  A    between atoms: N_8  and  C_9
REMARK    2  A    between atoms: C_14  and  O_15
REMARK    3  A    between atoms: O_15  and  C_16
REMARK    4  A    between atoms: C_17  and  O_18
REMARK    5  A    between atoms: O_18  and  C_19
REMARK                            x       y       z     vdW  Elec       q    Type
REMARK                         _______ _______ _______ _____ _____    ______ ____
ROOT
ATOM      1  O   LIG A   1      -7.853  -2.846 127.324  0.00  0.00    -0.286 OA
ATOM      2  C   LIG A   1      -8.217  -2.009 126.506  0.00  0.00    +0.200 A 
ATOM      3  C   LIG A   1      -8.715  -2.359 125.206  0.00  0.00    +0.085 A 
ATOM      4  C   LIG A   1      -9.073  -1.368 124.331  0.00  0.00    +0.212 A 
ATOM      5  O   LIG A   1      -9.515  -1.900 123.164  0.00  0.00    -0.447 OA
ATOM      6  C   LIG A   1      -9.439  -3.254 123.304  0.00  0.00    +0.198 A 
ATOM      7  C   LIG A   1      -8.949  -3.588 124.548  0.00  0.00    +0.055 A 
ATOM      8  N   LIG A   1      -9.020  -0.034 124.553  0.00  0.00    -0.311 N 
ATOM      9  C   LIG A   1      -9.363   0.881 123.472  0.00  0.00    +0.152 C 
ATOM     10  C   LIG A   1      -8.604   0.428 125.839  0.00  0.00    +0.101 A 
ATOM     11  C   LIG A   1      -8.181  -0.539 126.809  0.00  0.00    +0.050 A 
ATOM     12  C   LIG A   1      -7.733  -0.165 128.081  0.00  0.00    +0.017 A 
ATOM     13  C   LIG A   1      -7.719   1.173 128.449  0.00  0.00    +0.050 A 
ATOM     14  C   LIG A   1      -8.169   2.153 127.559  0.00  0.00    +0.164 A 
ATOM     15  C   LIG A   1      -8.577   1.793 126.246  0.00  0.00    +0.186 A 
ENDROOT
BRANCH  14  16
ATOM     16  O   LIG A   1      -8.215   3.478 127.912  0.00  0.00    -0.491 OA
ATOM     17  C   LIG A   1      -6.985   4.085 128.292  0.00  0.00    +0.277 C 
ENDBRANCH  14  16
BRANCH  15  18
ATOM     18  O   LIG A   1      -9.082   2.725 125.366  0.00  0.00    -0.489 OA
ATOM     19  C   LIG A   1      -8.152   3.642 124.796  0.00  0.00    +0.277 C 
ENDBRANCH  15  18
TORSDOF 2
ENDMDL
MODEL 5
REMARK VINA RESULT:      -5.8      6.804      9.515
REMARK  Name = NuBBE_1101
REMARK  5 active torsions:
REMARK  status: ('A' for Active; 'I' for Inactive)
REMARK    1  A    between atoms: N_8  and  C_9
REMARK    2  A    between atoms: C_14  and  O_15
REMARK    3  A    between atoms: O_15  and  C_16
REMARK    4  A    between atoms: C_17  and  O_18
REMARK    5  A    between atoms: O_18  and  C_19
REMARK                            x       y       z     vdW  Elec       q    Type
REMARK                         _______ _______ _______ _____ _____    ______ ____
ROOT
ATOM      1  O   LIG A   1     -10.880   6.678 132.582  0.00  0.00    -0.286 OA
ATOM      2  C   LIG A   1     -10.237   6.067 131.738  0.00  0.00    +0.200 A 
ATOM      3  C   LIG A   1     -10.216   6.444 130.353  0.00  0.00    +0.085 A 
ATOM      4  C   LIG A   1      -9.499   5.693 129.460  0.00  0.00    +0.212 A 
ATOM      5  O   LIG A   1      -9.608   6.210 128.209  0.00  0.00    -0.447 OA
ATOM      6  C   LIG A   1     -10.405   7.310 128.314  0.00  0.00    +0.198 A 
ATOM      7  C   LIG A   1     -10.809   7.496 129.619  0.00  0.00    +0.055 A 
ATOM      8  N   LIG A   1      -8.764   4.590 129.735  0.00  0.00    -0.311 N 
ATOM      9  C   LIG A   1      -8.133   3.866 128.639  0.00  0.00    +0.152 C 
ATOM     10  C   LIG A   1      -8.657   4.163 131.093  0.00  0.00    +0.101 A 
ATOM     11  C   LIG A   1      -9.400   4.871 132.093  0.00  0.00    +0.050 A 
ATOM     12  C   LIG A   1      -9.370   4.498 133.441  0.00  0.00    +0.017 A 
ATOM     13  C   LIG A   1      -8.580   3.433 133.852  0.00  0.00    +0.050 A 
ATOM     14  C   LIG A   1      -7.796   2.740 132.925  0.00  0.00    +0.164 A 
ATOM     15  C   LIG A   1      -7.856   3.074 131.545  0.00  0.00    +0.186 A 
ENDROOT
BRANCH  14  16
ATOM     16  O   LIG A   1      -6.966   1.716 133.308  0.00  0.00    -0.491 OA
ATOM     17  C   LIG A   1      -6.024   2.003 134.335  0.00  0.00    +0.277 C 
ENDBRANCH  14  16
BRANCH  15  18
ATOM     18  O   LIG A   1      -7.053   2.451 130.614  0.00  0.00    -0.489 OA
ATOM     19  C   LIG A   1      -5.666   2.776 130.641  0.00  0.00    +0.277 C 
ENDBRANCH  15  18
TORSDOF 2
ENDMDL
MODEL 6
REMARK VINA RESULT:      -5.8      1.691      5.886
REMARK  Name = NuBBE_1101
REMARK  5 active torsions:
REMARK  status: ('A' for Active; 'I' for Inactive)
REMARK    1  A    between atoms: N_8  and  C_9
REMARK    2  A    between atoms: C_14  and  O_15
REMARK    3  A    between atoms: O_15  and  C_16
REMARK    4  A    between atoms: C_17  and  O_18
REMARK    5  A    between atoms: O_18  and  C_19
REMARK                            x       y       z     vdW  Elec       q    Type
REMARK                         _______ _______ _______ _____ _____    ______ ____
ROOT
ATOM      1  O   LIG A   1      -5.338   1.738 126.096  0.00  0.00    -0.286 OA
ATOM      2  C   LIG A   1      -6.270   1.359 125.397  0.00  0.00    +0.200 A 
ATOM      3  C   LIG A   1      -6.716   2.079 124.238  0.00  0.00    +0.085 A 
ATOM      4  C   LIG A   1      -7.786   1.612 123.523  0.00  0.00    +0.212 A 
ATOM      5  O   LIG A   1      -8.050   2.429 122.472  0.00  0.00    -0.447 OA
ATOM      6  C   LIG A   1      -7.126   3.430 122.521  0.00  0.00    +0.198 A 
ATOM      7  C   LIG A   1      -6.280   3.260 123.595  0.00  0.00    +0.055 A 
ATOM      8  N   LIG A   1      -8.508   0.496 123.781  0.00  0.00    -0.311 N 
ATOM      9  C   LIG A   1      -9.673   0.197 122.958  0.00  0.00    +0.152 C 
ATOM     10  C   LIG A   1      -8.111  -0.336 124.872  0.00  0.00    +0.101 A 
ATOM     11  C   LIG A   1      -7.018   0.091 125.695  0.00  0.00    +0.050 A 
ATOM     12  C   LIG A   1      -6.587  -0.654 126.798  0.00  0.00    +0.017 A 
ATOM     13  C   LIG A   1      -7.199  -1.861 127.106  0.00  0.00    +0.050 A 
ATOM     14  C   LIG A   1      -8.235  -2.350 126.305  0.00  0.00    +0.164 A 
ATOM     15  C   LIG A   1      -8.719  -1.579 125.213  0.00  0.00    +0.186 A 
ENDROOT
BRANCH  14  16
ATOM     16  O   LIG A   1      -8.825  -3.564 126.553  0.00  0.00    -0.491 OA
ATOM     17  C   LIG A   1      -8.955  -3.948 127.917  0.00  0.00    +0.277 C 
ENDBRANCH  14  16
BRANCH  15  18
ATOM     18  O   LIG A   1      -9.698  -2.057 124.369  0.00  0.00    -0.489 OA
ATOM     19  C   LIG A   1      -9.336  -3.133 123.508  0.00  0.00    +0.277 C 
ENDBRANCH  15  18
TORSDOF 2
ENDMDL
MODEL 7
REMARK VINA RESULT:      -5.7      2.948      4.857
REMARK  Name = NuBBE_1101
REMARK  5 active torsions:
REMARK  status: ('A' for Active; 'I' for Inactive)
REMARK    1  A    between atoms: N_8  and  C_9
REMARK    2  A    between atoms: C_14  and  O_15
REMARK    3  A    between atoms: O_15  and  C_16
REMARK    4  A    between atoms: C_17  and  O_18
REMARK    5  A    between atoms: O_18  and  C_19
REMARK                            x       y       z     vdW  Elec       q    Type
REMARK                         _______ _______ _______ _____ _____    ______ ____
ROOT
ATOM      1  O   LIG A   1      -8.725  -4.485 127.822  0.00  0.00    -0.286 OA
ATOM      2  C   LIG A   1      -8.443  -3.293 127.798  0.00  0.00    +0.200 A 
ATOM      3  C   LIG A   1      -7.943  -2.590 128.946  0.00  0.00    +0.085 A 
ATOM      4  C   LIG A   1      -7.679  -1.249 128.855  0.00  0.00    +0.212 A 
ATOM      5  O   LIG A   1      -7.220  -0.772 130.039  0.00  0.00    -0.447 OA
ATOM      6  C   LIG A   1      -7.187  -1.833 130.895  0.00  0.00    +0.198 A 
ATOM      7  C   LIG A   1      -7.627  -2.979 130.268  0.00  0.00    +0.055 A 
ATOM      8  N   LIG A   1      -7.832  -0.466 127.761  0.00  0.00    -0.311 N 
ATOM      9  C   LIG A   1      -7.581   0.965 127.870  0.00  0.00    +0.152 C 
ATOM     10  C   LIG A   1      -8.259  -1.074 126.541  0.00  0.00    +0.101 A 
ATOM     11  C   LIG A   1      -8.587  -2.469 126.551  0.00  0.00    +0.050 A 
ATOM     12  C   LIG A   1      -9.039  -3.132 125.404  0.00  0.00    +0.017 A 
ATOM     13  C   LIG A   1      -9.150  -2.447 124.202  0.00  0.00    +0.050 A 
ATOM     14  C   LIG A   1      -8.794  -1.097 124.125  0.00  0.00    +0.164 A 
ATOM     15  C   LIG A   1      -8.384  -0.398 125.293  0.00  0.00    +0.186 A 
ENDROOT
BRANCH  14  16
ATOM     16  O   LIG A   1      -8.844  -0.406 122.941  0.00  0.00    -0.491 OA
ATOM     17  C   LIG A   1     -10.094   0.179 122.591  0.00  0.00    +0.277 C 
ENDBRANCH  14  16
BRANCH  15  18
ATOM     18  O   LIG A   1      -7.969   0.915 125.241  0.00  0.00    -0.489 OA
ATOM     19  C   LIG A   1      -6.715   1.170 124.615  0.00  0.00    +0.277 C 
ENDBRANCH  15  18
TORSDOF 2
ENDMDL
MODEL 8
REMARK VINA RESULT:      -5.7      7.373      9.607
REMARK  Name = NuBBE_1101
REMARK  5 active torsions:
REMARK  status: ('A' for Active; 'I' for Inactive)
REMARK    1  A    between atoms: N_8  and  C_9
REMARK    2  A    between atoms: C_14  and  O_15
REMARK    3  A    between atoms: O_15  and  C_16
REMARK    4  A    between atoms: C_17  and  O_18
REMARK    5  A    between atoms: O_18  and  C_19
REMARK                            x       y       z     vdW  Elec       q    Type
REMARK                         _______ _______ _______ _____ _____    ______ ____
ROOT
ATOM      1  O   LIG A   1     -12.794   6.995 131.781  0.00  0.00    -0.286 OA
ATOM      2  C   LIG A   1     -11.984   6.769 130.890  0.00  0.00    +0.200 A 
ATOM      3  C   LIG A   1     -12.282   6.969 129.500  0.00  0.00    +0.085 A 
ATOM      4  C   LIG A   1     -11.337   6.664 128.556  0.00  0.00    +0.212 A 
ATOM      5  O   LIG A   1     -11.810   6.920 127.310  0.00  0.00    -0.447 OA
ATOM      6  C   LIG A   1     -13.075   7.400 127.468  0.00  0.00    +0.198 A 
ATOM      7  C   LIG A   1     -13.415   7.448 128.803  0.00  0.00    +0.055 A 
ATOM      8  N   LIG A   1     -10.093   6.181 128.783  0.00  0.00    -0.311 N 
ATOM      9  C   LIG A   1      -9.249   5.833 127.647  0.00  0.00    +0.152 C 
ATOM     10  C   LIG A   1      -9.664   6.008 130.134  0.00  0.00    +0.101 A 
ATOM     11  C   LIG A   1     -10.598   6.274 131.187  0.00  0.00    +0.050 A 
ATOM     12  C   LIG A   1     -10.264   6.101 132.535  0.00  0.00    +0.017 A 
ATOM     13  C   LIG A   1      -8.985   5.692 132.888  0.00  0.00    +0.050 A 
ATOM     14  C   LIG A   1      -8.019   5.469 131.903  0.00  0.00    +0.164 A 
ATOM     15  C   LIG A   1      -8.360   5.589 130.528  0.00  0.00    +0.186 A 
ENDROOT
BRANCH  14  16
ATOM     16  O   LIG A   1      -6.733   5.114 132.223  0.00  0.00    -0.491 OA
ATOM     17  C   LIG A   1      -5.848   6.167 132.590  0.00  0.00    +0.277 C 
ENDBRANCH  14  16
BRANCH  15  18
ATOM     18  O   LIG A   1      -7.418   5.435 129.534  0.00  0.00    -0.489 OA
ATOM     19  C   LIG A   1      -6.929   4.115 129.310  0.00  0.00    +0.277 C 
ENDBRANCH  15  18
TORSDOF 2
ENDMDL
MODEL 9
REMARK VINA RESULT:      -5.5      2.924      5.210
REMARK  Name = NuBBE_1101
REMARK  5 active torsions:
REMARK  status: ('A' for Active; 'I' for Inactive)
REMARK    1  A    between atoms: N_8  and  C_9
REMARK    2  A    between atoms: C_14  and  O_15
REMARK    3  A    between atoms: O_15  and  C_16
REMARK    4  A    between atoms: C_17  and  O_18
REMARK    5  A    between atoms: O_18  and  C_19
REMARK                            x       y       z     vdW  Elec       q    Type
REMARK                         _______ _______ _______ _____ _____    ______ ____
ROOT
ATOM      1  O   LIG A   1      -6.868   1.194 128.730  0.00  0.00    -0.286 OA
ATOM      2  C   LIG A   1      -7.350   0.117 128.400  0.00  0.00    +0.200 A 
ATOM      3  C   LIG A   1      -7.421  -1.007 129.291  0.00  0.00    +0.085 A 
ATOM      4  C   LIG A   1      -7.944  -2.191 128.843  0.00  0.00    +0.212 A 
ATOM      5  O   LIG A   1      -7.922  -3.124 129.828  0.00  0.00    -0.447 OA
ATOM      6  C   LIG A   1      -7.378  -2.518 130.921  0.00  0.00    +0.198 A 
ATOM      7  C   LIG A   1      -7.050  -1.209 130.640  0.00  0.00    +0.055 A 
ATOM      8  N   LIG A   1      -8.433  -2.444 127.606  0.00  0.00    -0.311 N 
ATOM      9  C   LIG A   1      -8.874  -3.793 127.278  0.00  0.00    +0.152 C 
ATOM     10  C   LIG A   1      -8.475  -1.376 126.658  0.00  0.00    +0.101 A 
ATOM     11  C   LIG A   1      -7.921  -0.109 127.030  0.00  0.00    +0.050 A 
ATOM     12  C   LIG A   1      -7.898   0.978 126.148  0.00  0.00    +0.017 A 
ATOM     13  C   LIG A   1      -8.453   0.858 124.882  0.00  0.00    +0.050 A 
ATOM     14  C   LIG A   1      -9.053  -0.341 124.486  0.00  0.00    +0.164 A 
ATOM     15  C   LIG A   1      -9.036  -1.468 125.351  0.00  0.00    +0.186 A 
ENDROOT
BRANCH  14  16
ATOM     16  O   LIG A   1      -9.654  -0.474 123.259  0.00  0.00    -0.491 OA
ATOM     17  C   LIG A   1     -10.110   0.721 122.634  0.00  0.00    +0.277 C 
ENDBRANCH  14  16
BRANCH  15  18
ATOM     18  O   LIG A   1      -9.669  -2.646 125.016  0.00  0.00    -0.489 OA
ATOM     19  C   LIG A   1      -9.138  -3.371 123.911  0.00  0.00    +0.277 C 
ENDBRANCH  15  18
TORSDOF 2
ENDMDL
