MODEL 1
REMARK VINA RESULT:      -9.5      0.000      0.000
REMARK  Name = NuBBE_1332
REMARK  11 active torsions:
REMARK  status: ('A' for Active; 'I' for Inactive)
REMARK    1  A    between atoms: C_3  and  O_30
REMARK    2  A    between atoms: C_4  and  C_24
REMARK    3  A    between atoms: C_8  and  O_9
REMARK    4  A    between atoms: C_13  and  C_14
REMARK    5  A    between atoms: C_13  and  C_17
REMARK    6  A    between atoms: C_18  and  C_19
REMARK    7  A    between atoms: C_19  and  C_20
REMARK    8  A    between atoms: C_21  and  C_22
REMARK    9  A    between atoms: C_21  and  C_23
REMARK   10  A    between atoms: O_30  and  C_31
REMARK   11  A    between atoms: C_31  and  C_32
REMARK                            x       y       z     vdW  Elec       q    Type
REMARK                         _______ _______ _______ _____ _____    ______ ____
ROOT
ATOM      1  O   LIG A   1      -8.207   4.542 127.327  0.00  0.00    -0.288 OA
ATOM      2  C   LIG A   1      -7.589   3.794 126.575  0.00  0.00    +0.214 C 
ATOM      3  C   LIG A   1      -6.749   4.246 125.404  0.00  0.00    +0.292 C 
ATOM      4  C   LIG A   1      -7.221   3.370 124.236  0.00  0.00    +0.252 C 
ATOM      5  O   LIG A   1      -7.020   1.962 124.481  0.00  0.00    -0.479 OA
ATOM      6  C   LIG A   1      -7.288   1.501 125.741  0.00  0.00    +0.143 A 
ATOM      7  C   LIG A   1      -7.611   2.342 126.811  0.00  0.00    +0.105 A 
ATOM      8  C   LIG A   1      -7.870   1.825 128.080  0.00  0.00    +0.142 A 
ATOM      9  C   LIG A   1      -7.742   0.450 128.315  0.00  0.00    +0.059 A 
ATOM     10  C   LIG A   1      -7.391  -0.399 127.252  0.00  0.00    +0.139 A 
ATOM     11  O   LIG A   1      -7.229  -1.750 127.406  0.00  0.00    -0.481 OA
ATOM     12  C   LIG A   1      -7.311  -2.343 128.717  0.00  0.00    +0.123 C 
ATOM     13  C   LIG A   1      -5.921  -2.902 129.050  0.00  0.00    +0.060 C 
ATOM     14  C   LIG A   1      -7.752  -1.419 129.823  0.00  0.00    +0.020 C 
ATOM     15  C   LIG A   1      -7.958  -0.113 129.642  0.00  0.00    +0.015 C 
ATOM     16  C   LIG A   1      -8.314  -3.495 128.593  0.00  0.00    +0.060 C 
ATOM     17  C   LIG A   1      -7.194   0.112 125.950  0.00  0.00    +0.041 A 
ENDROOT
BRANCH   4  18
ATOM     18  C   LIG A   1      -6.501   3.729 122.944  0.00  0.00    -0.003 A 
ATOM     19  C   LIG A   1      -5.271   4.409 122.965  0.00  0.00    +0.007 A 
ATOM     20  C   LIG A   1      -4.606   4.725 121.781  0.00  0.00    +0.000 A 
ATOM     21  C   LIG A   1      -5.167   4.377 120.556  0.00  0.00    +0.000 A 
ATOM     22  C   LIG A   1      -6.398   3.723 120.515  0.00  0.00    +0.000 A 
ATOM     23  C   LIG A   1      -7.064   3.403 121.700  0.00  0.00    +0.007 A 
ENDBRANCH   4  18
BRANCH   8  24
ATOM     24  O   LIG A   1      -8.221   2.644 129.130  0.00  0.00    -0.505 OA
ATOM     25  H   LIG A   1      -7.910   3.557 128.939  0.00  0.00    +0.292 HD
ENDBRANCH   8  24
BRANCH  17  26
ATOM     26  C   LIG A   1      -6.851  -0.820 124.799  0.00  0.00    +0.069 C 
BRANCH  26  27
ATOM     27  C   LIG A   1      -8.072  -1.448 124.181  0.00  0.00    -0.023 C 
ATOM     28  C   LIG A   1      -8.377  -2.756 124.071  0.00  0.00    -0.079 C 
ATOM     29  C   LIG A   1      -7.541  -3.893 124.591  0.00  0.00    +0.038 C 
ATOM     30  C   LIG A   1      -9.644  -3.189 123.382  0.00  0.00    +0.038 C 
ENDBRANCH  26  27
ENDBRANCH  17  26
BRANCH   3  31
ATOM     31  O   LIG A   1      -5.360   3.998 125.681  0.00  0.00    -0.449 OA
BRANCH  31  32
ATOM     32  C   LIG A   1      -4.822   4.704 126.709  0.00  0.00    +0.305 C 
ATOM     33  C   LIG A   1      -4.085   3.779 127.628  0.00  0.00    +0.136 C 
ATOM     34  O   LIG A   1      -4.919   5.911 126.866  0.00  0.00    -0.251 OA
ENDBRANCH  31  32
ENDBRANCH   3  31
TORSDOF 6
ENDMDL
MODEL 2
REMARK VINA RESULT:      -8.9      2.323      6.413
REMARK  Name = NuBBE_1332
REMARK  11 active torsions:
REMARK  status: ('A' for Active; 'I' for Inactive)
REMARK    1  A    between atoms: C_3  and  O_30
REMARK    2  A    between atoms: C_4  and  C_24
REMARK    3  A    between atoms: C_8  and  O_9
REMARK    4  A    between atoms: C_13  and  C_14
REMARK    5  A    between atoms: C_13  and  C_17
REMARK    6  A    between atoms: C_18  and  C_19
REMARK    7  A    between atoms: C_19  and  C_20
REMARK    8  A    between atoms: C_21  and  C_22
REMARK    9  A    between atoms: C_21  and  C_23
REMARK   10  A    between atoms: O_30  and  C_31
REMARK   11  A    between atoms: C_31  and  C_32
REMARK                            x       y       z     vdW  Elec       q    Type
REMARK                         _______ _______ _______ _____ _____    ______ ____
ROOT
ATOM      1  O   LIG A   1      -6.758  -2.373 129.957  0.00  0.00    -0.288 OA
ATOM      2  C   LIG A   1      -7.071  -1.679 128.994  0.00  0.00    +0.214 C 
ATOM      3  C   LIG A   1      -7.088  -2.148 127.559  0.00  0.00    +0.292 C 
ATOM      4  C   LIG A   1      -6.309  -1.068 126.795  0.00  0.00    +0.252 C 
ATOM      5  O   LIG A   1      -6.919   0.236 126.902  0.00  0.00    -0.479 OA
ATOM      6  C   LIG A   1      -7.427   0.592 128.122  0.00  0.00    +0.143 A 
ATOM      7  C   LIG A   1      -7.500  -0.287 129.207  0.00  0.00    +0.105 A 
ATOM      8  C   LIG A   1      -8.033   0.120 130.430  0.00  0.00    +0.142 A 
ATOM      9  C   LIG A   1      -8.569   1.408 130.565  0.00  0.00    +0.059 A 
ATOM     10  C   LIG A   1      -8.525   2.288 129.471  0.00  0.00    +0.139 A 
ATOM     11  O   LIG A   1      -9.044   3.554 129.519  0.00  0.00    -0.481 OA
ATOM     12  C   LIG A   1      -9.764   3.997 130.687  0.00  0.00    +0.123 C 
ATOM     13  C   LIG A   1     -11.219   4.231 130.261  0.00  0.00    +0.060 C 
ATOM     14  C   LIG A   1      -9.736   3.056 131.863  0.00  0.00    +0.020 C 
ATOM     15  C   LIG A   1      -9.177   1.846 131.815  0.00  0.00    +0.015 C 
ATOM     16  C   LIG A   1      -9.124   5.329 131.092  0.00  0.00    +0.060 C 
ATOM     17  C   LIG A   1      -7.925   1.902 128.252  0.00  0.00    +0.041 A 
ENDROOT
BRANCH   4  18
ATOM     18  C   LIG A   1      -6.187  -1.410 125.317  0.00  0.00    -0.003 A 
ATOM     19  C   LIG A   1      -5.466  -2.539 124.892  0.00  0.00    +0.007 A 
ATOM     20  C   LIG A   1      -5.366  -2.857 123.539  0.00  0.00    +0.000 A 
ATOM     21  C   LIG A   1      -5.974  -2.044 122.587  0.00  0.00    +0.000 A 
ATOM     22  C   LIG A   1      -6.674  -0.907 122.989  0.00  0.00    +0.000 A 
ATOM     23  C   LIG A   1      -6.778  -0.587 124.345  0.00  0.00    +0.007 A 
ENDBRANCH   4  18
BRANCH   8  24
ATOM     24  O   LIG A   1      -8.076  -0.730 131.512  0.00  0.00    -0.505 OA
ATOM     25  H   LIG A   1      -8.318  -0.213 132.312  0.00  0.00    +0.292 HD
ENDBRANCH   8  24
BRANCH  17  26
ATOM     26  C   LIG A   1      -7.851   2.875 127.086  0.00  0.00    +0.069 C 
BRANCH  26  27
ATOM     27  C   LIG A   1      -6.463   3.422 126.879  0.00  0.00    -0.023 C 
ATOM     28  C   LIG A   1      -5.737   3.455 125.744  0.00  0.00    -0.079 C 
ATOM     29  C   LIG A   1      -6.197   2.962 124.400  0.00  0.00    +0.038 C 
ATOM     30  C   LIG A   1      -4.340   4.019 125.748  0.00  0.00    +0.038 C 
ENDBRANCH  26  27
ENDBRANCH  17  26
BRANCH   3  31
ATOM     31  O   LIG A   1      -8.444  -2.211 127.086  0.00  0.00    -0.449 OA
BRANCH  31  32
ATOM     32  C   LIG A   1      -8.921  -3.451 126.807  0.00  0.00    +0.305 C 
ATOM     33  C   LIG A   1      -9.019  -3.634 125.324  0.00  0.00    +0.136 C 
ATOM     34  O   LIG A   1      -9.225  -4.295 127.635  0.00  0.00    -0.251 OA
ENDBRANCH  31  32
ENDBRANCH   3  31
TORSDOF 6
ENDMDL
MODEL 3
REMARK VINA RESULT:      -8.6      2.286      4.701
REMARK  Name = NuBBE_1332
REMARK  11 active torsions:
REMARK  status: ('A' for Active; 'I' for Inactive)
REMARK    1  A    between atoms: C_3  and  O_30
REMARK    2  A    between atoms: C_4  and  C_24
REMARK    3  A    between atoms: C_8  and  O_9
REMARK    4  A    between atoms: C_13  and  C_14
REMARK    5  A    between atoms: C_13  and  C_17
REMARK    6  A    between atoms: C_18  and  C_19
REMARK    7  A    between atoms: C_19  and  C_20
REMARK    8  A    between atoms: C_21  and  C_22
REMARK    9  A    between atoms: C_21  and  C_23
REMARK   10  A    between atoms: O_30  and  C_31
REMARK   11  A    between atoms: C_31  and  C_32
REMARK                            x       y       z     vdW  Elec       q    Type
REMARK                         _______ _______ _______ _____ _____    ______ ____
ROOT
ATOM      1  O   LIG A   1      -8.807   3.830 125.347  0.00  0.00    -0.288 OA
ATOM      2  C   LIG A   1      -8.076   2.946 125.785  0.00  0.00    +0.214 C 
ATOM      3  C   LIG A   1      -7.262   1.997 124.938  0.00  0.00    +0.292 C 
ATOM      4  C   LIG A   1      -7.583   0.608 125.506  0.00  0.00    +0.252 C 
ATOM      5  O   LIG A   1      -7.215   0.478 126.896  0.00  0.00    -0.479 OA
ATOM      6  C   LIG A   1      -7.463   1.547 127.712  0.00  0.00    +0.143 A 
ATOM      7  C   LIG A   1      -7.922   2.781 127.240  0.00  0.00    +0.105 A 
ATOM      8  C   LIG A   1      -8.154   3.845 128.111  0.00  0.00    +0.142 A 
ATOM      9  C   LIG A   1      -7.861   3.709 129.475  0.00  0.00    +0.059 A 
ATOM     10  C   LIG A   1      -7.374   2.482 129.953  0.00  0.00    +0.139 A 
ATOM     11  O   LIG A   1      -7.047   2.277 131.267  0.00  0.00    -0.481 OA
ATOM     12  C   LIG A   1      -7.095   3.372 132.204  0.00  0.00    +0.123 C 
ATOM     13  C   LIG A   1      -5.658   3.631 132.672  0.00  0.00    +0.060 C 
ATOM     14  C   LIG A   1      -7.684   4.654 131.675  0.00  0.00    +0.020 C 
ATOM     15  C   LIG A   1      -8.047   4.818 130.401  0.00  0.00    +0.015 C 
ATOM     16  C   LIG A   1      -7.941   2.878 133.382  0.00  0.00    +0.060 C 
ATOM     17  C   LIG A   1      -7.201   1.381 129.086  0.00  0.00    +0.041 A 
ENDROOT
BRANCH   4  18
ATOM     18  C   LIG A   1      -6.874  -0.491 124.728  0.00  0.00    -0.003 A 
ATOM     19  C   LIG A   1      -5.992  -1.379 125.369  0.00  0.00    +0.007 A 
ATOM     20  C   LIG A   1      -5.353  -2.392 124.656  0.00  0.00    +0.000 A 
ATOM     21  C   LIG A   1      -5.576  -2.526 123.289  0.00  0.00    +0.000 A 
ATOM     22  C   LIG A   1      -6.428  -1.640 122.632  0.00  0.00    +0.000 A 
ATOM     23  C   LIG A   1      -7.072  -0.625 123.345  0.00  0.00    +0.007 A 
ENDBRANCH   4  18
BRANCH   8  24
ATOM     24  O   LIG A   1      -8.638   5.051 127.657  0.00  0.00    -0.505 OA
ATOM     25  H   LIG A   1      -9.381   5.333 128.235  0.00  0.00    +0.292 HD
ENDBRANCH   8  24
BRANCH  17  26
ATOM     26  C   LIG A   1      -6.707   0.046 129.621  0.00  0.00    +0.069 C 
BRANCH  26  27
ATOM     27  C   LIG A   1      -7.685  -1.072 129.374  0.00  0.00    -0.023 C 
ATOM     28  C   LIG A   1      -7.427  -2.349 129.027  0.00  0.00    -0.079 C 
ATOM     29  C   LIG A   1      -6.058  -2.942 128.838  0.00  0.00    +0.038 C 
ATOM     30  C   LIG A   1      -8.556  -3.317 128.791  0.00  0.00    +0.038 C 
ENDBRANCH  26  27
ENDBRANCH  17  26
BRANCH   3  31
ATOM     31  O   LIG A   1      -5.863   2.286 125.094  0.00  0.00    -0.449 OA
BRANCH  31  32
ATOM     32  C   LIG A   1      -5.469   3.535 124.734  0.00  0.00    +0.305 C 
ATOM     33  C   LIG A   1      -4.689   4.161 125.849  0.00  0.00    +0.136 C 
ATOM     34  O   LIG A   1      -5.708   4.071 123.664  0.00  0.00    -0.251 OA
ENDBRANCH  31  32
ENDBRANCH   3  31
TORSDOF 6
ENDMDL
MODEL 4
REMARK VINA RESULT:      -8.4      2.634      6.341
REMARK  Name = NuBBE_1332
REMARK  11 active torsions:
REMARK  status: ('A' for Active; 'I' for Inactive)
REMARK    1  A    between atoms: C_3  and  O_30
REMARK    2  A    between atoms: C_4  and  C_24
REMARK    3  A    between atoms: C_8  and  O_9
REMARK    4  A    between atoms: C_13  and  C_14
REMARK    5  A    between atoms: C_13  and  C_17
REMARK    6  A    between atoms: C_18  and  C_19
REMARK    7  A    between atoms: C_19  and  C_20
REMARK    8  A    between atoms: C_21  and  C_22
REMARK    9  A    between atoms: C_21  and  C_23
REMARK   10  A    between atoms: O_30  and  C_31
REMARK   11  A    between atoms: C_31  and  C_32
REMARK                            x       y       z     vdW  Elec       q    Type
REMARK                         _______ _______ _______ _____ _____    ______ ____
ROOT
ATOM      1  O   LIG A   1      -8.399   4.783 127.105  0.00  0.00    -0.288 OA
ATOM      2  C   LIG A   1      -8.160   3.714 127.659  0.00  0.00    +0.214 C 
ATOM      3  C   LIG A   1      -8.156   3.496 129.154  0.00  0.00    +0.292 C 
ATOM      4  C   LIG A   1      -6.830   2.775 129.430  0.00  0.00    +0.252 C 
ATOM      5  O   LIG A   1      -6.731   1.510 128.741  0.00  0.00    -0.479 OA
ATOM      6  C   LIG A   1      -7.202   1.458 127.457  0.00  0.00    +0.143 A 
ATOM      7  C   LIG A   1      -7.882   2.518 126.848  0.00  0.00    +0.105 A 
ATOM      8  C   LIG A   1      -8.349   2.415 125.538  0.00  0.00    +0.142 A 
ATOM      9  C   LIG A   1      -8.201   1.212 124.834  0.00  0.00    +0.059 A 
ATOM     10  C   LIG A   1      -7.543   0.134 125.449  0.00  0.00    +0.139 A 
ATOM     11  O   LIG A   1      -7.376  -1.078 124.834  0.00  0.00    -0.481 OA
ATOM     12  C   LIG A   1      -7.976  -1.325 123.547  0.00  0.00    +0.123 C 
ATOM     13  C   LIG A   1      -9.031  -2.421 123.742  0.00  0.00    +0.060 C 
ATOM     14  C   LIG A   1      -8.616  -0.131 122.888  0.00  0.00    +0.020 C 
ATOM     15  C   LIG A   1      -8.722   1.059 123.482  0.00  0.00    +0.015 C 
ATOM     16  C   LIG A   1      -6.847  -1.849 122.653  0.00  0.00    +0.060 C 
ATOM     17  C   LIG A   1      -7.008   0.256 126.751  0.00  0.00    +0.041 A 
ENDROOT
BRANCH   4  18
ATOM     18  C   LIG A   1      -6.636   2.515 130.917  0.00  0.00    -0.003 A 
ATOM     19  C   LIG A   1      -6.468   1.208 131.408  0.00  0.00    +0.007 A 
ATOM     20  C   LIG A   1      -6.277   0.973 132.769  0.00  0.00    +0.000 A 
ATOM     21  C   LIG A   1      -6.266   2.040 133.663  0.00  0.00    +0.000 A 
ATOM     22  C   LIG A   1      -6.456   3.340 133.196  0.00  0.00    +0.000 A 
ATOM     23  C   LIG A   1      -6.643   3.579 131.833  0.00  0.00    +0.007 A 
ENDBRANCH   4  18
BRANCH   8  24
ATOM     24  O   LIG A   1      -8.990   3.465 124.921  0.00  0.00    -0.505 OA
ATOM     25  H   LIG A   1      -8.505   3.693 124.096  0.00  0.00    +0.292 HD
ENDBRANCH   8  24
BRANCH  17  26
ATOM     26  C   LIG A   1      -6.267  -0.906 127.392  0.00  0.00    +0.069 C 
BRANCH  26  27
ATOM     27  C   LIG A   1      -7.144  -2.116 127.579  0.00  0.00    -0.023 C 
ATOM     28  C   LIG A   1      -7.871  -2.465 128.659  0.00  0.00    -0.079 C 
ATOM     29  C   LIG A   1      -7.980  -1.670 129.931  0.00  0.00    +0.038 C 
ATOM     30  C   LIG A   1      -8.664  -3.746 128.663  0.00  0.00    +0.038 C 
ENDBRANCH  26  27
ENDBRANCH  17  26
BRANCH   3  31
ATOM     31  O   LIG A   1      -9.264   2.658 129.523  0.00  0.00    -0.449 OA
BRANCH  31  32
ATOM     32  C   LIG A   1     -10.177   3.213 130.361  0.00  0.00    +0.305 C 
ATOM     33  C   LIG A   1     -10.176   2.481 131.668  0.00  0.00    +0.136 C 
ATOM     34  O   LIG A   1     -10.893   4.165 130.097  0.00  0.00    -0.251 OA
ENDBRANCH  31  32
ENDBRANCH   3  31
TORSDOF 6
ENDMDL
MODEL 5
REMARK VINA RESULT:      -8.2      2.963      6.970
REMARK  Name = NuBBE_1332
REMARK  11 active torsions:
REMARK  status: ('A' for Active; 'I' for Inactive)
REMARK    1  A    between atoms: C_3  and  O_30
REMARK    2  A    between atoms: C_4  and  C_24
REMARK    3  A    between atoms: C_8  and  O_9
REMARK    4  A    between atoms: C_13  and  C_14
REMARK    5  A    between atoms: C_13  and  C_17
REMARK    6  A    between atoms: C_18  and  C_19
REMARK    7  A    between atoms: C_19  and  C_20
REMARK    8  A    between atoms: C_21  and  C_22
REMARK    9  A    between atoms: C_21  and  C_23
REMARK   10  A    between atoms: O_30  and  C_31
REMARK   11  A    between atoms: C_31  and  C_32
REMARK                            x       y       z     vdW  Elec       q    Type
REMARK                         _______ _______ _______ _____ _____    ______ ____
ROOT
ATOM      1  O   LIG A   1      -7.027  -2.131 130.913  0.00  0.00    -0.288 OA
ATOM      2  C   LIG A   1      -6.410  -1.289 130.266  0.00  0.00    +0.214 C 
ATOM      3  C   LIG A   1      -5.318  -0.403 130.817  0.00  0.00    +0.292 C 
ATOM      4  C   LIG A   1      -5.708   1.010 130.363  0.00  0.00    +0.252 C 
ATOM      5  O   LIG A   1      -5.775   1.133 128.926  0.00  0.00    -0.479 OA
ATOM      6  C   LIG A   1      -6.327   0.091 128.233  0.00  0.00    +0.143 A 
ATOM      7  C   LIG A   1      -6.698  -1.117 128.833  0.00  0.00    +0.105 A 
ATOM      8  C   LIG A   1      -7.252  -2.154 128.083  0.00  0.00    +0.142 A 
ATOM      9  C   LIG A   1      -7.382  -2.020 126.694  0.00  0.00    +0.059 A 
ATOM     10  C   LIG A   1      -6.987  -0.821 126.079  0.00  0.00    +0.139 A 
ATOM     11  O   LIG A   1      -7.065  -0.621 124.727  0.00  0.00    -0.481 OA
ATOM     12  C   LIG A   1      -7.467  -1.700 123.859  0.00  0.00    +0.123 C 
ATOM     13  C   LIG A   1      -6.260  -2.043 122.975  0.00  0.00    +0.060 C 
ATOM     14  C   LIG A   1      -7.946  -2.948 124.552  0.00  0.00    +0.020 C 
ATOM     15  C   LIG A   1      -7.912  -3.104 125.877  0.00  0.00    +0.015 C 
ATOM     16  C   LIG A   1      -8.599  -1.140 122.991  0.00  0.00    +0.060 C 
ATOM     17  C   LIG A   1      -6.488   0.257 126.844  0.00  0.00    +0.041 A 
ENDROOT
BRANCH   4  18
ATOM     18  C   LIG A   1      -4.727   2.052 130.879  0.00  0.00    -0.003 A 
ATOM     19  C   LIG A   1      -4.239   3.066 130.036  0.00  0.00    +0.007 A 
ATOM     20  C   LIG A   1      -3.349   4.028 130.514  0.00  0.00    +0.000 A 
ATOM     21  C   LIG A   1      -2.924   3.983 131.839  0.00  0.00    +0.000 A 
ATOM     22  C   LIG A   1      -3.379   2.970 132.682  0.00  0.00    +0.000 A 
ATOM     23  C   LIG A   1      -4.273   2.007 132.206  0.00  0.00    +0.007 A 
ENDBRANCH   4  18
BRANCH   8  24
ATOM     24  O   LIG A   1      -7.650  -3.332 128.672  0.00  0.00    -0.505 OA
ATOM     25  H   LIG A   1      -6.914  -3.981 128.614  0.00  0.00    +0.292 HD
ENDBRANCH   8  24
BRANCH  17  26
ATOM     26  C   LIG A   1      -6.097   1.564 126.173  0.00  0.00    +0.069 C 
BRANCH  26  27
ATOM     27  C   LIG A   1      -4.619   1.839 126.265  0.00  0.00    -0.023 C 
ATOM     28  C   LIG A   1      -3.996   3.028 126.394  0.00  0.00    -0.079 C 
ATOM     29  C   LIG A   1      -4.678   4.363 126.507  0.00  0.00    +0.038 C 
ATOM     30  C   LIG A   1      -2.492   3.099 126.435  0.00  0.00    +0.038 C 
ENDBRANCH  26  27
ENDBRANCH  17  26
BRANCH   3  31
ATOM     31  O   LIG A   1      -4.055  -0.778 130.242  0.00  0.00    -0.449 OA
BRANCH  31  32
ATOM     32  C   LIG A   1      -3.383  -1.773 130.877  0.00  0.00    +0.305 C 
ATOM     33  C   LIG A   1      -3.276  -1.459 132.338  0.00  0.00    +0.136 C 
ATOM     34  O   LIG A   1      -2.934  -2.775 130.346  0.00  0.00    -0.251 OA
ENDBRANCH  31  32
ENDBRANCH   3  31
TORSDOF 6
ENDMDL
MODEL 6
REMARK VINA RESULT:      -8.2      2.084      3.423
REMARK  Name = NuBBE_1332
REMARK  11 active torsions:
REMARK  status: ('A' for Active; 'I' for Inactive)
REMARK    1  A    between atoms: C_3  and  O_30
REMARK    2  A    between atoms: C_4  and  C_24
REMARK    3  A    between atoms: C_8  and  O_9
REMARK    4  A    between atoms: C_13  and  C_14
REMARK    5  A    between atoms: C_13  and  C_17
REMARK    6  A    between atoms: C_18  and  C_19
REMARK    7  A    between atoms: C_19  and  C_20
REMARK    8  A    between atoms: C_21  and  C_22
REMARK    9  A    between atoms: C_21  and  C_23
REMARK   10  A    between atoms: O_30  and  C_31
REMARK   11  A    between atoms: C_31  and  C_32
REMARK                            x       y       z     vdW  Elec       q    Type
REMARK                         _______ _______ _______ _____ _____    ______ ____
ROOT
ATOM      1  O   LIG A   1      -4.425   5.808 128.059  0.00  0.00    -0.288 OA
ATOM      2  C   LIG A   1      -4.994   4.870 127.508  0.00  0.00    +0.214 C 
ATOM      3  C   LIG A   1      -4.713   4.393 126.103  0.00  0.00    +0.292 C 
ATOM      4  C   LIG A   1      -6.099   4.293 125.450  0.00  0.00    +0.252 C 
ATOM      5  O   LIG A   1      -6.967   3.361 126.130  0.00  0.00    -0.479 OA
ATOM      6  C   LIG A   1      -6.930   3.354 127.498  0.00  0.00    +0.143 A 
ATOM      7  C   LIG A   1      -6.010   4.100 128.243  0.00  0.00    +0.105 A 
ATOM      8  C   LIG A   1      -6.008   4.056 129.637  0.00  0.00    +0.142 A 
ATOM      9  C   LIG A   1      -6.891   3.202 130.311  0.00  0.00    +0.059 A 
ATOM     10  C   LIG A   1      -7.799   2.429 129.569  0.00  0.00    +0.139 A 
ATOM     11  O   LIG A   1      -8.680   1.559 130.154  0.00  0.00    -0.481 OA
ATOM     12  C   LIG A   1      -8.630   1.325 131.575  0.00  0.00    +0.123 C 
ATOM     13  C   LIG A   1      -8.219  -0.139 131.779  0.00  0.00    +0.060 C 
ATOM     14  C   LIG A   1      -7.692   2.216 132.348  0.00  0.00    +0.020 C 
ATOM     15  C   LIG A   1      -6.879   3.098 131.764  0.00  0.00    +0.015 C 
ATOM     16  C   LIG A   1     -10.059   1.536 132.085  0.00  0.00    +0.060 C 
ATOM     17  C   LIG A   1      -7.851   2.522 128.161  0.00  0.00    +0.041 A 
ENDROOT
BRANCH   4  18
ATOM     18  C   LIG A   1      -5.999   3.865 123.993  0.00  0.00    -0.003 A 
ATOM     19  C   LIG A   1      -6.697   2.739 123.520  0.00  0.00    +0.007 A 
ATOM     20  C   LIG A   1      -6.614   2.356 122.182  0.00  0.00    +0.000 A 
ATOM     21  C   LIG A   1      -5.824   3.085 121.299  0.00  0.00    +0.000 A 
ATOM     22  C   LIG A   1      -5.107   4.190 121.756  0.00  0.00    +0.000 A 
ATOM     23  C   LIG A   1      -5.189   4.577 123.095  0.00  0.00    +0.007 A 
ENDBRANCH   4  18
BRANCH   8  24
ATOM     24  O   LIG A   1      -5.128   4.813 130.377  0.00  0.00    -0.505 OA
ATOM     25  H   LIG A   1      -5.420   5.751 130.356  0.00  0.00    +0.292 HD
ENDBRANCH   8  24
BRANCH  17  26
ATOM     26  C   LIG A   1      -8.863   1.707 127.371  0.00  0.00    +0.069 C 
BRANCH  26  27
ATOM     27  C   LIG A   1      -8.294   0.401 126.881  0.00  0.00    -0.023 C 
ATOM     28  C   LIG A   1      -8.488  -0.202 125.690  0.00  0.00    -0.079 C 
ATOM     29  C   LIG A   1      -9.316   0.344 124.560  0.00  0.00    +0.038 C 
ATOM     30  C   LIG A   1      -7.852  -1.536 125.400  0.00  0.00    +0.038 C 
ENDBRANCH  26  27
ENDBRANCH  17  26
BRANCH   3  31
ATOM     31  O   LIG A   1      -4.090   3.099 126.146  0.00  0.00    -0.449 OA
BRANCH  31  32
ATOM     32  C   LIG A   1      -2.965   3.004 126.902  0.00  0.00    +0.305 C 
ATOM     33  C   LIG A   1      -1.770   3.374 126.079  0.00  0.00    +0.136 C 
ATOM     34  O   LIG A   1      -2.928   2.670 128.075  0.00  0.00    -0.251 OA
ENDBRANCH  31  32
ENDBRANCH   3  31
TORSDOF 6
ENDMDL
MODEL 7
REMARK VINA RESULT:      -8.1      1.611      2.114
REMARK  Name = NuBBE_1332
REMARK  11 active torsions:
REMARK  status: ('A' for Active; 'I' for Inactive)
REMARK    1  A    between atoms: C_3  and  O_30
REMARK    2  A    between atoms: C_4  and  C_24
REMARK    3  A    between atoms: C_8  and  O_9
REMARK    4  A    between atoms: C_13  and  C_14
REMARK    5  A    between atoms: C_13  and  C_17
REMARK    6  A    between atoms: C_18  and  C_19
REMARK    7  A    between atoms: C_19  and  C_20
REMARK    8  A    between atoms: C_21  and  C_22
REMARK    9  A    between atoms: C_21  and  C_23
REMARK   10  A    between atoms: O_30  and  C_31
REMARK   11  A    between atoms: C_31  and  C_32
REMARK                            x       y       z     vdW  Elec       q    Type
REMARK                         _______ _______ _______ _____ _____    ______ ____
ROOT
ATOM      1  O   LIG A   1      -7.230   3.635 128.858  0.00  0.00    -0.288 OA
ATOM      2  C   LIG A   1      -6.675   2.964 127.993  0.00  0.00    +0.214 C 
ATOM      3  C   LIG A   1      -6.162   3.501 126.678  0.00  0.00    +0.292 C 
ATOM      4  C   LIG A   1      -6.729   2.539 125.625  0.00  0.00    +0.252 C 
ATOM      5  O   LIG A   1      -6.283   1.179 125.818  0.00  0.00    -0.479 OA
ATOM      6  C   LIG A   1      -6.223   0.716 127.105  0.00  0.00    +0.143 A 
ATOM      7  C   LIG A   1      -6.440   1.529 128.221  0.00  0.00    +0.105 A 
ATOM      8  C   LIG A   1      -6.361   1.013 129.514  0.00  0.00    +0.142 A 
ATOM      9  C   LIG A   1      -5.992  -0.325 129.712  0.00  0.00    +0.059 A 
ATOM     10  C   LIG A   1      -5.745  -1.141 128.596  0.00  0.00    +0.139 A 
ATOM     11  O   LIG A   1      -5.363  -2.451 128.708  0.00  0.00    -0.481 OA
ATOM     12  C   LIG A   1      -5.093  -3.018 130.005  0.00  0.00    +0.123 C 
ATOM     13  C   LIG A   1      -3.599  -3.366 130.046  0.00  0.00    +0.060 C 
ATOM     14  C   LIG A   1      -5.430  -2.139 131.181  0.00  0.00    +0.020 C 
ATOM     15  C   LIG A   1      -5.854  -0.880 131.052  0.00  0.00    +0.015 C 
ATOM     16  C   LIG A   1      -5.924  -4.303 130.082  0.00  0.00    +0.060 C 
ATOM     17  C   LIG A   1      -5.890  -0.640 127.283  0.00  0.00    +0.041 A 
ENDROOT
BRANCH   4  18
ATOM     18  C   LIG A   1      -6.344   2.964 124.216  0.00  0.00    -0.003 A 
ATOM     19  C   LIG A   1      -6.714   2.192 123.100  0.00  0.00    +0.007 A 
ATOM     20  C   LIG A   1      -6.371   2.590 121.809  0.00  0.00    +0.000 A 
ATOM     21  C   LIG A   1      -5.641   3.759 121.613  0.00  0.00    +0.000 A 
ATOM     22  C   LIG A   1      -5.246   4.524 122.710  0.00  0.00    +0.000 A 
ATOM     23  C   LIG A   1      -5.590   4.129 124.005  0.00  0.00    +0.007 A 
ENDBRANCH   4  18
BRANCH   8  24
ATOM     24  O   LIG A   1      -6.607   1.799 130.617  0.00  0.00    -0.505 OA
ATOM     25  H   LIG A   1      -7.260   2.492 130.374  0.00  0.00    +0.292 HD
ENDBRANCH   8  24
BRANCH  17  26
ATOM     26  C   LIG A   1      -5.655  -1.542 126.083  0.00  0.00    +0.069 C 
BRANCH  26  27
ATOM     27  C   LIG A   1      -6.921  -2.201 125.600  0.00  0.00    -0.023 C 
ATOM     28  C   LIG A   1      -7.384  -2.300 124.338  0.00  0.00    -0.079 C 
ATOM     29  C   LIG A   1      -6.689  -1.780 123.110  0.00  0.00    +0.038 C 
ATOM     30  C   LIG A   1      -8.703  -2.974 124.061  0.00  0.00    +0.038 C 
ENDBRANCH  26  27
ENDBRANCH  17  26
BRANCH   3  31
ATOM     31  O   LIG A   1      -4.725   3.459 126.666  0.00  0.00    -0.449 OA
BRANCH  31  32
ATOM     32  C   LIG A   1      -4.093   4.553 127.165  0.00  0.00    +0.305 C 
ATOM     33  C   LIG A   1      -2.671   4.211 127.489  0.00  0.00    +0.136 C 
ATOM     34  O   LIG A   1      -4.600   5.650 127.327  0.00  0.00    -0.251 OA
ENDBRANCH  31  32
ENDBRANCH   3  31
TORSDOF 6
ENDMDL
MODEL 8
REMARK VINA RESULT:      -8.1      2.700      8.333
REMARK  Name = NuBBE_1332
REMARK  11 active torsions:
REMARK  status: ('A' for Active; 'I' for Inactive)
REMARK    1  A    between atoms: C_3  and  O_30
REMARK    2  A    between atoms: C_4  and  C_24
REMARK    3  A    between atoms: C_8  and  O_9
REMARK    4  A    between atoms: C_13  and  C_14
REMARK    5  A    between atoms: C_13  and  C_17
REMARK    6  A    between atoms: C_18  and  C_19
REMARK    7  A    between atoms: C_19  and  C_20
REMARK    8  A    between atoms: C_21  and  C_22
REMARK    9  A    between atoms: C_21  and  C_23
REMARK   10  A    between atoms: O_30  and  C_31
REMARK   11  A    between atoms: C_31  and  C_32
REMARK                            x       y       z     vdW  Elec       q    Type
REMARK                         _______ _______ _______ _____ _____    ______ ____
ROOT
ATOM      1  O   LIG A   1      -8.820  -4.393 128.115  0.00  0.00    -0.288 OA
ATOM      2  C   LIG A   1      -8.195  -3.400 128.478  0.00  0.00    +0.214 C 
ATOM      3  C   LIG A   1      -7.314  -3.331 129.702  0.00  0.00    +0.292 C 
ATOM      4  C   LIG A   1      -7.770  -2.059 130.430  0.00  0.00    +0.252 C 
ATOM      5  O   LIG A   1      -7.605  -0.870 129.627  0.00  0.00    -0.479 OA
ATOM      6  C   LIG A   1      -7.918  -0.963 128.298  0.00  0.00    +0.143 A 
ATOM      7  C   LIG A   1      -8.253  -2.169 127.673  0.00  0.00    +0.105 A 
ATOM      8  C   LIG A   1      -8.558  -2.214 126.313  0.00  0.00    +0.142 A 
ATOM      9  C   LIG A   1      -8.465  -1.051 125.536  0.00  0.00    +0.059 A 
ATOM     10  C   LIG A   1      -8.102   0.158 126.151  0.00  0.00    +0.139 A 
ATOM     11  O   LIG A   1      -7.971   1.331 125.456  0.00  0.00    -0.481 OA
ATOM     12  C   LIG A   1      -8.102   1.340 124.021  0.00  0.00    +0.123 C 
ATOM     13  C   LIG A   1      -6.734   1.725 123.444  0.00  0.00    +0.060 C 
ATOM     14  C   LIG A   1      -8.555   0.044 123.401  0.00  0.00    +0.020 C 
ATOM     15  C   LIG A   1      -8.730  -1.077 124.103  0.00  0.00    +0.015 C 
ATOM     16  C   LIG A   1      -9.124   2.436 123.701  0.00  0.00    +0.060 C 
ATOM     17  C   LIG A   1      -7.858   0.222 127.541  0.00  0.00    +0.041 A 
ENDROOT
BRANCH   4  18
ATOM     18  C   LIG A   1      -7.007  -1.857 131.731  0.00  0.00    -0.003 A 
ATOM     19  C   LIG A   1      -7.232  -2.692 132.839  0.00  0.00    +0.007 A 
ATOM     20  C   LIG A   1      -6.523  -2.513 134.026  0.00  0.00    +0.000 A 
ATOM     21  C   LIG A   1      -5.586  -1.489 134.127  0.00  0.00    +0.000 A 
ATOM     22  C   LIG A   1      -5.367  -0.637 133.046  0.00  0.00    +0.000 A 
ATOM     23  C   LIG A   1      -6.074  -0.815 131.854  0.00  0.00    +0.007 A 
ENDBRANCH   4  18
BRANCH   8  24
ATOM     24  O   LIG A   1      -8.922  -3.391 125.699  0.00  0.00    -0.505 OA
ATOM     25  H   LIG A   1      -8.536  -3.410 124.795  0.00  0.00    +0.292 HD
ENDBRANCH   8  24
BRANCH  17  26
ATOM     26  C   LIG A   1      -7.501   1.543 128.202  0.00  0.00    +0.069 C 
BRANCH  26  27
ATOM     27  C   LIG A   1      -8.704   2.244 128.776  0.00  0.00    -0.023 C 
ATOM     28  C   LIG A   1      -8.964   2.540 130.065  0.00  0.00    -0.079 C 
ATOM     29  C   LIG A   1      -8.058   2.246 131.228  0.00  0.00    +0.038 C 
ATOM     30  C   LIG A   1     -10.253   3.222 130.446  0.00  0.00    +0.038 C 
ENDBRANCH  26  27
ENDBRANCH  17  26
BRANCH   3  31
ATOM     31  O   LIG A   1      -5.939  -3.207 129.301  0.00  0.00    -0.449 OA
BRANCH  31  32
ATOM     32  C   LIG A   1      -5.055  -4.010 129.948  0.00  0.00    +0.305 C 
ATOM     33  C   LIG A   1      -3.656  -3.555 129.666  0.00  0.00    +0.136 C 
ATOM     34  O   LIG A   1      -5.349  -4.959 130.656  0.00  0.00    -0.251 OA
ENDBRANCH  31  32
ENDBRANCH   3  31
TORSDOF 6
ENDMDL
MODEL 9
REMARK VINA RESULT:      -8.0      2.462      5.222
REMARK  Name = NuBBE_1332
REMARK  11 active torsions:
REMARK  status: ('A' for Active; 'I' for Inactive)
REMARK    1  A    between atoms: C_3  and  O_30
REMARK    2  A    between atoms: C_4  and  C_24
REMARK    3  A    between atoms: C_8  and  O_9
REMARK    4  A    between atoms: C_13  and  C_14
REMARK    5  A    between atoms: C_13  and  C_17
REMARK    6  A    between atoms: C_18  and  C_19
REMARK    7  A    between atoms: C_19  and  C_20
REMARK    8  A    between atoms: C_21  and  C_22
REMARK    9  A    between atoms: C_21  and  C_23
REMARK   10  A    between atoms: O_30  and  C_31
REMARK   11  A    between atoms: C_31  and  C_32
REMARK                            x       y       z     vdW  Elec       q    Type
REMARK                         _______ _______ _______ _____ _____    ______ ____
ROOT
ATOM      1  O   LIG A   1      -9.666   1.444 126.491  0.00  0.00    -0.288 OA
ATOM      2  C   LIG A   1      -8.550   0.944 126.602  0.00  0.00    +0.214 C 
ATOM      3  C   LIG A   1      -7.739   0.377 125.461  0.00  0.00    +0.292 C 
ATOM      4  C   LIG A   1      -7.294  -1.004 125.959  0.00  0.00    +0.252 C 
ATOM      5  O   LIG A   1      -6.490  -0.931 127.156  0.00  0.00    -0.479 OA
ATOM      6  C   LIG A   1      -6.869  -0.026 128.110  0.00  0.00    +0.143 A 
ATOM      7  C   LIG A   1      -7.898   0.901 127.920  0.00  0.00    +0.105 A 
ATOM      8  C   LIG A   1      -8.244   1.809 128.922  0.00  0.00    +0.142 A 
ATOM      9  C   LIG A   1      -7.511   1.845 130.116  0.00  0.00    +0.059 A 
ATOM     10  C   LIG A   1      -6.458   0.935 130.303  0.00  0.00    +0.139 A 
ATOM     11  O   LIG A   1      -5.684   0.921 131.433  0.00  0.00    -0.481 OA
ATOM     12  C   LIG A   1      -5.863   1.933 132.444  0.00  0.00    +0.123 C 
ATOM     13  C   LIG A   1      -4.574   2.764 132.486  0.00  0.00    +0.060 C 
ATOM     14  C   LIG A   1      -7.040   2.851 132.244  0.00  0.00    +0.020 C 
ATOM     15  C   LIG A   1      -7.817   2.814 131.160  0.00  0.00    +0.015 C 
ATOM     16  C   LIG A   1      -6.032   1.178 133.767  0.00  0.00    +0.060 C 
ATOM     17  C   LIG A   1      -6.148  -0.030 129.320  0.00  0.00    +0.041 A 
ENDROOT
BRANCH   4  18
ATOM     18  C   LIG A   1      -6.493  -1.748 124.900  0.00  0.00    -0.003 A 
ATOM     19  C   LIG A   1      -5.525  -2.701 125.261  0.00  0.00    +0.007 A 
ATOM     20  C   LIG A   1      -4.801  -3.390 124.289  0.00  0.00    +0.000 A 
ATOM     21  C   LIG A   1      -5.025  -3.128 122.941  0.00  0.00    +0.000 A 
ATOM     22  C   LIG A   1      -5.964  -2.168 122.565  0.00  0.00    +0.000 A 
ATOM     23  C   LIG A   1      -6.693  -1.478 123.537  0.00  0.00    +0.007 A 
ENDBRANCH   4  18
BRANCH   8  24
ATOM     24  O   LIG A   1      -9.277   2.702 128.754  0.00  0.00    -0.505 OA
ATOM     25  H   LIG A   1     -10.105   2.298 129.097  0.00  0.00    +0.292 HD
ENDBRANCH   8  24
BRANCH  17  26
ATOM     26  C   LIG A   1      -5.030  -1.034 129.549  0.00  0.00    +0.069 C 
BRANCH  26  27
ATOM     27  C   LIG A   1      -5.537  -2.352 130.073  0.00  0.00    -0.023 C 
ATOM     28  C   LIG A   1      -4.955  -3.565 129.989  0.00  0.00    -0.079 C 
ATOM     29  C   LIG A   1      -3.620  -3.851 129.360  0.00  0.00    +0.038 C 
ATOM     30  C   LIG A   1      -5.644  -4.781 130.552  0.00  0.00    +0.038 C 
ENDBRANCH  26  27
ENDBRANCH  17  26
BRANCH   3  31
ATOM     31  O   LIG A   1      -6.593   1.211 125.221  0.00  0.00    -0.449 OA
BRANCH  31  32
ATOM     32  C   LIG A   1      -6.742   2.168 124.268  0.00  0.00    +0.305 C 
ATOM     33  C   LIG A   1      -6.193   3.469 124.768  0.00  0.00    +0.136 C 
ATOM     34  O   LIG A   1      -7.244   2.000 123.169  0.00  0.00    -0.251 OA
ENDBRANCH  31  32
ENDBRANCH   3  31
TORSDOF 6
ENDMDL
