MODEL 1
REMARK VINA RESULT:      -9.7      0.000      0.000
REMARK  Name = NuBBE_1138
REMARK  6 active torsions:
REMARK  status: ('A' for Active; 'I' for Inactive)
REMARK    1  A    between atoms: C_1  and  C_2
REMARK    2  A    between atoms: C_2  and  C_20
REMARK    3  A    between atoms: C_13  and  C_15
REMARK    4  A    between atoms: C_16  and  C_17
REMARK    5  A    between atoms: C_16  and  C_18
REMARK    6  A    between atoms: C_21  and  C_22
REMARK                            x       y       z     vdW  Elec       q    Type
REMARK                         _______ _______ _______ _____ _____    ______ ____
ROOT
ATOM      1  C   LIG A   1      -5.572   3.885 132.708  0.00  0.00    +0.020 C 
ATOM      2  C   LIG A   1      -5.530   5.074 131.736  0.00  0.00    +0.012 C 
ATOM      3  C   LIG A   1      -4.601   4.812 130.562  0.00  0.00    -0.033 A 
ATOM      4  C   LIG A   1      -4.566   3.676 129.752  0.00  0.00    +0.014 A 
ATOM      5  C   LIG A   1      -3.638   3.645 128.690  0.00  0.00    -0.000 A 
ATOM      6  C   LIG A   1      -3.321   2.679 127.694  0.00  0.00    +0.027 A 
ATOM      7  C   LIG A   1      -2.325   3.203 126.901  0.00  0.00    +0.083 A 
ATOM      8  N   LIG A   1      -2.023   4.450 127.379  0.00  0.00    -0.361 N 
ATOM      9  H   LIG A   1      -1.326   5.070 126.991  0.00  0.00    +0.165 HD
ATOM     10  C   LIG A   1      -2.806   4.748 128.473  0.00  0.00    +0.047 A 
ATOM     11  C   LIG A   1      -2.840   5.902 129.268  0.00  0.00    +0.030 A 
ATOM     12  C   LIG A   1      -3.747   5.898 130.326  0.00  0.00    -0.035 A 
ATOM     13  C   LIG A   1      -4.013   7.020 131.305  0.00  0.00    +0.043 C 
ATOM     14  C   LIG A   1      -4.784   6.263 132.411  0.00  0.00    +0.027 C 
ENDROOT
BRANCH  13  15
ATOM     15  C   LIG A   1      -2.770   7.668 131.858  0.00  0.00    -0.020 C 
ATOM     16  C   LIG A   1      -1.743   7.071 132.496  0.00  0.00    -0.079 C 
ATOM     17  C   LIG A   1      -1.635   5.598 132.774  0.00  0.00    +0.038 C 
ATOM     18  C   LIG A   1      -0.560   7.878 132.967  0.00  0.00    +0.038 C 
ENDBRANCH  13  15
BRANCH   2  19
ATOM     19  C   LIG A   1      -6.900   5.519 131.244  0.00  0.00    -0.015 C 
ATOM     20  C   LIG A   1      -7.837   6.203 131.933  0.00  0.00    +0.005 C 
BRANCH  20  21
ATOM     21  C   LIG A   1      -9.144   6.584 131.372  0.00  0.00    -0.023 A 
ATOM     22  C   LIG A   1      -9.236   7.287 130.163  0.00  0.00    +0.034 A 
ATOM     23  C   LIG A   1     -10.507   7.628 129.685  0.00  0.00    +0.047 A 
ATOM     24  C   LIG A   1     -11.681   7.272 130.343  0.00  0.00    -0.000 A 
ATOM     25  C   LIG A   1     -12.760   7.789 129.574  0.00  0.00    +0.027 A 
ATOM     26  C   LIG A   1     -12.226   8.440 128.484  0.00  0.00    +0.083 A 
ATOM     27  N   LIG A   1     -10.864   8.332 128.559  0.00  0.00    -0.361 N 
ATOM     28  H   LIG A   1     -10.207   8.717 127.896  0.00  0.00    +0.165 HD
ATOM     29  C   LIG A   1     -11.585   6.534 131.538  0.00  0.00    +0.010 A 
ATOM     30  C   LIG A   1     -10.316   6.194 132.036  0.00  0.00    +0.008 A 
ENDBRANCH  20  21
ENDBRANCH   2  19
TORSDOF 3
ENDMDL
MODEL 2
REMARK VINA RESULT:      -9.3      4.500      7.387
REMARK  Name = NuBBE_1138
REMARK  6 active torsions:
REMARK  status: ('A' for Active; 'I' for Inactive)
REMARK    1  A    between atoms: C_1  and  C_2
REMARK    2  A    between atoms: C_2  and  C_20
REMARK    3  A    between atoms: C_13  and  C_15
REMARK    4  A    between atoms: C_16  and  C_17
REMARK    5  A    between atoms: C_16  and  C_18
REMARK    6  A    between atoms: C_21  and  C_22
REMARK                            x       y       z     vdW  Elec       q    Type
REMARK                         _______ _______ _______ _____ _____    ______ ____
ROOT
ATOM      1  C   LIG A   1      -8.821   3.760 133.767  0.00  0.00    +0.020 C 
ATOM      2  C   LIG A   1      -8.314   5.185 133.495  0.00  0.00    +0.012 C 
ATOM      3  C   LIG A   1      -9.120   5.873 132.405  0.00  0.00    -0.033 A 
ATOM      4  C   LIG A   1     -10.510   5.954 132.308  0.00  0.00    +0.014 A 
ATOM      5  C   LIG A   1     -11.060   6.667 131.223  0.00  0.00    -0.000 A 
ATOM      6  C   LIG A   1     -12.393   6.944 130.806  0.00  0.00    +0.027 A 
ATOM      7  C   LIG A   1     -12.327   7.710 129.665  0.00  0.00    +0.083 A 
ATOM      8  N   LIG A   1     -11.005   7.908 129.370  0.00  0.00    -0.361 N 
ATOM      9  H   LIG A   1     -10.656   8.437 128.582  0.00  0.00    +0.165 HD
ATOM     10  C   LIG A   1     -10.206   7.281 130.301  0.00  0.00    +0.047 A 
ATOM     11  C   LIG A   1      -8.808   7.223 130.394  0.00  0.00    +0.030 A 
ATOM     12  C   LIG A   1      -8.289   6.490 131.460  0.00  0.00    -0.035 A 
ATOM     13  C   LIG A   1      -6.831   6.300 131.814  0.00  0.00    +0.043 C 
ATOM     14  C   LIG A   1      -6.924   5.112 132.799  0.00  0.00    +0.027 C 
ENDROOT
BRANCH  13  15
ATOM     15  C   LIG A   1      -5.948   5.962 130.640  0.00  0.00    -0.020 C 
ATOM     16  C   LIG A   1      -4.758   6.510 130.320  0.00  0.00    -0.079 C 
ATOM     17  C   LIG A   1      -4.062   7.588 131.103  0.00  0.00    +0.038 C 
ATOM     18  C   LIG A   1      -3.995   6.032 129.110  0.00  0.00    +0.038 C 
ENDBRANCH  13  15
BRANCH   2  19
ATOM     19  C   LIG A   1      -8.240   6.063 134.737  0.00  0.00    -0.015 C 
ATOM     20  C   LIG A   1      -7.695   5.749 135.931  0.00  0.00    +0.005 C 
BRANCH  20  21
ATOM     21  C   LIG A   1      -7.677   6.665 137.084  0.00  0.00    -0.023 A 
ATOM     22  C   LIG A   1      -8.605   7.711 137.192  0.00  0.00    +0.034 A 
ATOM     23  C   LIG A   1      -8.532   8.554 138.307  0.00  0.00    +0.047 A 
ATOM     24  C   LIG A   1      -7.599   8.379 139.326  0.00  0.00    -0.000 A 
ATOM     25  C   LIG A   1      -7.823   9.415 140.275  0.00  0.00    +0.027 A 
ATOM     26  C   LIG A   1      -8.868  10.186 139.817  0.00  0.00    +0.083 A 
ATOM     27  N   LIG A   1      -9.292   9.654 138.630  0.00  0.00    -0.361 N 
ATOM     28  H   LIG A   1     -10.045  10.013 138.060  0.00  0.00    +0.165 HD
ATOM     29  C   LIG A   1      -6.694   7.305 139.232  0.00  0.00    +0.010 A 
ATOM     30  C   LIG A   1      -6.747   6.457 138.113  0.00  0.00    +0.008 A 
ENDBRANCH  20  21
ENDBRANCH   2  19
TORSDOF 3
ENDMDL
MODEL 3
REMARK VINA RESULT:      -9.3      2.920      4.455
REMARK  Name = NuBBE_1138
REMARK  6 active torsions:
REMARK  status: ('A' for Active; 'I' for Inactive)
REMARK    1  A    between atoms: C_1  and  C_2
REMARK    2  A    between atoms: C_2  and  C_20
REMARK    3  A    between atoms: C_13  and  C_15
REMARK    4  A    between atoms: C_16  and  C_17
REMARK    5  A    between atoms: C_16  and  C_18
REMARK    6  A    between atoms: C_21  and  C_22
REMARK                            x       y       z     vdW  Elec       q    Type
REMARK                         _______ _______ _______ _____ _____    ______ ____
ROOT
ATOM      1  C   LIG A   1      -8.136   2.611 133.292  0.00  0.00    +0.020 C 
ATOM      2  C   LIG A   1      -7.961   4.135 133.386  0.00  0.00    +0.012 C 
ATOM      3  C   LIG A   1      -6.499   4.542 133.300  0.00  0.00    -0.033 A 
ATOM      4  C   LIG A   1      -5.561   4.123 132.354  0.00  0.00    +0.014 A 
ATOM      5  C   LIG A   1      -4.254   4.646 132.438  0.00  0.00    -0.000 A 
ATOM      6  C   LIG A   1      -3.068   4.447 131.676  0.00  0.00    +0.027 A 
ATOM      7  C   LIG A   1      -2.082   5.242 132.215  0.00  0.00    +0.083 A 
ATOM      8  N   LIG A   1      -2.623   5.915 133.278  0.00  0.00    -0.361 N 
ATOM      9  H   LIG A   1      -2.128   6.573 133.863  0.00  0.00    +0.165 HD
ATOM     10  C   LIG A   1      -3.948   5.571 133.441  0.00  0.00    +0.047 A 
ATOM     11  C   LIG A   1      -4.882   6.013 134.388  0.00  0.00    +0.030 A 
ATOM     12  C   LIG A   1      -6.159   5.462 134.301  0.00  0.00    -0.035 A 
ATOM     13  C   LIG A   1      -7.356   5.790 135.164  0.00  0.00    +0.043 C 
ATOM     14  C   LIG A   1      -8.287   4.600 134.836  0.00  0.00    +0.027 C 
ENDROOT
BRANCH  13  15
ATOM     15  C   LIG A   1      -7.057   5.852 136.640  0.00  0.00    -0.020 C 
ATOM     16  C   LIG A   1      -7.630   6.649 137.565  0.00  0.00    -0.079 C 
ATOM     17  C   LIG A   1      -8.716   7.651 137.291  0.00  0.00    +0.038 C 
ATOM     18  C   LIG A   1      -7.219   6.561 139.013  0.00  0.00    +0.038 C 
ENDBRANCH  13  15
BRANCH   2  19
ATOM     19  C   LIG A   1      -8.792   4.916 132.378  0.00  0.00    -0.015 C 
ATOM     20  C   LIG A   1      -9.874   5.684 132.627  0.00  0.00    +0.005 C 
BRANCH  20  21
ATOM     21  C   LIG A   1     -10.623   6.400 131.580  0.00  0.00    -0.023 A 
ATOM     22  C   LIG A   1     -10.070   6.608 130.309  0.00  0.00    +0.034 A 
ATOM     23  C   LIG A   1     -10.827   7.302 129.358  0.00  0.00    +0.047 A 
ATOM     24  C   LIG A   1     -12.115   7.767 129.613  0.00  0.00    -0.000 A 
ATOM     25  C   LIG A   1     -12.561   8.419 128.430  0.00  0.00    +0.027 A 
ATOM     26  C   LIG A   1     -11.549   8.341 127.499  0.00  0.00    +0.083 A 
ATOM     27  N   LIG A   1     -10.509   7.659 128.069  0.00  0.00    -0.361 N 
ATOM     28  H   LIG A   1      -9.627   7.452 127.622  0.00  0.00    +0.165 HD
ATOM     29  C   LIG A   1     -12.680   7.523 130.879  0.00  0.00    +0.010 A 
ATOM     30  C   LIG A   1     -11.928   6.837 131.847  0.00  0.00    +0.008 A 
ENDBRANCH  20  21
ENDBRANCH   2  19
TORSDOF 3
ENDMDL
MODEL 4
REMARK VINA RESULT:      -8.8      1.937      2.584
REMARK  Name = NuBBE_1138
REMARK  6 active torsions:
REMARK  status: ('A' for Active; 'I' for Inactive)
REMARK    1  A    between atoms: C_1  and  C_2
REMARK    2  A    between atoms: C_2  and  C_20
REMARK    3  A    between atoms: C_13  and  C_15
REMARK    4  A    between atoms: C_16  and  C_17
REMARK    5  A    between atoms: C_16  and  C_18
REMARK    6  A    between atoms: C_21  and  C_22
REMARK                            x       y       z     vdW  Elec       q    Type
REMARK                         _______ _______ _______ _____ _____    ______ ____
ROOT
ATOM      1  C   LIG A   1      -7.026   3.653 134.334  0.00  0.00    +0.020 C 
ATOM      2  C   LIG A   1      -6.664   4.187 132.940  0.00  0.00    +0.012 C 
ATOM      3  C   LIG A   1      -5.966   3.133 132.094  0.00  0.00    -0.033 A 
ATOM      4  C   LIG A   1      -6.372   1.814 131.887  0.00  0.00    +0.014 A 
ATOM      5  C   LIG A   1      -5.590   1.004 131.038  0.00  0.00    -0.000 A 
ATOM      6  C   LIG A   1      -5.688  -0.351 130.613  0.00  0.00    +0.027 A 
ATOM      7  C   LIG A   1      -4.637  -0.603 129.761  0.00  0.00    +0.083 A 
ATOM      8  N   LIG A   1      -3.902   0.548 129.653  0.00  0.00    -0.361 N 
ATOM      9  H   LIG A   1      -3.070   0.657 129.090  0.00  0.00    +0.165 HD
ATOM     10  C   LIG A   1      -4.458   1.547 130.423  0.00  0.00    +0.047 A 
ATOM     11  C   LIG A   1      -4.046   2.874 130.609  0.00  0.00    +0.030 A 
ATOM     12  C   LIG A   1      -4.820   3.646 131.473  0.00  0.00    -0.035 A 
ATOM     13  C   LIG A   1      -4.624   5.106 131.817  0.00  0.00    +0.043 C 
ATOM     14  C   LIG A   1      -5.516   5.231 133.072  0.00  0.00    +0.027 C 
ENDROOT
BRANCH  13  15
ATOM     15  C   LIG A   1      -3.198   5.483 132.127  0.00  0.00    -0.020 C 
ATOM     16  C   LIG A   1      -2.298   6.055 131.301  0.00  0.00    -0.079 C 
ATOM     17  C   LIG A   1      -2.558   6.446 129.873  0.00  0.00    +0.038 C 
ATOM     18  C   LIG A   1      -0.910   6.385 131.790  0.00  0.00    +0.038 C 
ENDBRANCH  13  15
BRANCH   2  19
ATOM     19  C   LIG A   1      -7.841   4.785 132.182  0.00  0.00    -0.015 C 
ATOM     20  C   LIG A   1      -8.334   6.037 132.289  0.00  0.00    +0.005 C 
BRANCH  20  21
ATOM     21  C   LIG A   1      -9.489   6.526 131.516  0.00  0.00    -0.023 A 
ATOM     22  C   LIG A   1      -9.315   7.158 130.276  0.00  0.00    +0.034 A 
ATOM     23  C   LIG A   1     -10.450   7.608 129.593  0.00  0.00    +0.047 A 
ATOM     24  C   LIG A   1     -11.743   7.428 130.077  0.00  0.00    -0.000 A 
ATOM     25  C   LIG A   1     -12.626   8.013 129.127  0.00  0.00    +0.027 A 
ATOM     26  C   LIG A   1     -11.862   8.530 128.105  0.00  0.00    +0.083 A 
ATOM     27  N   LIG A   1     -10.549   8.275 128.394  0.00  0.00    -0.361 N 
ATOM     28  H   LIG A   1      -9.759   8.542 127.824  0.00  0.00    +0.165 HD
ATOM     29  C   LIG A   1     -11.915   6.760 131.304  0.00  0.00    +0.010 A 
ATOM     30  C   LIG A   1     -10.784   6.312 132.008  0.00  0.00    +0.008 A 
ENDBRANCH  20  21
ENDBRANCH   2  19
TORSDOF 3
ENDMDL
MODEL 5
REMARK VINA RESULT:      -8.7      4.951      7.497
REMARK  Name = NuBBE_1138
REMARK  6 active torsions:
REMARK  status: ('A' for Active; 'I' for Inactive)
REMARK    1  A    between atoms: C_1  and  C_2
REMARK    2  A    between atoms: C_2  and  C_20
REMARK    3  A    between atoms: C_13  and  C_15
REMARK    4  A    between atoms: C_16  and  C_17
REMARK    5  A    between atoms: C_16  and  C_18
REMARK    6  A    between atoms: C_21  and  C_22
REMARK                            x       y       z     vdW  Elec       q    Type
REMARK                         _______ _______ _______ _____ _____    ______ ____
ROOT
ATOM      1  C   LIG A   1      -3.895   2.913 126.430  0.00  0.00    +0.020 C 
ATOM      2  C   LIG A   1      -5.354   2.996 125.957  0.00  0.00    +0.012 C 
ATOM      3  C   LIG A   1      -5.838   1.674 125.383  0.00  0.00    -0.033 A 
ATOM      4  C   LIG A   1      -5.711   0.408 125.957  0.00  0.00    +0.014 A 
ATOM      5  C   LIG A   1      -6.257  -0.693 125.267  0.00  0.00    -0.000 A 
ATOM      6  C   LIG A   1      -6.309  -2.090 125.533  0.00  0.00    +0.027 A 
ATOM      7  C   LIG A   1      -6.991  -2.692 124.501  0.00  0.00    +0.083 A 
ATOM      8  N   LIG A   1      -7.355  -1.714 123.614  0.00  0.00    -0.361 N 
ATOM      9  H   LIG A   1      -7.870  -1.866 122.759  0.00  0.00    +0.165 HD
ATOM     10  C   LIG A   1      -6.920  -0.482 124.053  0.00  0.00    +0.047 A 
ATOM     11  C   LIG A   1      -7.070   0.784 123.471  0.00  0.00    +0.030 A 
ATOM     12  C   LIG A   1      -6.498   1.853 124.159  0.00  0.00    -0.035 A 
ATOM     13  C   LIG A   1      -6.546   3.315 123.778  0.00  0.00    +0.043 C 
ATOM     14  C   LIG A   1      -5.432   3.889 124.683  0.00  0.00    +0.027 C 
ENDROOT
BRANCH  13  15
ATOM     15  C   LIG A   1      -6.255   3.587 122.324  0.00  0.00    -0.020 C 
ATOM     16  C   LIG A   1      -7.134   3.645 121.304  0.00  0.00    -0.079 C 
ATOM     17  C   LIG A   1      -8.620   3.456 121.430  0.00  0.00    +0.038 C 
ATOM     18  C   LIG A   1      -6.665   3.951 119.904  0.00  0.00    +0.038 C 
ENDBRANCH  13  15
BRANCH   2  19
ATOM     19  C   LIG A   1      -6.321   3.502 127.018  0.00  0.00    -0.015 C 
ATOM     20  C   LIG A   1      -7.256   2.791 127.682  0.00  0.00    +0.005 C 
BRANCH  20  21
ATOM     21  C   LIG A   1      -8.156   3.372 128.692  0.00  0.00    -0.023 A 
ATOM     22  C   LIG A   1      -8.268   4.761 128.849  0.00  0.00    +0.034 A 
ATOM     23  C   LIG A   1      -9.134   5.253 129.832  0.00  0.00    +0.047 A 
ATOM     24  C   LIG A   1      -9.910   4.424 130.638  0.00  0.00    -0.000 A 
ATOM     25  C   LIG A   1     -10.650   5.269 131.510  0.00  0.00    +0.027 A 
ATOM     26  C   LIG A   1     -10.311   6.572 131.221  0.00  0.00    +0.083 A 
ATOM     27  N   LIG A   1      -9.399   6.551 130.203  0.00  0.00    -0.361 N 
ATOM     28  H   LIG A   1      -8.967   7.362 129.782  0.00  0.00    +0.165 HD
ATOM     29  C   LIG A   1      -9.822   3.031 130.452  0.00  0.00    +0.010 A 
ATOM     30  C   LIG A   1      -8.948   2.522 129.477  0.00  0.00    +0.008 A 
ENDBRANCH  20  21
ENDBRANCH   2  19
TORSDOF 3
ENDMDL
MODEL 6
REMARK VINA RESULT:      -8.5      5.124      7.713
REMARK  Name = NuBBE_1138
REMARK  6 active torsions:
REMARK  status: ('A' for Active; 'I' for Inactive)
REMARK    1  A    between atoms: C_1  and  C_2
REMARK    2  A    between atoms: C_2  and  C_20
REMARK    3  A    between atoms: C_13  and  C_15
REMARK    4  A    between atoms: C_16  and  C_17
REMARK    5  A    between atoms: C_16  and  C_18
REMARK    6  A    between atoms: C_21  and  C_22
REMARK                            x       y       z     vdW  Elec       q    Type
REMARK                         _______ _______ _______ _____ _____    ______ ____
ROOT
ATOM      1  C   LIG A   1      -4.251  -0.373 130.593  0.00  0.00    +0.020 C 
ATOM      2  C   LIG A   1      -5.412   0.404 129.954  0.00  0.00    +0.012 C 
ATOM      3  C   LIG A   1      -5.000   1.814 129.561  0.00  0.00    -0.033 A 
ATOM      4  C   LIG A   1      -3.866   2.191 128.840  0.00  0.00    +0.014 A 
ATOM      5  C   LIG A   1      -3.684   3.560 128.556  0.00  0.00    -0.000 A 
ATOM      6  C   LIG A   1      -2.673   4.294 127.873  0.00  0.00    +0.027 A 
ATOM      7  C   LIG A   1      -3.030   5.623 127.893  0.00  0.00    +0.083 A 
ATOM      8  N   LIG A   1      -4.220   5.726 128.565  0.00  0.00    -0.361 N 
ATOM      9  H   LIG A   1      -4.721   6.587 128.732  0.00  0.00    +0.165 HD
ATOM     10  C   LIG A   1      -4.643   4.484 128.984  0.00  0.00    +0.047 A 
ATOM     11  C   LIG A   1      -5.795   4.119 129.695  0.00  0.00    +0.030 A 
ATOM     12  C   LIG A   1      -5.939   2.763 129.986  0.00  0.00    -0.035 A 
ATOM     13  C   LIG A   1      -7.096   2.100 130.700  0.00  0.00    +0.043 C 
ATOM     14  C   LIG A   1      -6.476   0.727 131.044  0.00  0.00    +0.027 C 
ENDROOT
BRANCH  13  15
ATOM     15  C   LIG A   1      -7.548   2.817 131.946  0.00  0.00    -0.020 C 
ATOM     16  C   LIG A   1      -8.761   2.764 132.533  0.00  0.00    -0.079 C 
ATOM     17  C   LIG A   1      -9.924   1.946 132.047  0.00  0.00    +0.038 C 
ATOM     18  C   LIG A   1      -9.034   3.537 133.799  0.00  0.00    +0.038 C 
ENDBRANCH  13  15
BRANCH   2  19
ATOM     19  C   LIG A   1      -6.059  -0.310 128.775  0.00  0.00    -0.015 C 
ATOM     20  C   LIG A   1      -7.266  -0.912 128.744  0.00  0.00    +0.005 C 
BRANCH  20  21
ATOM     21  C   LIG A   1      -7.808  -1.589 127.553  0.00  0.00    -0.023 A 
ATOM     22  C   LIG A   1      -7.831  -0.950 126.305  0.00  0.00    +0.034 A 
ATOM     23  C   LIG A   1      -8.367  -1.642 125.212  0.00  0.00    +0.047 A 
ATOM     24  C   LIG A   1      -8.847  -2.945 125.307  0.00  0.00    -0.000 A 
ATOM     25  C   LIG A   1      -9.310  -3.310 124.012  0.00  0.00    +0.027 A 
ATOM     26  C   LIG A   1      -9.107  -2.237 123.174  0.00  0.00    +0.083 A 
ATOM     27  N   LIG A   1      -8.531  -1.236 123.909  0.00  0.00    -0.361 N 
ATOM     28  H   LIG A   1      -8.270  -0.325 123.559  0.00  0.00    +0.165 HD
ATOM     29  C   LIG A   1      -8.788  -3.596 126.554  0.00  0.00    +0.010 A 
ATOM     30  C   LIG A   1      -8.264  -2.910 127.662  0.00  0.00    +0.008 A 
ENDBRANCH  20  21
ENDBRANCH   2  19
TORSDOF 3
ENDMDL
MODEL 7
REMARK VINA RESULT:      -8.3      5.263      6.896
REMARK  Name = NuBBE_1138
REMARK  6 active torsions:
REMARK  status: ('A' for Active; 'I' for Inactive)
REMARK    1  A    between atoms: C_1  and  C_2
REMARK    2  A    between atoms: C_2  and  C_20
REMARK    3  A    between atoms: C_13  and  C_15
REMARK    4  A    between atoms: C_16  and  C_17
REMARK    5  A    between atoms: C_16  and  C_18
REMARK    6  A    between atoms: C_21  and  C_22
REMARK                            x       y       z     vdW  Elec       q    Type
REMARK                         _______ _______ _______ _____ _____    ______ ____
ROOT
ATOM      1  C   LIG A   1      -5.240   4.000 136.591  0.00  0.00    +0.020 C 
ATOM      2  C   LIG A   1      -5.649   5.166 135.678  0.00  0.00    +0.012 C 
ATOM      3  C   LIG A   1      -6.508   4.700 134.514  0.00  0.00    -0.033 A 
ATOM      4  C   LIG A   1      -7.629   3.872 134.573  0.00  0.00    +0.014 A 
ATOM      5  C   LIG A   1      -8.304   3.580 133.369  0.00  0.00    -0.000 A 
ATOM      6  C   LIG A   1      -9.444   2.790 133.051  0.00  0.00    +0.027 A 
ATOM      7  C   LIG A   1      -9.658   2.884 131.695  0.00  0.00    +0.083 A 
ATOM      8  N   LIG A   1      -8.689   3.700 131.175  0.00  0.00    -0.361 N 
ATOM      9  H   LIG A   1      -8.599   3.950 130.200  0.00  0.00    +0.165 HD
ATOM     10  C   LIG A   1      -7.845   4.139 132.172  0.00  0.00    +0.047 A 
ATOM     11  C   LIG A   1      -6.730   4.986 132.099  0.00  0.00    +0.030 A 
ATOM     12  C   LIG A   1      -6.065   5.237 133.298  0.00  0.00    -0.035 A 
ATOM     13  C   LIG A   1      -4.868   6.137 133.507  0.00  0.00    +0.043 C 
ATOM     14  C   LIG A   1      -4.397   5.675 134.904  0.00  0.00    +0.027 C 
ENDROOT
BRANCH  13  15
ATOM     15  C   LIG A   1      -3.775   5.963 132.483  0.00  0.00    -0.020 C 
ATOM     16  C   LIG A   1      -3.647   6.595 131.299  0.00  0.00    -0.079 C 
ATOM     17  C   LIG A   1      -4.593   7.634 130.764  0.00  0.00    +0.038 C 
ATOM     18  C   LIG A   1      -2.469   6.310 130.402  0.00  0.00    +0.038 C 
ENDBRANCH  13  15
BRANCH   2  19
ATOM     19  C   LIG A   1      -6.323   6.318 136.411  0.00  0.00    -0.015 C 
ATOM     20  C   LIG A   1      -7.601   6.380 136.840  0.00  0.00    +0.005 C 
BRANCH  20  21
ATOM     21  C   LIG A   1      -8.170   7.546 137.537  0.00  0.00    -0.023 A 
ATOM     22  C   LIG A   1      -7.556   8.077 138.680  0.00  0.00    +0.034 A 
ATOM     23  C   LIG A   1      -8.148   9.181 139.304  0.00  0.00    +0.047 A 
ATOM     24  C   LIG A   1      -9.303   9.791 138.819  0.00  0.00    -0.000 A 
ATOM     25  C   LIG A   1      -9.607  10.863 139.703  0.00  0.00    +0.027 A 
ATOM     26  C   LIG A   1      -8.648  10.878 140.692  0.00  0.00    +0.083 A 
ATOM     27  N   LIG A   1      -7.769   9.861 140.437  0.00  0.00    -0.361 N 
ATOM     28  H   LIG A   1      -6.962   9.627 140.998  0.00  0.00    +0.165 HD
ATOM     29  C   LIG A   1      -9.895   9.278 137.650  0.00  0.00    +0.010 A 
ATOM     30  C   LIG A   1      -9.318   8.163 137.019  0.00  0.00    +0.008 A 
ENDBRANCH  20  21
ENDBRANCH   2  19
TORSDOF 3
ENDMDL
MODEL 8
REMARK VINA RESULT:      -8.2      4.091      7.753
REMARK  Name = NuBBE_1138
REMARK  6 active torsions:
REMARK  status: ('A' for Active; 'I' for Inactive)
REMARK    1  A    between atoms: C_1  and  C_2
REMARK    2  A    between atoms: C_2  and  C_20
REMARK    3  A    between atoms: C_13  and  C_15
REMARK    4  A    between atoms: C_16  and  C_17
REMARK    5  A    between atoms: C_16  and  C_18
REMARK    6  A    between atoms: C_21  and  C_22
REMARK                            x       y       z     vdW  Elec       q    Type
REMARK                         _______ _______ _______ _____ _____    ______ ____
ROOT
ATOM      1  C   LIG A   1      -7.050   4.307 135.181  0.00  0.00    +0.020 C 
ATOM      2  C   LIG A   1      -7.470   4.130 133.713  0.00  0.00    +0.012 C 
ATOM      3  C   LIG A   1      -6.826   5.171 132.812  0.00  0.00    -0.033 A 
ATOM      4  C   LIG A   1      -5.478   5.529 132.766  0.00  0.00    +0.014 A 
ATOM      5  C   LIG A   1      -5.081   6.507 131.831  0.00  0.00    -0.000 A 
ATOM      6  C   LIG A   1      -3.832   7.111 131.514  0.00  0.00    +0.027 A 
ATOM      7  C   LIG A   1      -4.044   8.005 130.489  0.00  0.00    +0.083 A 
ATOM      8  N   LIG A   1      -5.376   7.969 130.171  0.00  0.00    -0.361 N 
ATOM      9  H   LIG A   1      -5.818   8.523 129.451  0.00  0.00    +0.165 HD
ATOM     10  C   LIG A   1      -6.036   7.065 130.975  0.00  0.00    +0.047 A 
ATOM     11  C   LIG A   1      -7.391   6.705 130.997  0.00  0.00    +0.030 A 
ATOM     12  C   LIG A   1      -7.763   5.756 131.949  0.00  0.00    -0.035 A 
ATOM     13  C   LIG A   1      -9.138   5.166 132.161  0.00  0.00    +0.043 C 
ATOM     14  C   LIG A   1      -8.968   4.525 133.557  0.00  0.00    +0.027 C 
ENDROOT
BRANCH  13  15
ATOM     15  C   LIG A   1     -10.254   6.179 132.163  0.00  0.00    -0.020 C 
ATOM     16  C   LIG A   1     -11.307   6.248 131.324  0.00  0.00    -0.079 C 
ATOM     17  C   LIG A   1     -11.582   5.291 130.198  0.00  0.00    +0.038 C 
ATOM     18  C   LIG A   1     -12.348   7.327 131.487  0.00  0.00    +0.038 C 
ENDBRANCH  13  15
BRANCH   2  19
ATOM     19  C   LIG A   1      -7.230   2.730 133.166  0.00  0.00    -0.015 C 
ATOM     20  C   LIG A   1      -8.158   1.838 132.761  0.00  0.00    +0.005 C 
BRANCH  20  21
ATOM     21  C   LIG A   1      -7.830   0.496 132.251  0.00  0.00    -0.023 A 
ATOM     22  C   LIG A   1      -7.052  -0.395 133.004  0.00  0.00    +0.034 A 
ATOM     23  C   LIG A   1      -6.766  -1.653 132.463  0.00  0.00    +0.047 A 
ATOM     24  C   LIG A   1      -7.247  -2.068 131.223  0.00  0.00    -0.000 A 
ATOM     25  C   LIG A   1      -6.753  -3.384 131.007  0.00  0.00    +0.027 A 
ATOM     26  C   LIG A   1      -5.993  -3.733 132.101  0.00  0.00    +0.083 A 
ATOM     27  N   LIG A   1      -6.012  -2.682 132.976  0.00  0.00    -0.361 N 
ATOM     28  H   LIG A   1      -5.537  -2.650 133.868  0.00  0.00    +0.165 HD
ATOM     29  C   LIG A   1      -8.058  -1.185 130.487  0.00  0.00    +0.010 A 
ATOM     30  C   LIG A   1      -8.344   0.087 131.012  0.00  0.00    +0.008 A 
ENDBRANCH  20  21
ENDBRANCH   2  19
TORSDOF 3
ENDMDL
MODEL 9
REMARK VINA RESULT:      -8.2      5.641      7.416
REMARK  Name = NuBBE_1138
REMARK  6 active torsions:
REMARK  status: ('A' for Active; 'I' for Inactive)
REMARK    1  A    between atoms: C_1  and  C_2
REMARK    2  A    between atoms: C_2  and  C_20
REMARK    3  A    between atoms: C_13  and  C_15
REMARK    4  A    between atoms: C_16  and  C_17
REMARK    5  A    between atoms: C_16  and  C_18
REMARK    6  A    between atoms: C_21  and  C_22
REMARK                            x       y       z     vdW  Elec       q    Type
REMARK                         _______ _______ _______ _____ _____    ______ ____
ROOT
ATOM      1  C   LIG A   1      -1.226  10.156 136.931  0.00  0.00    +0.020 C 
ATOM      2  C   LIG A   1      -2.313  10.397 135.871  0.00  0.00    +0.012 C 
ATOM      3  C   LIG A   1      -2.280   9.341 134.778  0.00  0.00    -0.033 A 
ATOM      4  C   LIG A   1      -2.232   7.957 134.945  0.00  0.00    +0.014 A 
ATOM      5  C   LIG A   1      -2.236   7.147 133.790  0.00  0.00    -0.000 A 
ATOM      6  C   LIG A   1      -2.188   5.741 133.578  0.00  0.00    +0.027 A 
ATOM      7  C   LIG A   1      -2.235   5.517 132.221  0.00  0.00    +0.083 A 
ATOM      8  N   LIG A   1      -2.307   6.735 131.599  0.00  0.00    -0.361 N 
ATOM      9  H   LIG A   1      -2.355   6.877 130.599  0.00  0.00    +0.165 HD
ATOM     10  C   LIG A   1      -2.308   7.750 132.530  0.00  0.00    +0.047 A 
ATOM     11  C   LIG A   1      -2.373   9.139 132.346  0.00  0.00    +0.030 A 
ATOM     12  C   LIG A   1      -2.340   9.917 133.502  0.00  0.00    -0.035 A 
ATOM     13  C   LIG A   1      -2.435  11.424 133.591  0.00  0.00    +0.043 C 
ATOM     14  C   LIG A   1      -1.946  11.661 135.038  0.00  0.00    +0.027 C 
ENDROOT
BRANCH  13  15
ATOM     15  C   LIG A   1      -1.569  12.159 132.601  0.00  0.00    -0.020 C 
ATOM     16  C   LIG A   1      -0.235  12.051 132.432  0.00  0.00    -0.079 C 
ATOM     17  C   LIG A   1       0.666  11.141 133.218  0.00  0.00    +0.038 C 
ATOM     18  C   LIG A   1       0.470  12.855 131.369  0.00  0.00    +0.038 C 
ENDBRANCH  13  15
BRANCH   2  19
ATOM     19  C   LIG A   1      -3.717  10.528 136.445  0.00  0.00    -0.015 C 
ATOM     20  C   LIG A   1      -4.274   9.790 137.428  0.00  0.00    +0.005 C 
BRANCH  20  21
ATOM     21  C   LIG A   1      -5.650   9.986 137.913  0.00  0.00    -0.023 A 
ATOM     22  C   LIG A   1      -6.685   9.123 137.524  0.00  0.00    +0.034 A 
ATOM     23  C   LIG A   1      -7.974   9.365 138.011  0.00  0.00    +0.047 A 
ATOM     24  C   LIG A   1      -8.266  10.408 138.888  0.00  0.00    -0.000 A 
ATOM     25  C   LIG A   1      -9.661  10.344 139.157  0.00  0.00    +0.027 A 
ATOM     26  C   LIG A   1     -10.179   9.284 138.447  0.00  0.00    +0.083 A 
ATOM     27  N   LIG A   1      -9.150   8.697 137.763  0.00  0.00    -0.361 N 
ATOM     28  H   LIG A   1      -9.231   7.896 137.153  0.00  0.00    +0.165 HD
ATOM     29  C   LIG A   1      -7.217  11.249 139.305  0.00  0.00    +0.010 A 
ATOM     30  C   LIG A   1      -5.919  11.025 138.815  0.00  0.00    +0.008 A 
ENDBRANCH  20  21
ENDBRANCH   2  19
TORSDOF 3
ENDMDL
