MODEL 1
REMARK VINA RESULT:      -7.5      0.000      0.000
REMARK  Name = NuBBE_1576
REMARK  7 active torsions:
REMARK  status: ('A' for Active; 'I' for Inactive)
REMARK    1  A    between atoms: C_1  and  C_2
REMARK    2  A    between atoms: C_7  and  C_9
REMARK    3  A    between atoms: C_9  and  O_11
REMARK    4  A    between atoms: C_18  and  O_31
REMARK    5  A    between atoms: C_20  and  O_30
REMARK    6  A    between atoms: C_24  and  C_25
REMARK    7  A    between atoms: C_24  and  C_26
REMARK                            x       y       z     vdW  Elec       q    Type
REMARK                         _______ _______ _______ _____ _____    ______ ____
ROOT
ATOM      1  C   LIG A   1      -5.997  -2.924 124.807  0.00  0.00    +0.012 C 
ATOM      2  C   LIG A   1      -7.082  -2.405 125.803  0.00  0.00    -0.023 C 
ATOM      3  C   LIG A   1      -7.552  -0.974 125.393  0.00  0.00    +0.009 C 
ATOM      4  C   LIG A   1      -6.371   0.072 125.349  0.00  0.00    +0.042 C 
ATOM      5  C   LIG A   1      -6.927   1.541 125.335  0.00  0.00    +0.137 C 
ATOM      6  C   LIG A   1      -7.938   1.648 124.228  0.00  0.00    +0.008 A 
ATOM      7  C   LIG A   1      -8.576   0.542 123.715  0.00  0.00    +0.109 A 
ATOM      8  C   LIG A   1      -8.384  -0.888 124.072  0.00  0.00    +0.079 C 
ATOM      9  O   LIG A   1      -9.454   0.886 122.746  0.00  0.00    -0.468 OA
ATOM     10  C   LIG A   1      -9.363   2.238 122.617  0.00  0.00    +0.195 A 
ATOM     11  C   LIG A   1      -8.441   2.755 123.502  0.00  0.00    +0.045 A 
ATOM     12  C   LIG A   1      -5.231  -0.226 126.340  0.00  0.00    +0.148 C 
ATOM     13  C   LIG A   1      -5.630  -1.069 127.556  0.00  0.00    +0.147 C 
ATOM     14  C   LIG A   1      -6.488  -2.343 127.276  0.00  0.00    +0.032 C 
ATOM     15  C   LIG A   1      -7.519  -2.602 128.473  0.00  0.00    -0.029 C 
ATOM     16  C   LIG A   1      -6.736  -3.058 129.731  0.00  0.00    +0.011 C 
ATOM     17  C   LIG A   1      -8.358  -1.373 128.909  0.00  0.00    +0.011 C 
ATOM     18  C   LIG A   1      -8.503  -3.736 128.117  0.00  0.00    +0.007 C 
ATOM     19  C   LIG A   1      -9.220  -3.477 126.805  0.00  0.00    +0.001 C 
ATOM     20  C   LIG A   1      -8.204  -3.477 125.684  0.00  0.00    +0.007 C 
ENDROOT
BRANCH   5  21
ATOM     21  C   LIG A   1      -7.483   1.933 126.706  0.00  0.00    +0.313 C 
ATOM     22  O   LIG A   1      -8.663   1.765 127.002  0.00  0.00    -0.250 OA
BRANCH  21  23
ATOM     23  O   LIG A   1      -6.641   2.535 127.571  0.00  0.00    -0.480 OA
ATOM     24  H   LIG A   1      -5.689   2.472 127.356  0.00  0.00    +0.295 HD
ENDBRANCH  21  23
ENDBRANCH   5  21
BRANCH  13  25
ATOM     25  O   LIG A   1      -4.426  -1.473 128.229  0.00  0.00    -0.389 OA
ATOM     26  H   LIG A   1      -4.397  -0.964 129.064  0.00  0.00    +0.210 HD
ENDBRANCH  13  25
BRANCH  12  27
ATOM     27  O   LIG A   1      -4.555   0.964 126.765  0.00  0.00    -0.389 OA
ATOM     28  H   LIG A   1      -5.148   1.453 127.378  0.00  0.00    +0.210 HD
ENDBRANCH  12  27
TORSDOF 4
ENDMDL
MODEL 2
REMARK VINA RESULT:      -7.1      1.977      4.413
REMARK  Name = NuBBE_1576
REMARK  7 active torsions:
REMARK  status: ('A' for Active; 'I' for Inactive)
REMARK    1  A    between atoms: C_1  and  C_2
REMARK    2  A    between atoms: C_7  and  C_9
REMARK    3  A    between atoms: C_9  and  O_11
REMARK    4  A    between atoms: C_18  and  O_31
REMARK    5  A    between atoms: C_20  and  O_30
REMARK    6  A    between atoms: C_24  and  C_25
REMARK    7  A    between atoms: C_24  and  C_26
REMARK                            x       y       z     vdW  Elec       q    Type
REMARK                         _______ _______ _______ _____ _____    ______ ____
ROOT
ATOM      1  C   LIG A   1      -6.805  -1.596 127.782  0.00  0.00    +0.012 C 
ATOM      2  C   LIG A   1      -6.561  -1.436 126.249  0.00  0.00    -0.023 C 
ATOM      3  C   LIG A   1      -6.201   0.046 125.911  0.00  0.00    +0.009 C 
ATOM      4  C   LIG A   1      -7.322   1.066 126.349  0.00  0.00    +0.042 C 
ATOM      5  C   LIG A   1      -7.118   2.455 125.647  0.00  0.00    +0.137 C 
ATOM      6  C   LIG A   1      -5.701   2.896 125.885  0.00  0.00    +0.008 A 
ATOM      7  C   LIG A   1      -4.704   2.003 126.206  0.00  0.00    +0.109 A 
ATOM      8  C   LIG A   1      -4.808   0.536 126.423  0.00  0.00    +0.079 C 
ATOM      9  O   LIG A   1      -3.514   2.627 126.352  0.00  0.00    -0.468 OA
ATOM     10  C   LIG A   1      -3.752   3.951 126.144  0.00  0.00    +0.195 A 
ATOM     11  C   LIG A   1      -5.083   4.170 125.858  0.00  0.00    +0.045 A 
ATOM     12  C   LIG A   1      -8.747   0.482 126.326  0.00  0.00    +0.148 C 
ATOM     13  C   LIG A   1      -8.946  -0.710 125.382  0.00  0.00    +0.147 C 
ATOM     14  C   LIG A   1      -7.869  -1.839 125.441  0.00  0.00    +0.032 C 
ATOM     15  C   LIG A   1      -7.645  -2.479 123.991  0.00  0.00    -0.029 C 
ATOM     16  C   LIG A   1      -8.898  -3.302 123.597  0.00  0.00    +0.011 C 
ATOM     17  C   LIG A   1      -7.416  -1.464 122.842  0.00  0.00    +0.011 C 
ATOM     18  C   LIG A   1      -6.448  -3.453 123.998  0.00  0.00    +0.007 C 
ATOM     19  C   LIG A   1      -5.184  -2.799 124.525  0.00  0.00    +0.001 C 
ATOM     20  C   LIG A   1      -5.393  -2.428 125.977  0.00  0.00    +0.007 C 
ENDROOT
BRANCH   5  21
ATOM     21  C   LIG A   1      -7.489   2.383 124.164  0.00  0.00    +0.313 C 
ATOM     22  O   LIG A   1      -6.709   1.959 123.317  0.00  0.00    -0.250 OA
BRANCH  21  23
ATOM     23  O   LIG A   1      -8.696   2.864 123.800  0.00  0.00    -0.480 OA
ATOM     24  H   LIG A   1      -9.251   3.222 124.522  0.00  0.00    +0.295 HD
ENDBRANCH  21  23
ENDBRANCH   5  21
BRANCH  13  25
ATOM     25  O   LIG A   1     -10.229  -1.291 125.668  0.00  0.00    -0.389 OA
ATOM     26  H   LIG A   1     -10.606  -1.555 124.806  0.00  0.00    +0.210 HD
ENDBRANCH  13  25
BRANCH  12  27
ATOM     27  O   LIG A   1      -9.740   1.483 126.072  0.00  0.00    -0.389 OA
ATOM     28  H   LIG A   1      -9.668   1.757 125.130  0.00  0.00    +0.210 HD
ENDBRANCH  12  27
TORSDOF 4
ENDMDL
MODEL 3
REMARK VINA RESULT:      -7.0      5.197      7.878
REMARK  Name = NuBBE_1576
REMARK  7 active torsions:
REMARK  status: ('A' for Active; 'I' for Inactive)
REMARK    1  A    between atoms: C_1  and  C_2
REMARK    2  A    between atoms: C_7  and  C_9
REMARK    3  A    between atoms: C_9  and  O_11
REMARK    4  A    between atoms: C_18  and  O_31
REMARK    5  A    between atoms: C_20  and  O_30
REMARK    6  A    between atoms: C_24  and  C_25
REMARK    7  A    between atoms: C_24  and  C_26
REMARK                            x       y       z     vdW  Elec       q    Type
REMARK                         _______ _______ _______ _____ _____    ______ ____
ROOT
ATOM      1  C   LIG A   1      -3.906   4.231 131.837  0.00  0.00    +0.012 C 
ATOM      2  C   LIG A   1      -4.219   4.808 130.421  0.00  0.00    -0.023 C 
ATOM      3  C   LIG A   1      -5.760   4.973 130.233  0.00  0.00    +0.009 C 
ATOM      4  C   LIG A   1      -6.549   3.618 130.406  0.00  0.00    +0.042 C 
ATOM      5  C   LIG A   1      -8.001   3.738 129.823  0.00  0.00    +0.137 C 
ATOM      6  C   LIG A   1      -8.648   4.953 130.426  0.00  0.00    +0.008 A 
ATOM      7  C   LIG A   1      -7.908   5.984 130.960  0.00  0.00    +0.109 A 
ATOM      8  C   LIG A   1      -6.431   6.090 131.096  0.00  0.00    +0.079 C 
ATOM      9  O   LIG A   1      -8.704   6.974 131.422  0.00  0.00    -0.468 OA
ATOM     10  C   LIG A   1      -9.983   6.563 131.202  0.00  0.00    +0.195 A 
ATOM     11  C   LIG A   1     -10.004   5.325 130.596  0.00  0.00    +0.045 A 
ATOM     12  C   LIG A   1      -5.744   2.367 130.004  0.00  0.00    +0.148 C 
ATOM     13  C   LIG A   1      -4.610   2.617 129.004  0.00  0.00    +0.147 C 
ATOM     14  C   LIG A   1      -3.671   3.829 129.296  0.00  0.00    +0.032 C 
ATOM     15  C   LIG A   1      -3.186   4.508 127.930  0.00  0.00    -0.029 C 
ATOM     16  C   LIG A   1      -2.202   3.554 127.206  0.00  0.00    +0.011 C 
ATOM     17  C   LIG A   1      -4.309   4.827 126.909  0.00  0.00    +0.011 C 
ATOM     18  C   LIG A   1      -2.422   5.820 128.208  0.00  0.00    +0.007 C 
ATOM     19  C   LIG A   1      -3.232   6.782 129.058  0.00  0.00    +0.001 C 
ATOM     20  C   LIG A   1      -3.453   6.164 130.421  0.00  0.00    +0.007 C 
ENDROOT
BRANCH   5  21
ATOM     21  C   LIG A   1      -7.981   3.758 128.293  0.00  0.00    +0.313 C 
ATOM     22  O   LIG A   1      -7.711   4.773 127.658  0.00  0.00    -0.250 OA
BRANCH  21  23
ATOM     23  O   LIG A   1      -8.336   2.625 127.651  0.00  0.00    -0.480 OA
ATOM     24  H   LIG A   1      -7.735   1.862 127.764  0.00  0.00    +0.295 HD
ENDBRANCH  21  23
ENDBRANCH   5  21
BRANCH  13  25
ATOM     25  O   LIG A   1      -3.808   1.426 128.937  0.00  0.00    -0.389 OA
ATOM     26  H   LIG A   1      -3.295   1.397 129.769  0.00  0.00    +0.210 HD
ENDBRANCH  13  25
BRANCH  12  27
ATOM     27  O   LIG A   1      -6.587   1.305 129.540  0.00  0.00    -0.389 OA
ATOM     28  H   LIG A   1      -7.433   1.696 129.230  0.00  0.00    +0.210 HD
ENDBRANCH  12  27
TORSDOF 4
ENDMDL
MODEL 4
REMARK VINA RESULT:      -7.0      5.952      8.492
REMARK  Name = NuBBE_1576
REMARK  7 active torsions:
REMARK  status: ('A' for Active; 'I' for Inactive)
REMARK    1  A    between atoms: C_1  and  C_2
REMARK    2  A    between atoms: C_7  and  C_9
REMARK    3  A    between atoms: C_9  and  O_11
REMARK    4  A    between atoms: C_18  and  O_31
REMARK    5  A    between atoms: C_20  and  O_30
REMARK    6  A    between atoms: C_24  and  C_25
REMARK    7  A    between atoms: C_24  and  C_26
REMARK                            x       y       z     vdW  Elec       q    Type
REMARK                         _______ _______ _______ _____ _____    ______ ____
ROOT
ATOM      1  C   LIG A   1      -7.126   7.162 130.763  0.00  0.00    +0.012 C 
ATOM      2  C   LIG A   1      -6.881   5.889 131.634  0.00  0.00    -0.023 C 
ATOM      3  C   LIG A   1      -7.284   4.606 130.840  0.00  0.00    +0.009 C 
ATOM      4  C   LIG A   1      -8.793   4.616 130.381  0.00  0.00    +0.042 C 
ATOM      5  C   LIG A   1      -9.257   3.176 129.959  0.00  0.00    +0.137 C 
ATOM      6  C   LIG A   1      -8.272   2.642 128.958  0.00  0.00    +0.008 A 
ATOM      7  C   LIG A   1      -6.989   3.133 128.864  0.00  0.00    +0.109 A 
ATOM      8  C   LIG A   1      -6.364   4.243 129.630  0.00  0.00    +0.079 C 
ATOM      9  O   LIG A   1      -6.283   2.486 127.911  0.00  0.00    -0.468 OA
ATOM     10  C   LIG A   1      -7.134   1.575 127.363  0.00  0.00    +0.195 A 
ATOM     11  C   LIG A   1      -8.372   1.634 127.969  0.00  0.00    +0.045 A 
ATOM     12  C   LIG A   1      -9.731   5.397 131.321  0.00  0.00    +0.148 C 
ATOM     13  C   LIG A   1      -9.238   5.531 132.766  0.00  0.00    +0.147 C 
ATOM     14  C   LIG A   1      -7.750   5.959 132.963  0.00  0.00    +0.032 C 
ATOM     15  C   LIG A   1      -7.128   5.257 134.260  0.00  0.00    -0.029 C 
ATOM     16  C   LIG A   1      -7.770   5.871 135.531  0.00  0.00    +0.011 C 
ATOM     17  C   LIG A   1      -7.351   3.726 134.361  0.00  0.00    +0.011 C 
ATOM     18  C   LIG A   1      -5.610   5.513 134.352  0.00  0.00    +0.007 C 
ATOM     19  C   LIG A   1      -4.883   5.097 133.086  0.00  0.00    +0.001 C 
ATOM     20  C   LIG A   1      -5.357   5.966 131.941  0.00  0.00    +0.007 C 
ENDROOT
BRANCH   5  21
ATOM     21  C   LIG A   1      -9.432   2.272 131.182  0.00  0.00    +0.313 C 
ATOM     22  O   LIG A   1      -8.513   1.587 131.621  0.00  0.00    -0.250 OA
BRANCH  21  23
ATOM     23  O   LIG A   1     -10.661   2.202 131.734  0.00  0.00    -0.480 OA
ATOM     24  H   LIG A   1     -10.735   1.666 132.548  0.00  0.00    +0.295 HD
ENDBRANCH  21  23
ENDBRANCH   5  21
BRANCH  13  25
ATOM     25  O   LIG A   1     -10.077   6.490 133.432  0.00  0.00    -0.389 OA
ATOM     26  H   LIG A   1     -10.749   6.764 132.778  0.00  0.00    +0.210 HD
ENDBRANCH  13  25
BRANCH  12  27
ATOM     27  O   LIG A   1     -11.069   4.885 131.302  0.00  0.00    -0.389 OA
ATOM     28  H   LIG A   1     -11.535   5.211 132.104  0.00  0.00    +0.210 HD
ENDBRANCH  12  27
TORSDOF 4
ENDMDL
MODEL 5
REMARK VINA RESULT:      -7.0      6.064      8.319
REMARK  Name = NuBBE_1576
REMARK  7 active torsions:
REMARK  status: ('A' for Active; 'I' for Inactive)
REMARK    1  A    between atoms: C_1  and  C_2
REMARK    2  A    between atoms: C_7  and  C_9
REMARK    3  A    between atoms: C_9  and  O_11
REMARK    4  A    between atoms: C_18  and  O_31
REMARK    5  A    between atoms: C_20  and  O_30
REMARK    6  A    between atoms: C_24  and  C_25
REMARK    7  A    between atoms: C_24  and  C_26
REMARK                            x       y       z     vdW  Elec       q    Type
REMARK                         _______ _______ _______ _____ _____    ______ ____
ROOT
ATOM      1  C   LIG A   1      -5.991   5.896 133.403  0.00  0.00    +0.012 C 
ATOM      2  C   LIG A   1      -6.136   5.043 132.104  0.00  0.00    -0.023 C 
ATOM      3  C   LIG A   1      -7.499   5.350 131.405  0.00  0.00    +0.009 C 
ATOM      4  C   LIG A   1      -8.743   5.066 132.334  0.00  0.00    +0.042 C 
ATOM      5  C   LIG A   1     -10.064   4.994 131.489  0.00  0.00    +0.137 C 
ATOM      6  C   LIG A   1     -10.148   6.235 130.645  0.00  0.00    +0.008 A 
ATOM      7  C   LIG A   1      -9.033   6.981 130.333  0.00  0.00    +0.109 A 
ATOM      8  C   LIG A   1      -7.627   6.772 130.769  0.00  0.00    +0.079 C 
ATOM      9  O   LIG A   1      -9.350   8.035 129.549  0.00  0.00    -0.468 OA
ATOM     10  C   LIG A   1     -10.698   7.981 129.370  0.00  0.00    +0.195 A 
ATOM     11  C   LIG A   1     -11.237   6.896 130.028  0.00  0.00    +0.045 A 
ATOM     12  C   LIG A   1      -8.516   3.939 133.359  0.00  0.00    +0.148 C 
ATOM     13  C   LIG A   1      -7.437   2.920 132.978  0.00  0.00    +0.147 C 
ATOM     14  C   LIG A   1      -6.083   3.494 132.456  0.00  0.00    +0.032 C 
ATOM     15  C   LIG A   1      -5.453   2.530 131.345  0.00  0.00    -0.029 C 
ATOM     16  C   LIG A   1      -4.965   1.222 132.020  0.00  0.00    +0.011 C 
ATOM     17  C   LIG A   1      -6.420   2.096 130.213  0.00  0.00    +0.011 C 
ATOM     18  C   LIG A   1      -4.222   3.183 130.682  0.00  0.00    +0.007 C 
ATOM     19  C   LIG A   1      -4.539   4.556 130.119  0.00  0.00    +0.001 C 
ATOM     20  C   LIG A   1      -4.903   5.480 131.261  0.00  0.00    +0.007 C 
ENDROOT
BRANCH   5  21
ATOM     21  C   LIG A   1     -10.129   3.701 130.674  0.00  0.00    +0.313 C 
ATOM     22  O   LIG A   1      -9.625   3.608 129.559  0.00  0.00    -0.250 OA
BRANCH  21  23
ATOM     23  O   LIG A   1     -10.822   2.669 131.199  0.00  0.00    -0.480 OA
ATOM     24  H   LIG A   1     -10.299   1.878 131.437  0.00  0.00    +0.295 HD
ENDBRANCH  21  23
ENDBRANCH   5  21
BRANCH  13  25
ATOM     25  O   LIG A   1      -7.170   2.106 134.133  0.00  0.00    -0.389 OA
ATOM     26  H   LIG A   1      -8.015   2.040 134.620  0.00  0.00    +0.210 HD
ENDBRANCH  13  25
BRANCH  12  27
ATOM     27  O   LIG A   1      -9.733   3.264 133.702  0.00  0.00    -0.389 OA
ATOM     28  H   LIG A   1     -10.133   2.910 132.877  0.00  0.00    +0.210 HD
ENDBRANCH  12  27
TORSDOF 4
ENDMDL
MODEL 6
REMARK VINA RESULT:      -6.9      2.805      4.988
REMARK  Name = NuBBE_1576
REMARK  7 active torsions:
REMARK  status: ('A' for Active; 'I' for Inactive)
REMARK    1  A    between atoms: C_1  and  C_2
REMARK    2  A    between atoms: C_7  and  C_9
REMARK    3  A    between atoms: C_9  and  O_11
REMARK    4  A    between atoms: C_18  and  O_31
REMARK    5  A    between atoms: C_20  and  O_30
REMARK    6  A    between atoms: C_24  and  C_25
REMARK    7  A    between atoms: C_24  and  C_26
REMARK                            x       y       z     vdW  Elec       q    Type
REMARK                         _______ _______ _______ _____ _____    ______ ____
ROOT
ATOM      1  C   LIG A   1      -4.408   2.984 126.212  0.00  0.00    +0.012 C 
ATOM      2  C   LIG A   1      -5.600   2.330 126.979  0.00  0.00    -0.023 C 
ATOM      3  C   LIG A   1      -6.331   1.298 126.063  0.00  0.00    +0.009 C 
ATOM      4  C   LIG A   1      -6.884   1.941 124.733  0.00  0.00    +0.042 C 
ATOM      5  C   LIG A   1      -7.936   0.996 124.051  0.00  0.00    +0.137 C 
ATOM      6  C   LIG A   1      -7.320  -0.368 123.912  0.00  0.00    +0.008 A 
ATOM      7  C   LIG A   1      -6.263  -0.773 124.697  0.00  0.00    +0.109 A 
ATOM      8  C   LIG A   1      -5.525   0.000 125.729  0.00  0.00    +0.079 C 
ATOM      9  O   LIG A   1      -5.893  -2.041 124.407  0.00  0.00    -0.468 OA
ATOM     10  C   LIG A   1      -6.712  -2.453 123.400  0.00  0.00    +0.195 A 
ATOM     11  C   LIG A   1      -7.605  -1.459 123.056  0.00  0.00    +0.045 A 
ATOM     12  C   LIG A   1      -7.273   3.425 124.867  0.00  0.00    +0.148 C 
ATOM     13  C   LIG A   1      -7.620   3.880 126.288  0.00  0.00    +0.147 C 
ATOM     14  C   LIG A   1      -6.643   3.444 127.424  0.00  0.00    +0.032 C 
ATOM     15  C   LIG A   1      -7.443   3.171 128.783  0.00  0.00    -0.029 C 
ATOM     16  C   LIG A   1      -7.956   4.518 129.353  0.00  0.00    +0.011 C 
ATOM     17  C   LIG A   1      -8.688   2.256 128.651  0.00  0.00    +0.011 C 
ATOM     18  C   LIG A   1      -6.520   2.550 129.852  0.00  0.00    +0.007 C 
ATOM     19  C   LIG A   1      -5.825   1.298 129.348  0.00  0.00    +0.001 C 
ATOM     20  C   LIG A   1      -4.905   1.674 128.207  0.00  0.00    +0.007 C 
ENDROOT
BRANCH   5  21
ATOM     21  C   LIG A   1      -9.256   0.989 124.828  0.00  0.00    +0.313 C 
ATOM     22  O   LIG A   1      -9.494   0.157 125.698  0.00  0.00    -0.250 OA
BRANCH  21  23
ATOM     23  O   LIG A   1     -10.188   1.899 124.478  0.00  0.00    -0.480 OA
ATOM     24  H   LIG A   1      -9.879   2.636 123.915  0.00  0.00    +0.295 HD
ENDBRANCH  21  23
ENDBRANCH   5  21
BRANCH  13  25
ATOM     25  O   LIG A   1      -7.701   5.316 126.286  0.00  0.00    -0.389 OA
ATOM     26  H   LIG A   1      -6.833   5.636 125.971  0.00  0.00    +0.210 HD
ENDBRANCH  13  25
BRANCH  12  27
ATOM     27  O   LIG A   1      -8.318   3.797 123.960  0.00  0.00    -0.389 OA
ATOM     28  H   LIG A   1      -9.178   3.719 124.432  0.00  0.00    +0.210 HD
ENDBRANCH  12  27
TORSDOF 4
ENDMDL
MODEL 7
REMARK VINA RESULT:      -6.8      3.064      5.699
REMARK  Name = NuBBE_1576
REMARK  7 active torsions:
REMARK  status: ('A' for Active; 'I' for Inactive)
REMARK    1  A    between atoms: C_1  and  C_2
REMARK    2  A    between atoms: C_7  and  C_9
REMARK    3  A    between atoms: C_9  and  O_11
REMARK    4  A    between atoms: C_18  and  O_31
REMARK    5  A    between atoms: C_20  and  O_30
REMARK    6  A    between atoms: C_24  and  C_25
REMARK    7  A    between atoms: C_24  and  C_26
REMARK                            x       y       z     vdW  Elec       q    Type
REMARK                         _______ _______ _______ _____ _____    ______ ____
ROOT
ATOM      1  C   LIG A   1      -6.007   5.034 125.599  0.00  0.00    +0.012 C 
ATOM      2  C   LIG A   1      -5.346   3.904 126.448  0.00  0.00    -0.023 C 
ATOM      3  C   LIG A   1      -6.238   2.622 126.432  0.00  0.00    +0.009 C 
ATOM      4  C   LIG A   1      -7.693   2.880 126.986  0.00  0.00    +0.042 C 
ATOM      5  C   LIG A   1      -8.407   1.524 127.329  0.00  0.00    +0.137 C 
ATOM      6  C   LIG A   1      -8.314   0.629 126.125  0.00  0.00    +0.008 A 
ATOM      7  C   LIG A   1      -7.353   0.810 125.155  0.00  0.00    +0.109 A 
ATOM      8  C   LIG A   1      -6.318   1.872 125.063  0.00  0.00    +0.079 C 
ATOM      9  O   LIG A   1      -7.453  -0.126 124.185  0.00  0.00    -0.468 OA
ATOM     10  C   LIG A   1      -8.513  -0.911 124.523  0.00  0.00    +0.195 A 
ATOM     11  C   LIG A   1      -9.080  -0.485 125.706  0.00  0.00    +0.045 A 
ATOM     12  C   LIG A   1      -7.772   3.991 128.049  0.00  0.00    +0.148 C 
ATOM     13  C   LIG A   1      -6.469   4.258 128.810  0.00  0.00    +0.147 C 
ATOM     14  C   LIG A   1      -5.169   4.382 127.954  0.00  0.00    +0.032 C 
ATOM     15  C   LIG A   1      -3.912   3.791 128.749  0.00  0.00    -0.029 C 
ATOM     16  C   LIG A   1      -3.565   4.734 129.929  0.00  0.00    +0.011 C 
ATOM     17  C   LIG A   1      -4.115   2.384 129.366  0.00  0.00    +0.011 C 
ATOM     18  C   LIG A   1      -2.667   3.727 127.840  0.00  0.00    +0.007 C 
ATOM     19  C   LIG A   1      -2.934   2.956 126.560  0.00  0.00    +0.001 C 
ATOM     20  C   LIG A   1      -3.971   3.702 125.748  0.00  0.00    +0.007 C 
ENDROOT
BRANCH   5  21
ATOM     21  C   LIG A   1      -7.823   0.898 128.597  0.00  0.00    +0.313 C 
ATOM     22  O   LIG A   1      -6.828   0.180 128.570  0.00  0.00    -0.250 OA
BRANCH  21  23
ATOM     23  O   LIG A   1      -8.481   1.111 129.756  0.00  0.00    -0.480 OA
ATOM     24  H   LIG A   1      -8.571   0.337 130.347  0.00  0.00    +0.295 HD
ENDBRANCH  21  23
ENDBRANCH   5  21
BRANCH  13  25
ATOM     25  O   LIG A   1      -6.635   5.473 129.560  0.00  0.00    -0.389 OA
ATOM     26  H   LIG A   1      -6.836   6.171 128.907  0.00  0.00    +0.210 HD
ENDBRANCH  13  25
BRANCH  12  27
ATOM     27  O   LIG A   1      -8.849   3.784 128.973  0.00  0.00    -0.389 OA
ATOM     28  H   LIG A   1      -8.636   2.996 129.522  0.00  0.00    +0.210 HD
ENDBRANCH  12  27
TORSDOF 4
ENDMDL
MODEL 8
REMARK VINA RESULT:      -6.8      6.033      8.634
REMARK  Name = NuBBE_1576
REMARK  7 active torsions:
REMARK  status: ('A' for Active; 'I' for Inactive)
REMARK    1  A    between atoms: C_1  and  C_2
REMARK    2  A    between atoms: C_7  and  C_9
REMARK    3  A    between atoms: C_9  and  O_11
REMARK    4  A    between atoms: C_18  and  O_31
REMARK    5  A    between atoms: C_20  and  O_30
REMARK    6  A    between atoms: C_24  and  C_25
REMARK    7  A    between atoms: C_24  and  C_26
REMARK                            x       y       z     vdW  Elec       q    Type
REMARK                         _______ _______ _______ _____ _____    ______ ____
ROOT
ATOM      1  C   LIG A   1      -8.534   6.626 131.022  0.00  0.00    +0.012 C 
ATOM      2  C   LIG A   1      -7.946   5.423 131.824  0.00  0.00    -0.023 C 
ATOM      3  C   LIG A   1      -6.407   5.313 131.580  0.00  0.00    +0.009 C 
ATOM      4  C   LIG A   1      -6.038   5.129 130.057  0.00  0.00    +0.042 C 
ATOM      5  C   LIG A   1      -4.559   4.624 129.899  0.00  0.00    +0.137 C 
ATOM      6  C   LIG A   1      -3.665   5.543 130.683  0.00  0.00    +0.008 A 
ATOM      7  C   LIG A   1      -4.143   6.321 131.713  0.00  0.00    +0.109 A 
ATOM      8  C   LIG A   1      -5.540   6.456 132.201  0.00  0.00    +0.079 C 
ATOM      9  O   LIG A   1      -3.154   7.046 132.282  0.00  0.00    -0.468 OA
ATOM     10  C   LIG A   1      -2.020   6.746 131.590  0.00  0.00    +0.195 A 
ATOM     11  C   LIG A   1      -2.281   5.829 130.593  0.00  0.00    +0.045 A 
ATOM     12  C   LIG A   1      -7.112   4.392 129.235  0.00  0.00    +0.148 C 
ATOM     13  C   LIG A   1      -8.036   3.476 130.045  0.00  0.00    +0.147 C 
ATOM     14  C   LIG A   1      -8.633   4.067 131.360  0.00  0.00    +0.032 C 
ATOM     15  C   LIG A   1      -8.785   2.927 132.473  0.00  0.00    -0.029 C 
ATOM     16  C   LIG A   1      -9.920   1.956 132.058  0.00  0.00    +0.011 C 
ATOM     17  C   LIG A   1      -7.528   2.048 132.703  0.00  0.00    +0.011 C 
ATOM     18  C   LIG A   1      -9.185   3.534 133.834  0.00  0.00    +0.007 C 
ATOM     19  C   LIG A   1      -8.226   4.625 134.275  0.00  0.00    +0.001 C 
ATOM     20  C   LIG A   1      -8.309   5.775 133.296  0.00  0.00    +0.007 C 
ENDROOT
BRANCH   5  21
ATOM     21  C   LIG A   1      -4.431   3.155 130.309  0.00  0.00    +0.313 C 
ATOM     22  O   LIG A   1      -4.286   2.817 131.480  0.00  0.00    -0.250 OA
BRANCH  21  23
ATOM     23  O   LIG A   1      -4.418   2.233 129.325  0.00  0.00    -0.480 OA
ATOM     24  H   LIG A   1      -5.285   2.020 128.925  0.00  0.00    +0.295 HD
ENDBRANCH  21  23
ENDBRANCH   5  21
BRANCH  13  25
ATOM     25  O   LIG A   1      -9.122   3.078 129.192  0.00  0.00    -0.389 OA
ATOM     26  H   LIG A   1      -8.772   2.369 128.618  0.00  0.00    +0.210 HD
ENDBRANCH  13  25
BRANCH  12  27
ATOM     27  O   LIG A   1      -6.551   3.674 128.129  0.00  0.00    -0.389 OA
ATOM     28  H   LIG A   1      -6.717   4.191 127.309  0.00  0.00    +0.210 HD
ENDBRANCH  12  27
TORSDOF 4
ENDMDL
MODEL 9
REMARK VINA RESULT:      -6.6      2.114      5.362
REMARK  Name = NuBBE_1576
REMARK  7 active torsions:
REMARK  status: ('A' for Active; 'I' for Inactive)
REMARK    1  A    between atoms: C_1  and  C_2
REMARK    2  A    between atoms: C_7  and  C_9
REMARK    3  A    between atoms: C_9  and  O_11
REMARK    4  A    between atoms: C_18  and  O_31
REMARK    5  A    between atoms: C_20  and  O_30
REMARK    6  A    between atoms: C_24  and  C_25
REMARK    7  A    between atoms: C_24  and  C_26
REMARK                            x       y       z     vdW  Elec       q    Type
REMARK                         _______ _______ _______ _____ _____    ______ ____
ROOT
ATOM      1  C   LIG A   1      -9.495   0.856 123.778  0.00  0.00    +0.012 C 
ATOM      2  C   LIG A   1      -8.065   1.366 124.138  0.00  0.00    -0.023 C 
ATOM      3  C   LIG A   1      -7.101   0.158 124.364  0.00  0.00    +0.009 C 
ATOM      4  C   LIG A   1      -7.590  -0.812 125.508  0.00  0.00    +0.042 C 
ATOM      5  C   LIG A   1      -6.426  -1.758 125.973  0.00  0.00    +0.137 C 
ATOM      6  C   LIG A   1      -5.848  -2.421 124.755  0.00  0.00    +0.008 A 
ATOM      7  C   LIG A   1      -5.995  -1.887 123.495  0.00  0.00    +0.109 A 
ATOM      8  C   LIG A   1      -6.742  -0.668 123.087  0.00  0.00    +0.079 C 
ATOM      9  O   LIG A   1      -5.374  -2.644 122.563  0.00  0.00    -0.468 OA
ATOM     10  C   LIG A   1      -4.835  -3.700 123.233  0.00  0.00    +0.195 A 
ATOM     11  C   LIG A   1      -5.102  -3.612 124.583  0.00  0.00    +0.045 A 
ATOM     12  C   LIG A   1      -8.400  -0.116 126.618  0.00  0.00    +0.148 C 
ATOM     13  C   LIG A   1      -8.131   1.385 126.776  0.00  0.00    +0.147 C 
ATOM     14  C   LIG A   1      -8.111   2.236 125.468  0.00  0.00    +0.032 C 
ATOM     15  C   LIG A   1      -7.043   3.422 125.584  0.00  0.00    -0.029 C 
ATOM     16  C   LIG A   1      -7.557   4.475 126.599  0.00  0.00    +0.011 C 
ATOM     17  C   LIG A   1      -5.632   3.004 126.073  0.00  0.00    +0.011 C 
ATOM     18  C   LIG A   1      -6.873   4.144 124.231  0.00  0.00    +0.007 C 
ATOM     19  C   LIG A   1      -6.523   3.182 123.111  0.00  0.00    +0.001 C 
ATOM     20  C   LIG A   1      -7.683   2.232 122.902  0.00  0.00    +0.007 C 
ENDROOT
BRANCH   5  21
ATOM     21  C   LIG A   1      -5.388  -0.991 126.797  0.00  0.00    +0.313 C 
ATOM     22  O   LIG A   1      -5.275  -1.147 128.009  0.00  0.00    -0.250 OA
BRANCH  21  23
ATOM     23  O   LIG A   1      -4.632  -0.079 126.153  0.00  0.00    -0.480 OA
ATOM     24  H   LIG A   1      -4.151  -0.401 125.364  0.00  0.00    +0.295 HD
ENDBRANCH  21  23
ENDBRANCH   5  21
BRANCH  13  25
ATOM     25  O   LIG A   1      -9.135   1.923 127.653  0.00  0.00    -0.389 OA
ATOM     26  H   LIG A   1      -8.687   2.603 128.195  0.00  0.00    +0.210 HD
ENDBRANCH  13  25
BRANCH  12  27
ATOM     27  O   LIG A   1      -8.268  -0.777 127.883  0.00  0.00    -0.389 OA
ATOM     28  H   LIG A   1      -7.697  -1.568 127.759  0.00  0.00    +0.210 HD
ENDBRANCH  12  27
TORSDOF 4
ENDMDL
