MODEL 1
REMARK VINA RESULT:      -6.7      0.000      0.000
REMARK  Name = NuBBE_476
REMARK  10 active torsions:
REMARK  status: ('A' for Active; 'I' for Inactive)
REMARK    1  A    between atoms: C_2  and  C_3
REMARK    2  A    between atoms: C_2  and  O_26
REMARK    3  A    between atoms: C_6  and  O_22
REMARK    4  A    between atoms: C_10  and  O_16
REMARK    5  A    between atoms: C_13  and  C_15
REMARK    6  A    between atoms: O_16  and  C_17
REMARK    7  A    between atoms: C_17  and  C_18
REMARK    8  A    between atoms: O_22  and  C_23
REMARK    9  A    between atoms: C_23  and  C_24
REMARK   10  A    between atoms: O_26  and  C_27
REMARK                            x       y       z     vdW  Elec       q    Type
REMARK                         _______ _______ _______ _____ _____    ______ ____
ROOT
ATOM      1  C   LIG A   1      -6.468   0.118 125.004  0.00  0.00    +0.078 C 
ATOM      2  C   LIG A   1      -5.603   0.011 126.030  0.00  0.00    +0.202 C 
ATOM      3  O   LIG A   1      -5.250  -1.149 126.667  0.00  0.00    -0.460 OA
ATOM      4  C   LIG A   1      -6.114  -2.268 126.413  0.00  0.00    +0.370 C 
ATOM      5  C   LIG A   1      -6.453  -2.388 124.925  0.00  0.00    +0.085 C 
ATOM      6  C   LIG A   1      -7.131  -1.100 124.401  0.00  0.00    +0.080 C 
ATOM      7  C   LIG A   1      -7.031  -1.333 122.876  0.00  0.00    +0.185 C 
ATOM      8  C   LIG A   1      -5.672  -2.003 122.639  0.00  0.00    +0.049 C 
ATOM      9  C   LIG A   1      -5.226  -2.554 124.002  0.00  0.00    +0.000 C 
ATOM     10  C   LIG A   1      -4.717  -3.986 123.921  0.00  0.00    +0.008 C 
ENDROOT
BRANCH   1  12
ATOM     11  O   LIG A   1      -6.038   2.436 124.554  0.00  0.00    -0.245 OA
ATOM     12  C   LIG A   1      -6.838   1.507 124.633  0.00  0.00    +0.338 C 
BRANCH  12  13
ATOM     13  O   LIG A   1      -8.164   1.596 124.426  0.00  0.00    -0.465 OA
ATOM     14  C   LIG A   1      -8.527   2.236 123.201  0.00  0.00    +0.280 C 
ENDBRANCH  12  13
ENDBRANCH   1  12
BRANCH   7  15
ATOM     15  O   LIG A   1      -8.013  -2.319 122.468  0.00  0.00    -0.461 OA
BRANCH  15  16
ATOM     16  C   LIG A   1      -9.287  -2.146 122.912  0.00  0.00    +0.304 C 
ATOM     17  C   LIG A   1      -9.758  -3.413 123.561  0.00  0.00    +0.136 C 
ATOM     18  O   LIG A   1      -9.951  -1.131 122.795  0.00  0.00    -0.251 OA
ENDBRANCH  15  16
ENDBRANCH   7  15
BRANCH   4  19
ATOM     19  O   LIG A   1      -7.357  -2.159 127.133  0.00  0.00    -0.425 OA
BRANCH  19  20
ATOM     20  C   LIG A   1      -7.437  -2.906 128.264  0.00  0.00    +0.307 C 
ATOM     21  C   LIG A   1      -8.709  -3.702 128.270  0.00  0.00    +0.136 C 
ATOM     22  O   LIG A   1      -6.575  -2.992 129.127  0.00  0.00    -0.251 OA
ENDBRANCH  19  20
ENDBRANCH   4  19
TORSDOF 6
ENDMDL
MODEL 2
REMARK VINA RESULT:      -6.7      1.577      5.436
REMARK  Name = NuBBE_476
REMARK  10 active torsions:
REMARK  status: ('A' for Active; 'I' for Inactive)
REMARK    1  A    between atoms: C_2  and  C_3
REMARK    2  A    between atoms: C_2  and  O_26
REMARK    3  A    between atoms: C_6  and  O_22
REMARK    4  A    between atoms: C_10  and  O_16
REMARK    5  A    between atoms: C_13  and  C_15
REMARK    6  A    between atoms: O_16  and  C_17
REMARK    7  A    between atoms: C_17  and  C_18
REMARK    8  A    between atoms: O_22  and  C_23
REMARK    9  A    between atoms: C_23  and  C_24
REMARK   10  A    between atoms: O_26  and  C_27
REMARK                            x       y       z     vdW  Elec       q    Type
REMARK                         _______ _______ _______ _____ _____    ______ ____
ROOT
ATOM      1  C   LIG A   1      -8.434  -2.656 126.087  0.00  0.00    +0.078 C 
ATOM      2  C   LIG A   1      -9.373  -3.078 125.220  0.00  0.00    +0.202 C 
ATOM      3  O   LIG A   1      -9.555  -2.615 123.943  0.00  0.00    -0.460 OA
ATOM      4  C   LIG A   1      -8.891  -1.376 123.647  0.00  0.00    +0.370 C 
ATOM      5  C   LIG A   1      -7.453  -1.371 124.171  0.00  0.00    +0.085 C 
ATOM      6  C   LIG A   1      -7.415  -1.609 125.699  0.00  0.00    +0.080 C 
ATOM      7  C   LIG A   1      -5.912  -1.913 125.897  0.00  0.00    +0.185 C 
ATOM      8  C   LIG A   1      -5.482  -2.730 124.672  0.00  0.00    +0.049 C 
ATOM      9  C   LIG A   1      -6.563  -2.500 123.605  0.00  0.00    +0.000 C 
ATOM     10  C   LIG A   1      -5.981  -2.184 122.235  0.00  0.00    +0.008 C 
ENDROOT
BRANCH   1  12
ATOM     11  O   LIG A   1      -9.083  -4.250 127.760  0.00  0.00    -0.245 OA
ATOM     12  C   LIG A   1      -8.584  -3.165 127.474  0.00  0.00    +0.338 C 
BRANCH  12  13
ATOM     13  O   LIG A   1      -8.119  -2.260 128.355  0.00  0.00    -0.465 OA
ATOM     14  C   LIG A   1      -7.688  -2.816 129.598  0.00  0.00    +0.280 C 
ENDBRANCH  12  13
ENDBRANCH   1  12
BRANCH   7  15
ATOM     15  O   LIG A   1      -5.151  -0.682 125.814  0.00  0.00    -0.461 OA
BRANCH  15  16
ATOM     16  C   LIG A   1      -5.410   0.272 126.748  0.00  0.00    +0.304 C 
ATOM     17  C   LIG A   1      -5.665   1.579 126.059  0.00  0.00    +0.136 C 
ATOM     18  O   LIG A   1      -5.423   0.103 127.954  0.00  0.00    -0.251 OA
ENDBRANCH  15  16
ENDBRANCH   7  15
BRANCH   4  19
ATOM     19  O   LIG A   1      -9.571  -0.250 124.236  0.00  0.00    -0.425 OA
BRANCH  19  20
ATOM     20  C   LIG A   1     -10.031   0.673 123.353  0.00  0.00    +0.307 C 
ATOM     21  C   LIG A   1      -9.296   1.969 123.529  0.00  0.00    +0.136 C 
ATOM     22  O   LIG A   1     -10.866   0.476 122.482  0.00  0.00    -0.251 OA
ENDBRANCH  19  20
ENDBRANCH   4  19
TORSDOF 6
ENDMDL
MODEL 3
REMARK VINA RESULT:      -6.3      7.717      9.948
REMARK  Name = NuBBE_476
REMARK  10 active torsions:
REMARK  status: ('A' for Active; 'I' for Inactive)
REMARK    1  A    between atoms: C_2  and  C_3
REMARK    2  A    between atoms: C_2  and  O_26
REMARK    3  A    between atoms: C_6  and  O_22
REMARK    4  A    between atoms: C_10  and  O_16
REMARK    5  A    between atoms: C_13  and  C_15
REMARK    6  A    between atoms: O_16  and  C_17
REMARK    7  A    between atoms: C_17  and  C_18
REMARK    8  A    between atoms: O_22  and  C_23
REMARK    9  A    between atoms: C_23  and  C_24
REMARK   10  A    between atoms: O_26  and  C_27
REMARK                            x       y       z     vdW  Elec       q    Type
REMARK                         _______ _______ _______ _____ _____    ______ ____
ROOT
ATOM      1  C   LIG A   1     -10.219   6.102 130.088  0.00  0.00    +0.078 C 
ATOM      2  C   LIG A   1     -11.255   5.247 129.995  0.00  0.00    +0.202 C 
ATOM      3  O   LIG A   1     -11.220   3.907 130.280  0.00  0.00    -0.460 OA
ATOM      4  C   LIG A   1      -9.904   3.341 130.374  0.00  0.00    +0.370 C 
ATOM      5  C   LIG A   1      -8.967   4.232 131.194  0.00  0.00    +0.085 C 
ATOM      6  C   LIG A   1      -8.863   5.648 130.578  0.00  0.00    +0.080 C 
ATOM      7  C   LIG A   1      -8.192   6.409 131.744  0.00  0.00    +0.185 C 
ATOM      8  C   LIG A   1      -8.804   5.840 133.030  0.00  0.00    +0.049 C 
ATOM      9  C   LIG A   1      -9.442   4.498 132.640  0.00  0.00    +0.000 C 
ATOM     10  C   LIG A   1      -9.095   3.376 133.608  0.00  0.00    +0.008 C 
ENDROOT
BRANCH   1  12
ATOM     11  O   LIG A   1      -9.590   8.160 129.026  0.00  0.00    -0.245 OA
ATOM     12  C   LIG A   1     -10.463   7.452 129.521  0.00  0.00    +0.338 C 
BRANCH  12  13
ATOM     13  O   LIG A   1     -11.760   7.786 129.653  0.00  0.00    -0.465 OA
ATOM     14  C   LIG A   1     -12.176   8.872 128.824  0.00  0.00    +0.280 C 
ENDBRANCH  12  13
ENDBRANCH   1  12
BRANCH   7  15
ATOM     15  O   LIG A   1      -6.786   6.058 131.810  0.00  0.00    -0.461 OA
BRANCH  15  16
ATOM     16  C   LIG A   1      -5.907   6.904 131.209  0.00  0.00    +0.304 C 
ATOM     17  C   LIG A   1      -4.555   6.736 131.837  0.00  0.00    +0.136 C 
ATOM     18  O   LIG A   1      -6.170   7.685 130.312  0.00  0.00    -0.251 OA
ENDBRANCH  15  16
ENDBRANCH   7  15
BRANCH   4  19
ATOM     19  O   LIG A   1      -9.305   3.161 129.075  0.00  0.00    -0.425 OA
BRANCH  19  20
ATOM     20  C   LIG A   1      -8.691   1.965 128.884  0.00  0.00    +0.307 C 
ATOM     21  C   LIG A   1      -8.556   1.681 127.417  0.00  0.00    +0.136 C 
ATOM     22  O   LIG A   1      -8.239   1.245 129.763  0.00  0.00    -0.251 OA
ENDBRANCH  19  20
ENDBRANCH   4  19
TORSDOF 6
ENDMDL
MODEL 4
REMARK VINA RESULT:      -6.0      7.896     10.289
REMARK  Name = NuBBE_476
REMARK  10 active torsions:
REMARK  status: ('A' for Active; 'I' for Inactive)
REMARK    1  A    between atoms: C_2  and  C_3
REMARK    2  A    between atoms: C_2  and  O_26
REMARK    3  A    between atoms: C_6  and  O_22
REMARK    4  A    between atoms: C_10  and  O_16
REMARK    5  A    between atoms: C_13  and  C_15
REMARK    6  A    between atoms: O_16  and  C_17
REMARK    7  A    between atoms: C_17  and  C_18
REMARK    8  A    between atoms: O_22  and  C_23
REMARK    9  A    between atoms: C_23  and  C_24
REMARK   10  A    between atoms: O_26  and  C_27
REMARK                            x       y       z     vdW  Elec       q    Type
REMARK                         _______ _______ _______ _____ _____    ______ ____
ROOT
ATOM      1  C   LIG A   1      -7.742   4.828 129.776  0.00  0.00    +0.078 C 
ATOM      2  C   LIG A   1      -6.469   4.491 130.056  0.00  0.00    +0.202 C 
ATOM      3  O   LIG A   1      -5.672   5.077 131.003  0.00  0.00    -0.460 OA
ATOM      4  C   LIG A   1      -6.142   6.342 131.494  0.00  0.00    +0.370 C 
ATOM      5  C   LIG A   1      -7.641   6.302 131.802  0.00  0.00    +0.085 C 
ATOM      6  C   LIG A   1      -8.459   5.914 130.547  0.00  0.00    +0.080 C 
ATOM      7  C   LIG A   1      -9.827   5.598 131.193  0.00  0.00    +0.185 C 
ATOM      8  C   LIG A   1      -9.517   4.909 132.528  0.00  0.00    +0.049 C 
ATOM      9  C   LIG A   1      -8.050   5.239 132.846  0.00  0.00    +0.000 C 
ATOM     10  C   LIG A   1      -7.847   5.691 134.284  0.00  0.00    +0.008 C 
ENDROOT
BRANCH   1  12
ATOM     11  O   LIG A   1      -8.670   3.010 128.515  0.00  0.00    -0.245 OA
ATOM     12  C   LIG A   1      -8.313   4.184 128.567  0.00  0.00    +0.338 C 
BRANCH  12  13
ATOM     13  O   LIG A   1      -8.357   5.061 127.548  0.00  0.00    -0.465 OA
ATOM     14  C   LIG A   1      -7.934   4.527 126.292  0.00  0.00    +0.280 C 
ENDBRANCH  12  13
ENDBRANCH   1  12
BRANCH   7  15
ATOM     15  O   LIG A   1     -10.492   6.835 131.555  0.00  0.00    -0.461 OA
BRANCH  15  16
ATOM     16  C   LIG A   1     -11.749   7.028 131.073  0.00  0.00    +0.304 C 
ATOM     17  C   LIG A   1     -11.664   7.494 129.650  0.00  0.00    +0.136 C 
ATOM     18  O   LIG A   1     -12.783   6.862 131.695  0.00  0.00    -0.251 OA
ENDBRANCH  15  16
ENDBRANCH   7  15
BRANCH   4  19
ATOM     19  O   LIG A   1      -5.924   7.401 130.541  0.00  0.00    -0.425 OA
BRANCH  19  20
ATOM     20  C   LIG A   1      -4.635   7.565 130.146  0.00  0.00    +0.307 C 
ATOM     21  C   LIG A   1      -3.739   7.694 131.343  0.00  0.00    +0.136 C 
ATOM     22  O   LIG A   1      -4.233   7.540 128.992  0.00  0.00    -0.251 OA
ENDBRANCH  19  20
ENDBRANCH   4  19
TORSDOF 6
ENDMDL
MODEL 5
REMARK VINA RESULT:      -6.0      2.391      5.838
REMARK  Name = NuBBE_476
REMARK  10 active torsions:
REMARK  status: ('A' for Active; 'I' for Inactive)
REMARK    1  A    between atoms: C_2  and  C_3
REMARK    2  A    between atoms: C_2  and  O_26
REMARK    3  A    between atoms: C_6  and  O_22
REMARK    4  A    between atoms: C_10  and  O_16
REMARK    5  A    between atoms: C_13  and  C_15
REMARK    6  A    between atoms: O_16  and  C_17
REMARK    7  A    between atoms: C_17  and  C_18
REMARK    8  A    between atoms: O_22  and  C_23
REMARK    9  A    between atoms: C_23  and  C_24
REMARK   10  A    between atoms: O_26  and  C_27
REMARK                            x       y       z     vdW  Elec       q    Type
REMARK                         _______ _______ _______ _____ _____    ______ ____
ROOT
ATOM      1  C   LIG A   1      -7.157   2.193 125.478  0.00  0.00    +0.078 C 
ATOM      2  C   LIG A   1      -7.884   3.281 125.162  0.00  0.00    +0.202 C 
ATOM      3  O   LIG A   1      -8.454   3.542 123.944  0.00  0.00    -0.460 OA
ATOM      4  C   LIG A   1      -7.960   2.741 122.859  0.00  0.00    +0.370 C 
ATOM      5  C   LIG A   1      -7.852   1.266 123.255  0.00  0.00    +0.085 C 
ATOM      6  C   LIG A   1      -6.924   1.083 124.479  0.00  0.00    +0.080 C 
ATOM      7  C   LIG A   1      -7.271  -0.371 124.876  0.00  0.00    +0.185 C 
ATOM      8  C   LIG A   1      -8.778  -0.526 124.639  0.00  0.00    +0.049 C 
ATOM      9  C   LIG A   1      -9.184   0.628 123.709  0.00  0.00    +0.000 C 
ATOM     10  C   LIG A   1     -10.064   0.173 122.554  0.00  0.00    +0.008 C 
ENDROOT
BRANCH   1  12
ATOM     11  O   LIG A   1      -6.859   1.648 127.797  0.00  0.00    -0.245 OA
ATOM     12  C   LIG A   1      -6.476   2.251 126.796  0.00  0.00    +0.338 C 
BRANCH  12  13
ATOM     13  O   LIG A   1      -5.409   3.068 126.735  0.00  0.00    -0.465 OA
ATOM     14  C   LIG A   1      -4.160   2.394 126.573  0.00  0.00    +0.280 C 
ENDBRANCH  12  13
ENDBRANCH   1  12
BRANCH   7  15
ATOM     15  O   LIG A   1      -6.647  -1.292 123.946  0.00  0.00    -0.461 OA
BRANCH  15  16
ATOM     16  C   LIG A   1      -5.791  -2.213 124.464  0.00  0.00    +0.304 C 
ATOM     17  C   LIG A   1      -5.127  -2.955 123.343  0.00  0.00    +0.136 C 
ATOM     18  O   LIG A   1      -5.597  -2.417 125.650  0.00  0.00    -0.251 OA
ENDBRANCH  15  16
ENDBRANCH   7  15
BRANCH   4  19
ATOM     19  O   LIG A   1      -6.654   3.170 122.428  0.00  0.00    -0.425 OA
BRANCH  19  20
ATOM     20  C   LIG A   1      -6.608   3.728 121.191  0.00  0.00    +0.307 C 
ATOM     21  C   LIG A   1      -5.184   3.956 120.777  0.00  0.00    +0.136 C 
ATOM     22  O   LIG A   1      -7.571   3.950 120.471  0.00  0.00    -0.251 OA
ENDBRANCH  19  20
ENDBRANCH   4  19
TORSDOF 6
ENDMDL
MODEL 6
REMARK VINA RESULT:      -6.0      1.745      5.542
REMARK  Name = NuBBE_476
REMARK  10 active torsions:
REMARK  status: ('A' for Active; 'I' for Inactive)
REMARK    1  A    between atoms: C_2  and  C_3
REMARK    2  A    between atoms: C_2  and  O_26
REMARK    3  A    between atoms: C_6  and  O_22
REMARK    4  A    between atoms: C_10  and  O_16
REMARK    5  A    between atoms: C_13  and  C_15
REMARK    6  A    between atoms: O_16  and  C_17
REMARK    7  A    between atoms: C_17  and  C_18
REMARK    8  A    between atoms: O_22  and  C_23
REMARK    9  A    between atoms: C_23  and  C_24
REMARK   10  A    between atoms: O_26  and  C_27
REMARK                            x       y       z     vdW  Elec       q    Type
REMARK                         _______ _______ _______ _____ _____    ______ ____
ROOT
ATOM      1  C   LIG A   1      -6.664  -2.081 124.428  0.00  0.00    +0.078 C 
ATOM      2  C   LIG A   1      -6.456  -1.209 123.424  0.00  0.00    +0.202 C 
ATOM      3  O   LIG A   1      -6.840   0.106 123.409  0.00  0.00    -0.460 OA
ATOM      4  C   LIG A   1      -7.807   0.467 124.407  0.00  0.00    +0.370 C 
ATOM      5  C   LIG A   1      -7.446  -0.117 125.776  0.00  0.00    +0.085 C 
ATOM      6  C   LIG A   1      -7.339  -1.659 125.713  0.00  0.00    +0.080 C 
ATOM      7  C   LIG A   1      -6.636  -1.944 127.060  0.00  0.00    +0.185 C 
ATOM      8  C   LIG A   1      -5.628  -0.806 127.260  0.00  0.00    +0.049 C 
ATOM      9  C   LIG A   1      -6.065   0.322 126.313  0.00  0.00    +0.000 C 
ATOM     10  C   LIG A   1      -6.082   1.685 126.987  0.00  0.00    +0.008 C 
ENDROOT
BRANCH   1  12
ATOM     11  O   LIG A   1      -7.019  -4.455 124.471  0.00  0.00    -0.245 OA
ATOM     12  C   LIG A   1      -6.341  -3.495 124.111  0.00  0.00    +0.338 C 
BRANCH  12  13
ATOM     13  O   LIG A   1      -5.200  -3.565 123.402  0.00  0.00    -0.465 OA
ATOM     14  C   LIG A   1      -4.409  -4.724 123.672  0.00  0.00    +0.280 C 
ENDBRANCH  12  13
ENDBRANCH   1  12
BRANCH   7  15
ATOM     15  O   LIG A   1      -7.586  -1.800 128.146  0.00  0.00    -0.461 OA
BRANCH  15  16
ATOM     16  C   LIG A   1      -7.892  -2.920 128.854  0.00  0.00    +0.304 C 
ATOM     17  C   LIG A   1      -8.820  -3.776 128.045  0.00  0.00    +0.136 C 
ATOM     18  O   LIG A   1      -7.491  -3.187 129.973  0.00  0.00    -0.251 OA
ENDBRANCH  15  16
ENDBRANCH   7  15
BRANCH   4  19
ATOM     19  O   LIG A   1      -9.126  -0.003 124.069  0.00  0.00    -0.425 OA
BRANCH  19  20
ATOM     20  C   LIG A   1      -9.819   0.787 123.210  0.00  0.00    +0.307 C 
ATOM     21  C   LIG A   1      -9.296   2.192 123.263  0.00  0.00    +0.136 C 
ATOM     22  O   LIG A   1     -10.693   0.413 122.441  0.00  0.00    -0.251 OA
ENDBRANCH  19  20
ENDBRANCH   4  19
TORSDOF 6
ENDMDL
MODEL 7
REMARK VINA RESULT:      -5.9      2.694      5.337
REMARK  Name = NuBBE_476
REMARK  10 active torsions:
REMARK  status: ('A' for Active; 'I' for Inactive)
REMARK    1  A    between atoms: C_2  and  C_3
REMARK    2  A    between atoms: C_2  and  O_26
REMARK    3  A    between atoms: C_6  and  O_22
REMARK    4  A    between atoms: C_10  and  O_16
REMARK    5  A    between atoms: C_13  and  C_15
REMARK    6  A    between atoms: O_16  and  C_17
REMARK    7  A    between atoms: C_17  and  C_18
REMARK    8  A    between atoms: O_22  and  C_23
REMARK    9  A    between atoms: C_23  and  C_24
REMARK   10  A    between atoms: O_26  and  C_27
REMARK                            x       y       z     vdW  Elec       q    Type
REMARK                         _______ _______ _______ _____ _____    ______ ____
ROOT
ATOM      1  C   LIG A   1      -8.111   1.935 123.552  0.00  0.00    +0.078 C 
ATOM      2  C   LIG A   1      -9.374   1.468 123.567  0.00  0.00    +0.202 C 
ATOM      3  O   LIG A   1      -9.858   0.487 124.391  0.00  0.00    -0.460 OA
ATOM      4  C   LIG A   1      -8.855  -0.300 125.053  0.00  0.00    +0.370 C 
ATOM      5  C   LIG A   1      -7.742   0.579 125.628  0.00  0.00    +0.085 C 
ATOM      6  C   LIG A   1      -7.069   1.423 124.520  0.00  0.00    +0.080 C 
ATOM      7  C   LIG A   1      -6.282   2.437 125.381  0.00  0.00    +0.185 C 
ATOM      8  C   LIG A   1      -7.181   2.761 126.581  0.00  0.00    +0.049 C 
ATOM      9  C   LIG A   1      -8.224   1.635 126.647  0.00  0.00    +0.000 C 
ATOM     10  C   LIG A   1      -8.406   1.082 128.053  0.00  0.00    +0.008 C 
ENDROOT
BRANCH   1  12
ATOM     11  O   LIG A   1      -6.650   3.069 122.022  0.00  0.00    -0.245 OA
ATOM     12  C   LIG A   1      -7.790   2.845 122.424  0.00  0.00    +0.338 C 
BRANCH  12  13
ATOM     13  O   LIG A   1      -8.914   3.395 121.933  0.00  0.00    -0.465 OA
ATOM     14  C   LIG A   1      -8.831   3.783 120.560  0.00  0.00    +0.280 C 
ENDBRANCH  12  13
ENDBRANCH   1  12
BRANCH   7  15
ATOM     15  O   LIG A   1      -5.115   1.791 125.951  0.00  0.00    -0.461 OA
BRANCH  15  16
ATOM     16  C   LIG A   1      -4.317   2.545 126.753  0.00  0.00    +0.304 C 
ATOM     17  C   LIG A   1      -3.818   3.728 125.978  0.00  0.00    +0.136 C 
ATOM     18  O   LIG A   1      -4.038   2.300 127.913  0.00  0.00    -0.251 OA
ENDBRANCH  15  16
ENDBRANCH   7  15
BRANCH   4  19
ATOM     19  O   LIG A   1      -8.241  -1.247 124.158  0.00  0.00    -0.425 OA
BRANCH  19  20
ATOM     20  C   LIG A   1      -8.900  -2.427 124.025  0.00  0.00    +0.307 C 
ATOM     21  C   LIG A   1      -8.326  -3.448 124.963  0.00  0.00    +0.136 C 
ATOM     22  O   LIG A   1      -9.869  -2.629 123.308  0.00  0.00    -0.251 OA
ENDBRANCH  19  20
ENDBRANCH   4  19
TORSDOF 6
ENDMDL
MODEL 8
REMARK VINA RESULT:      -5.9      1.579      2.107
REMARK  Name = NuBBE_476
REMARK  10 active torsions:
REMARK  status: ('A' for Active; 'I' for Inactive)
REMARK    1  A    between atoms: C_2  and  C_3
REMARK    2  A    between atoms: C_2  and  O_26
REMARK    3  A    between atoms: C_6  and  O_22
REMARK    4  A    between atoms: C_10  and  O_16
REMARK    5  A    between atoms: C_13  and  C_15
REMARK    6  A    between atoms: O_16  and  C_17
REMARK    7  A    between atoms: C_17  and  C_18
REMARK    8  A    between atoms: O_22  and  C_23
REMARK    9  A    between atoms: C_23  and  C_24
REMARK   10  A    between atoms: O_26  and  C_27
REMARK                            x       y       z     vdW  Elec       q    Type
REMARK                         _______ _______ _______ _____ _____    ______ ____
ROOT
ATOM      1  C   LIG A   1      -6.373   0.547 126.164  0.00  0.00    +0.078 C 
ATOM      2  C   LIG A   1      -5.515  -0.119 126.960  0.00  0.00    +0.202 C 
ATOM      3  O   LIG A   1      -5.546  -1.462 127.229  0.00  0.00    -0.460 OA
ATOM      4  C   LIG A   1      -6.773  -2.122 126.882  0.00  0.00    +0.370 C 
ATOM      5  C   LIG A   1      -7.266  -1.698 125.496  0.00  0.00    +0.085 C 
ATOM      6  C   LIG A   1      -7.481  -0.168 125.424  0.00  0.00    +0.080 C 
ATOM      7  C   LIG A   1      -7.610   0.024 123.896  0.00  0.00    +0.185 C 
ATOM      8  C   LIG A   1      -6.610  -0.950 123.261  0.00  0.00    +0.049 C 
ATOM      9  C   LIG A   1      -6.269  -1.980 124.350  0.00  0.00    +0.000 C 
ATOM     10  C   LIG A   1      -6.317  -3.413 123.841  0.00  0.00    +0.008 C 
ENDROOT
BRANCH   1  12
ATOM     11  O   LIG A   1      -5.187   2.634 126.126  0.00  0.00    -0.245 OA
ATOM     12  C   LIG A   1      -6.253   2.026 126.206  0.00  0.00    +0.338 C 
BRANCH  12  13
ATOM     13  O   LIG A   1      -7.464   2.588 126.367  0.00  0.00    -0.465 OA
ATOM     14  C   LIG A   1      -7.789   2.912 127.721  0.00  0.00    +0.280 C 
ENDBRANCH  12  13
ENDBRANCH   1  12
BRANCH   7  15
ATOM     15  O   LIG A   1      -8.913  -0.435 123.455  0.00  0.00    -0.461 OA
BRANCH  15  16
ATOM     16  C   LIG A   1      -9.761   0.499 122.948  0.00  0.00    +0.304 C 
ATOM     17  C   LIG A   1      -9.089   1.840 122.975  0.00  0.00    +0.136 C 
ATOM     18  O   LIG A   1     -10.891   0.291 122.544  0.00  0.00    -0.251 OA
ENDBRANCH  15  16
ENDBRANCH   7  15
BRANCH   4  19
ATOM     19  O   LIG A   1      -7.823  -1.830 127.824  0.00  0.00    -0.425 OA
BRANCH  19  20
ATOM     20  C   LIG A   1      -8.129  -2.839 128.679  0.00  0.00    +0.307 C 
ATOM     21  C   LIG A   1      -8.881  -3.920 127.958  0.00  0.00    +0.136 C 
ATOM     22  O   LIG A   1      -7.787  -2.912 129.850  0.00  0.00    -0.251 OA
ENDBRANCH  19  20
ENDBRANCH   4  19
TORSDOF 6
ENDMDL
MODEL 9
REMARK VINA RESULT:      -5.9      7.625      9.657
REMARK  Name = NuBBE_476
REMARK  10 active torsions:
REMARK  status: ('A' for Active; 'I' for Inactive)
REMARK    1  A    between atoms: C_2  and  C_3
REMARK    2  A    between atoms: C_2  and  O_26
REMARK    3  A    between atoms: C_6  and  O_22
REMARK    4  A    between atoms: C_10  and  O_16
REMARK    5  A    between atoms: C_13  and  C_15
REMARK    6  A    between atoms: O_16  and  C_17
REMARK    7  A    between atoms: C_17  and  C_18
REMARK    8  A    between atoms: O_22  and  C_23
REMARK    9  A    between atoms: C_23  and  C_24
REMARK   10  A    between atoms: O_26  and  C_27
REMARK                            x       y       z     vdW  Elec       q    Type
REMARK                         _______ _______ _______ _____ _____    ______ ____
ROOT
ATOM      1  C   LIG A   1      -7.822   6.122 131.343  0.00  0.00    +0.078 C 
ATOM      2  C   LIG A   1      -8.446   6.342 132.516  0.00  0.00    +0.202 C 
ATOM      3  O   LIG A   1      -9.732   5.984 132.822  0.00  0.00    -0.460 OA
ATOM      4  C   LIG A   1     -10.550   5.637 131.694  0.00  0.00    +0.370 C 
ATOM      5  C   LIG A   1      -9.805   4.719 130.721  0.00  0.00    +0.085 C 
ATOM      6  C   LIG A   1      -8.504   5.384 130.213  0.00  0.00    +0.080 C 
ATOM      7  C   LIG A   1      -7.798   4.165 129.578  0.00  0.00    +0.185 C 
ATOM      8  C   LIG A   1      -8.108   2.973 130.492  0.00  0.00    +0.049 C 
ATOM      9  C   LIG A   1      -9.317   3.392 131.342  0.00  0.00    +0.000 C 
ATOM     10  C   LIG A   1     -10.394   2.319 131.405  0.00  0.00    +0.008 C 
ENDROOT
BRANCH   1  12
ATOM     11  O   LIG A   1      -6.253   7.626 130.325  0.00  0.00    -0.245 OA
ATOM     12  C   LIG A   1      -6.507   6.794 131.193  0.00  0.00    +0.338 C 
BRANCH  12  13
ATOM     13  O   LIG A   1      -5.644   6.343 132.121  0.00  0.00    -0.465 OA
ATOM     14  C   LIG A   1      -4.786   5.294 131.668  0.00  0.00    +0.280 C 
ENDBRANCH  12  13
ENDBRANCH   1  12
BRANCH   7  15
ATOM     15  O   LIG A   1      -8.427   3.842 128.312  0.00  0.00    -0.461 OA
BRANCH  15  16
ATOM     16  C   LIG A   1      -7.872   4.372 127.190  0.00  0.00    +0.304 C 
ATOM     17  C   LIG A   1      -6.457   3.890 127.066  0.00  0.00    +0.136 C 
ATOM     18  O   LIG A   1      -8.424   5.129 126.411  0.00  0.00    -0.251 OA
ENDBRANCH  15  16
ENDBRANCH   7  15
BRANCH   4  19
ATOM     19  O   LIG A   1     -10.968   6.803 130.957  0.00  0.00    -0.425 OA
BRANCH  19  20
ATOM     20  C   LIG A   1     -12.305   6.907 130.751  0.00  0.00    +0.307 C 
ATOM     21  C   LIG A   1     -12.637   6.577 129.325  0.00  0.00    +0.136 C 
ATOM     22  O   LIG A   1     -13.143   7.159 131.605  0.00  0.00    -0.251 OA
ENDBRANCH  19  20
ENDBRANCH   4  19
TORSDOF 6
ENDMDL
