MODEL 1
REMARK VINA RESULT:      -9.3      0.000      0.000
REMARK  Name = NuBBE_1148
REMARK  13 active torsions:
REMARK  status: ('A' for Active; 'I' for Inactive)
REMARK    1  A    between atoms: C_1  and  C_2
REMARK    2  A    between atoms: C_6  and  C_28
REMARK    3  A    between atoms: C_7  and  C_8
REMARK    4  A    between atoms: C_9  and  C_11
REMARK    5  A    between atoms: C_11  and  C_13
REMARK    6  A    between atoms: C_11  and  C_14
REMARK    7  A    between atoms: C_14  and  C_15
REMARK    8  A    between atoms: C_15  and  O_17
REMARK    9  A    between atoms: C_15  and  C_18
REMARK   10  A    between atoms: C_21  and  C_22
REMARK   11  A    between atoms: C_21  and  C_23
REMARK   12  A    between atoms: C_33  and  C_34
REMARK   13  A    between atoms: C_33  and  C_39
REMARK                            x       y       z     vdW  Elec       q    Type
REMARK                         _______ _______ _______ _____ _____    ______ ____
ROOT
ATOM      1  C   LIG A   1      -7.749  -2.912 128.444  0.00  0.00    +0.012 C 
ATOM      2  C   LIG A   1      -6.625  -2.837 129.542  0.00  0.00    -0.021 C 
ATOM      3  C   LIG A   1      -6.981  -1.581 130.414  0.00  0.00    +0.021 C 
ATOM      4  C   LIG A   1      -6.521  -0.276 129.813  0.00  0.00    -0.063 C 
ATOM      5  C   LIG A   1      -7.185   0.979 130.402  0.00  0.00    -0.005 C 
ATOM      6  C   LIG A   1      -7.838   0.772 131.835  0.00  0.00    -0.020 C 
ATOM      7  C   LIG A   1      -9.261   0.192 131.945  0.00  0.00    +0.012 C 
ATOM      8  C   LIG A   1      -7.803   2.200 132.513  0.00  0.00    -0.001 C 
ATOM      9  C   LIG A   1      -6.534   2.845 131.945  0.00  0.00    +0.005 C 
ATOM     10  C   LIG A   1      -6.121   2.074 130.687  0.00  0.00    +0.012 C 
ATOM     11  C   LIG A   1      -6.877  -0.210 132.611  0.00  0.00    +0.008 C 
ATOM     12  C   LIG A   1      -6.666  -1.584 131.923  0.00  0.00    +0.009 C 
ATOM     13  C   LIG A   1      -8.142   1.416 129.277  0.00  0.00    +0.016 C 
ATOM     14  C   LIG A   1      -5.696  -0.215 128.746  0.00  0.00    -0.026 C 
ATOM     15  C   LIG A   1      -5.183  -1.404 128.000  0.00  0.00    +0.032 C 
ATOM     16  C   LIG A   1      -5.243  -2.703 128.824  0.00  0.00    +0.012 C 
ATOM     17  C   LIG A   1      -3.974  -2.908 129.723  0.00  0.00    +0.027 C 
ATOM     18  C   LIG A   1      -3.291  -1.611 130.219  0.00  0.00    +0.019 C 
ATOM     19  C   LIG A   1      -4.284  -3.762 130.957  0.00  0.00    +0.139 C 
ATOM     20  C   LIG A   1      -5.435  -4.730 130.887  0.00  0.00    +0.075 C 
ATOM     21  C   LIG A   1      -6.723  -4.173 130.310  0.00  0.00    +0.015 C 
ATOM     22  O   LIG A   1      -3.552  -3.770 131.938  0.00  0.00    -0.297 OA
ATOM     23  C   LIG A   1      -2.923  -3.680 128.895  0.00  0.00    +0.019 C 
ENDROOT
BRANCH   8  24
ATOM     24  C   LIG A   1      -9.088   3.142 132.514  0.00  0.00    -0.008 C 
ATOM     25  C   LIG A   1      -9.247   3.820 133.885  0.00  0.00    +0.008 C 
BRANCH  24  26
ATOM     26  C   LIG A   1      -9.173   4.212 131.409  0.00  0.00    +0.037 C 
BRANCH  26  27
ATOM     27  C   LIG A   1     -10.348   4.140 130.410  0.00  0.00    +0.146 C 
BRANCH  27  28
ATOM     28  C   LIG A   1     -11.268   5.318 130.542  0.00  0.00    +0.179 C 
ATOM     29  O   LIG A   1     -12.157   5.491 129.418  0.00  0.00    -0.363 OA
ATOM     30  C   LIG A   1     -11.265   6.581 129.686  0.00  0.00    +0.093 C 
ATOM     31  C   LIG A   1     -11.927   7.793 130.269  0.00  0.00    +0.044 C 
ATOM     32  C   LIG A   1     -10.305   6.836 128.566  0.00  0.00    +0.044 C 
ENDBRANCH  27  28
BRANCH  27  33
ATOM     33  O   LIG A   1     -11.100   2.967 130.764  0.00  0.00    -0.389 OA
ATOM     34  H   LIG A   1     -11.153   2.428 129.952  0.00  0.00    +0.210 HD
ENDBRANCH  27  33
ENDBRANCH  26  27
ENDBRANCH  24  26
ENDBRANCH   8  24
TORSDOF 5
ENDMDL
MODEL 2
REMARK VINA RESULT:      -8.9      4.773      8.252
REMARK  Name = NuBBE_1148
REMARK  13 active torsions:
REMARK  status: ('A' for Active; 'I' for Inactive)
REMARK    1  A    between atoms: C_1  and  C_2
REMARK    2  A    between atoms: C_6  and  C_28
REMARK    3  A    between atoms: C_7  and  C_8
REMARK    4  A    between atoms: C_9  and  C_11
REMARK    5  A    between atoms: C_11  and  C_13
REMARK    6  A    between atoms: C_11  and  C_14
REMARK    7  A    between atoms: C_14  and  C_15
REMARK    8  A    between atoms: C_15  and  O_17
REMARK    9  A    between atoms: C_15  and  C_18
REMARK   10  A    between atoms: C_21  and  C_22
REMARK   11  A    between atoms: C_21  and  C_23
REMARK   12  A    between atoms: C_33  and  C_34
REMARK   13  A    between atoms: C_33  and  C_39
REMARK                            x       y       z     vdW  Elec       q    Type
REMARK                         _______ _______ _______ _____ _____    ______ ____
ROOT
ATOM      1  C   LIG A   1      -4.063   1.884 130.137  0.00  0.00    +0.012 C 
ATOM      2  C   LIG A   1      -4.533   3.343 129.777  0.00  0.00    -0.021 C 
ATOM      3  C   LIG A   1      -5.571   3.168 128.613  0.00  0.00    +0.021 C 
ATOM      4  C   LIG A   1      -4.936   3.007 127.254  0.00  0.00    -0.063 C 
ATOM      5  C   LIG A   1      -5.864   2.436 126.168  0.00  0.00    -0.005 C 
ATOM      6  C   LIG A   1      -7.414   2.579 126.480  0.00  0.00    -0.020 C 
ATOM      7  C   LIG A   1      -8.111   1.529 127.367  0.00  0.00    +0.012 C 
ATOM      8  C   LIG A   1      -8.118   2.615 125.064  0.00  0.00    -0.001 C 
ATOM      9  C   LIG A   1      -7.089   3.307 124.162  0.00  0.00    +0.005 C 
ATOM     10  C   LIG A   1      -5.723   3.250 124.852  0.00  0.00    +0.012 C 
ATOM     11  C   LIG A   1      -7.586   3.975 127.196  0.00  0.00    +0.008 C 
ATOM     12  C   LIG A   1      -6.766   4.135 128.504  0.00  0.00    +0.009 C 
ATOM     13  C   LIG A   1      -5.336   1.000 125.992  0.00  0.00    +0.016 C 
ATOM     14  C   LIG A   1      -3.620   3.212 127.035  0.00  0.00    -0.026 C 
ATOM     15  C   LIG A   1      -2.627   3.565 128.095  0.00  0.00    +0.032 C 
ATOM     16  C   LIG A   1      -3.279   4.173 129.351  0.00  0.00    +0.012 C 
ATOM     17  C   LIG A   1      -3.483   5.724 129.237  0.00  0.00    +0.027 C 
ATOM     18  C   LIG A   1      -3.720   6.261 127.805  0.00  0.00    +0.019 C 
ATOM     19  C   LIG A   1      -4.649   6.209 130.105  0.00  0.00    +0.139 C 
ATOM     20  C   LIG A   1      -5.030   5.393 131.312  0.00  0.00    +0.075 C 
ATOM     21  C   LIG A   1      -5.149   3.898 131.079  0.00  0.00    +0.015 C 
ATOM     22  O   LIG A   1      -5.186   7.293 129.920  0.00  0.00    -0.297 OA
ATOM     23  C   LIG A   1      -2.208   6.413 129.771  0.00  0.00    +0.019 C 
ENDROOT
BRANCH   8  24
ATOM     24  C   LIG A   1      -8.778   1.306 124.441  0.00  0.00    -0.008 C 
ATOM     25  C   LIG A   1     -10.273   1.547 124.169  0.00  0.00    +0.008 C 
BRANCH  24  26
ATOM     26  C   LIG A   1      -8.122   0.724 123.175  0.00  0.00    +0.037 C 
BRANCH  26  27
ATOM     27  C   LIG A   1      -7.872  -0.798 123.115  0.00  0.00    +0.146 C 
BRANCH  27  28
ATOM     28  C   LIG A   1      -8.126  -1.460 124.437  0.00  0.00    +0.179 C 
ATOM     29  O   LIG A   1      -7.513  -2.759 124.566  0.00  0.00    -0.363 OA
ATOM     30  C   LIG A   1      -8.941  -2.726 124.684  0.00  0.00    +0.093 C 
ATOM     31  C   LIG A   1      -9.451  -2.939 126.078  0.00  0.00    +0.044 C 
ATOM     32  C   LIG A   1      -9.632  -3.505 123.609  0.00  0.00    +0.044 C 
ENDBRANCH  27  28
BRANCH  27  33
ATOM     33  O   LIG A   1      -6.476  -0.961 122.816  0.00  0.00    -0.389 OA
ATOM     34  H   LIG A   1      -6.007  -0.295 123.354  0.00  0.00    +0.210 HD
ENDBRANCH  27  33
ENDBRANCH  26  27
ENDBRANCH  24  26
ENDBRANCH   8  24
TORSDOF 5
ENDMDL
MODEL 3
REMARK VINA RESULT:      -8.8      3.754      6.366
REMARK  Name = NuBBE_1148
REMARK  13 active torsions:
REMARK  status: ('A' for Active; 'I' for Inactive)
REMARK    1  A    between atoms: C_1  and  C_2
REMARK    2  A    between atoms: C_6  and  C_28
REMARK    3  A    between atoms: C_7  and  C_8
REMARK    4  A    between atoms: C_9  and  C_11
REMARK    5  A    between atoms: C_11  and  C_13
REMARK    6  A    between atoms: C_11  and  C_14
REMARK    7  A    between atoms: C_14  and  C_15
REMARK    8  A    between atoms: C_15  and  O_17
REMARK    9  A    between atoms: C_15  and  C_18
REMARK   10  A    between atoms: C_21  and  C_22
REMARK   11  A    between atoms: C_21  and  C_23
REMARK   12  A    between atoms: C_33  and  C_34
REMARK   13  A    between atoms: C_33  and  C_39
REMARK                            x       y       z     vdW  Elec       q    Type
REMARK                         _______ _______ _______ _____ _____    ______ ____
ROOT
ATOM      1  C   LIG A   1      -5.795   1.161 130.581  0.00  0.00    +0.012 C 
ATOM      2  C   LIG A   1      -5.429  -0.368 130.520  0.00  0.00    -0.021 C 
ATOM      3  C   LIG A   1      -5.729  -0.807 129.042  0.00  0.00    +0.021 C 
ATOM      4  C   LIG A   1      -7.183  -1.115 128.785  0.00  0.00    -0.063 C 
ATOM      5  C   LIG A   1      -7.587  -1.148 127.302  0.00  0.00    -0.005 C 
ATOM      6  C   LIG A   1      -6.380  -1.357 126.292  0.00  0.00    -0.020 C 
ATOM      7  C   LIG A   1      -5.542  -0.143 125.847  0.00  0.00    +0.012 C 
ATOM      8  C   LIG A   1      -7.021  -2.043 125.020  0.00  0.00    -0.001 C 
ATOM      9  C   LIG A   1      -8.158  -2.894 125.596  0.00  0.00    +0.005 C 
ATOM     10  C   LIG A   1      -8.473  -2.390 127.008  0.00  0.00    +0.012 C 
ATOM     11  C   LIG A   1      -5.392  -2.365 126.999  0.00  0.00    +0.008 C 
ATOM     12  C   LIG A   1      -4.855  -1.886 128.373  0.00  0.00    +0.009 C 
ATOM     13  C   LIG A   1      -8.389   0.157 127.140  0.00  0.00    +0.016 C 
ATOM     14  C   LIG A   1      -8.094  -1.216 129.777  0.00  0.00    -0.026 C 
ATOM     15  C   LIG A   1      -7.802  -0.987 131.225  0.00  0.00    +0.032 C 
ATOM     16  C   LIG A   1      -6.307  -1.127 131.566  0.00  0.00    +0.012 C 
ATOM     17  C   LIG A   1      -5.893  -2.609 131.872  0.00  0.00    +0.027 C 
ATOM     18  C   LIG A   1      -6.706  -3.696 131.128  0.00  0.00    +0.019 C 
ATOM     19  C   LIG A   1      -4.412  -2.859 131.568  0.00  0.00    +0.139 C 
ATOM     20  C   LIG A   1      -3.464  -1.690 131.616  0.00  0.00    +0.075 C 
ATOM     21  C   LIG A   1      -3.934  -0.439 130.896  0.00  0.00    +0.015 C 
ATOM     22  O   LIG A   1      -3.965  -3.988 131.417  0.00  0.00    -0.297 OA
ATOM     23  C   LIG A   1      -6.089  -2.857 133.384  0.00  0.00    +0.019 C 
ENDROOT
BRANCH   8  24
ATOM     24  C   LIG A   1      -7.415  -1.187 123.735  0.00  0.00    -0.008 C 
ATOM     25  C   LIG A   1      -6.739  -1.772 122.483  0.00  0.00    +0.008 C 
BRANCH  24  26
ATOM     26  C   LIG A   1      -8.917  -0.992 123.454  0.00  0.00    +0.037 C 
BRANCH  26  27
ATOM     27  C   LIG A   1      -9.376   0.338 122.821  0.00  0.00    +0.146 C 
BRANCH  27  28
ATOM     28  C   LIG A   1      -9.208   1.494 123.763  0.00  0.00    +0.179 C 
ATOM     29  O   LIG A   1      -9.246   2.783 123.117  0.00  0.00    -0.363 OA
ATOM     30  C   LIG A   1      -8.035   2.469 123.815  0.00  0.00    +0.093 C 
ATOM     31  C   LIG A   1      -7.843   3.227 125.094  0.00  0.00    +0.044 C 
ATOM     32  C   LIG A   1      -6.843   2.399 122.911  0.00  0.00    +0.044 C 
ENDBRANCH  27  28
BRANCH  27  33
ATOM     33  O   LIG A   1     -10.783   0.194 122.568  0.00  0.00    -0.389 OA
ATOM     34  H   LIG A   1     -10.973  -0.760 122.642  0.00  0.00    +0.210 HD
ENDBRANCH  27  33
ENDBRANCH  26  27
ENDBRANCH  24  26
ENDBRANCH   8  24
TORSDOF 5
ENDMDL
MODEL 4
REMARK VINA RESULT:      -8.3      1.596      2.579
REMARK  Name = NuBBE_1148
REMARK  13 active torsions:
REMARK  status: ('A' for Active; 'I' for Inactive)
REMARK    1  A    between atoms: C_1  and  C_2
REMARK    2  A    between atoms: C_6  and  C_28
REMARK    3  A    between atoms: C_7  and  C_8
REMARK    4  A    between atoms: C_9  and  C_11
REMARK    5  A    between atoms: C_11  and  C_13
REMARK    6  A    between atoms: C_11  and  C_14
REMARK    7  A    between atoms: C_14  and  C_15
REMARK    8  A    between atoms: C_15  and  O_17
REMARK    9  A    between atoms: C_15  and  C_18
REMARK   10  A    between atoms: C_21  and  C_22
REMARK   11  A    between atoms: C_21  and  C_23
REMARK   12  A    between atoms: C_33  and  C_34
REMARK   13  A    between atoms: C_33  and  C_39
REMARK                            x       y       z     vdW  Elec       q    Type
REMARK                         _______ _______ _______ _____ _____    ______ ____
ROOT
ATOM      1  C   LIG A   1      -7.991  -2.550 133.667  0.00  0.00    +0.012 C 
ATOM      2  C   LIG A   1      -6.667  -2.286 132.859  0.00  0.00    -0.021 C 
ATOM      3  C   LIG A   1      -6.707  -0.762 132.484  0.00  0.00    +0.021 C 
ATOM      4  C   LIG A   1      -7.544  -0.460 131.266  0.00  0.00    -0.063 C 
ATOM      5  C   LIG A   1      -7.942   1.016 131.102  0.00  0.00    -0.005 C 
ATOM      6  C   LIG A   1      -7.033   2.040 131.906  0.00  0.00    -0.020 C 
ATOM      7  C   LIG A   1      -7.331   2.316 133.392  0.00  0.00    +0.012 C 
ATOM      8  C   LIG A   1      -7.123   3.395 131.096  0.00  0.00    -0.001 C 
ATOM      9  C   LIG A   1      -7.279   2.941 129.640  0.00  0.00    +0.005 C 
ATOM     10  C   LIG A   1      -7.726   1.476 129.634  0.00  0.00    +0.012 C 
ATOM     11  C   LIG A   1      -5.563   1.469 131.828  0.00  0.00    +0.008 C 
ATOM     12  C   LIG A   1      -5.394   0.041 132.410  0.00  0.00    +0.009 C 
ATOM     13  C   LIG A   1      -9.438   1.006 131.467  0.00  0.00    +0.016 C 
ATOM     14  C   LIG A   1      -8.028  -1.426 130.456  0.00  0.00    -0.026 C 
ATOM     15  C   LIG A   1      -7.849  -2.892 130.681  0.00  0.00    +0.032 C 
ATOM     16  C   LIG A   1      -6.662  -3.218 131.605  0.00  0.00    +0.012 C 
ATOM     17  C   LIG A   1      -5.303  -3.325 130.829  0.00  0.00    +0.027 C 
ATOM     18  C   LIG A   1      -5.185  -2.440 129.565  0.00  0.00    +0.019 C 
ATOM     19  C   LIG A   1      -4.107  -2.997 131.729  0.00  0.00    +0.139 C 
ATOM     20  C   LIG A   1      -4.251  -3.204 133.214  0.00  0.00    +0.075 C 
ATOM     21  C   LIG A   1      -5.524  -2.656 133.829  0.00  0.00    +0.015 C 
ATOM     22  O   LIG A   1      -3.013  -2.699 131.268  0.00  0.00    -0.297 OA
ATOM     23  C   LIG A   1      -5.130  -4.790 130.369  0.00  0.00    +0.019 C 
ENDROOT
BRANCH   8  24
ATOM     24  C   LIG A   1      -8.118   4.556 131.544  0.00  0.00    -0.008 C 
ATOM     25  C   LIG A   1      -7.379   5.905 131.570  0.00  0.00    +0.008 C 
BRANCH  24  26
ATOM     26  C   LIG A   1      -9.423   4.710 130.740  0.00  0.00    +0.037 C 
BRANCH  26  27
ATOM     27  C   LIG A   1      -9.554   5.913 129.783  0.00  0.00    +0.146 C 
BRANCH  27  28
ATOM     28  C   LIG A   1     -10.960   6.436 129.729  0.00  0.00    +0.179 C 
ATOM     29  O   LIG A   1     -11.519   6.468 128.400  0.00  0.00    -0.363 OA
ATOM     30  C   LIG A   1     -11.430   7.730 129.072  0.00  0.00    +0.093 C 
ATOM     31  C   LIG A   1     -12.746   8.281 129.532  0.00  0.00    +0.044 C 
ATOM     32  C   LIG A   1     -10.524   8.698 128.377  0.00  0.00    +0.044 C 
ENDBRANCH  27  28
BRANCH  27  33
ATOM     33  O   LIG A   1      -9.232   5.417 128.473  0.00  0.00    -0.389 OA
ATOM     34  H   LIG A   1      -8.763   4.573 128.613  0.00  0.00    +0.210 HD
ENDBRANCH  27  33
ENDBRANCH  26  27
ENDBRANCH  24  26
ENDBRANCH   8  24
TORSDOF 5
ENDMDL
MODEL 5
REMARK VINA RESULT:      -8.3      4.606      7.574
REMARK  Name = NuBBE_1148
REMARK  13 active torsions:
REMARK  status: ('A' for Active; 'I' for Inactive)
REMARK    1  A    between atoms: C_1  and  C_2
REMARK    2  A    between atoms: C_6  and  C_28
REMARK    3  A    between atoms: C_7  and  C_8
REMARK    4  A    between atoms: C_9  and  C_11
REMARK    5  A    between atoms: C_11  and  C_13
REMARK    6  A    between atoms: C_11  and  C_14
REMARK    7  A    between atoms: C_14  and  C_15
REMARK    8  A    between atoms: C_15  and  O_17
REMARK    9  A    between atoms: C_15  and  C_18
REMARK   10  A    between atoms: C_21  and  C_22
REMARK   11  A    between atoms: C_21  and  C_23
REMARK   12  A    between atoms: C_33  and  C_34
REMARK   13  A    between atoms: C_33  and  C_39
REMARK                            x       y       z     vdW  Elec       q    Type
REMARK                         _______ _______ _______ _____ _____    ______ ____
ROOT
ATOM      1  C   LIG A   1      -7.639   0.955 126.793  0.00  0.00    +0.012 C 
ATOM      2  C   LIG A   1      -7.772  -0.527 126.280  0.00  0.00    -0.021 C 
ATOM      3  C   LIG A   1      -7.502  -1.426 127.538  0.00  0.00    +0.021 C 
ATOM      4  C   LIG A   1      -6.037  -1.630 127.835  0.00  0.00    -0.063 C 
ATOM      5  C   LIG A   1      -5.727  -2.143 129.250  0.00  0.00    -0.005 C 
ATOM      6  C   LIG A   1      -6.950  -2.844 129.983  0.00  0.00    -0.020 C 
ATOM      7  C   LIG A   1      -7.989  -1.980 130.723  0.00  0.00    +0.012 C 
ATOM      8  C   LIG A   1      -6.293  -3.858 131.003  0.00  0.00    -0.001 C 
ATOM      9  C   LIG A   1      -5.006  -4.303 130.299  0.00  0.00    +0.005 C 
ATOM     10  C   LIG A   1      -4.683  -3.292 129.194  0.00  0.00    +0.012 C 
ATOM     11  C   LIG A   1      -7.726  -3.642 128.863  0.00  0.00    +0.008 C 
ATOM     12  C   LIG A   1      -8.242  -2.769 127.689  0.00  0.00    +0.009 C 
ATOM     13  C   LIG A   1      -5.145  -0.897 129.943  0.00  0.00    +0.016 C 
ATOM     14  C   LIG A   1      -5.061  -1.258 126.979  0.00  0.00    -0.026 C 
ATOM     15  C   LIG A   1      -5.292  -0.563 125.677  0.00  0.00    +0.032 C 
ATOM     16  C   LIG A   1      -6.724  -0.749 125.142  0.00  0.00    +0.012 C 
ATOM     17  C   LIG A   1      -6.888  -2.061 124.297  0.00  0.00    +0.027 C 
ATOM     18  C   LIG A   1      -5.968  -3.236 124.705  0.00  0.00    +0.019 C 
ATOM     19  C   LIG A   1      -8.331  -2.579 124.327  0.00  0.00    +0.139 C 
ATOM     20  C   LIG A   1      -9.440  -1.592 124.580  0.00  0.00    +0.075 C 
ATOM     21  C   LIG A   1      -9.212  -0.636 125.736  0.00  0.00    +0.015 C 
ATOM     22  O   LIG A   1      -8.610  -3.732 124.026  0.00  0.00    -0.297 OA
ATOM     23  C   LIG A   1      -6.562  -1.725 122.825  0.00  0.00    +0.019 C 
ENDROOT
BRANCH   8  24
ATOM     24  C   LIG A   1      -6.116  -3.479 132.540  0.00  0.00    -0.008 C 
ATOM     25  C   LIG A   1      -7.470  -3.565 133.265  0.00  0.00    +0.008 C 
BRANCH  24  26
ATOM     26  C   LIG A   1      -5.064  -4.268 133.340  0.00  0.00    +0.037 C 
BRANCH  26  27
ATOM     27  C   LIG A   1      -3.712  -3.587 133.642  0.00  0.00    +0.146 C 
BRANCH  27  28
ATOM     28  C   LIG A   1      -3.676  -2.171 133.147  0.00  0.00    +0.179 C 
ATOM     29  O   LIG A   1      -2.615  -1.909 132.206  0.00  0.00    -0.363 OA
ATOM     30  C   LIG A   1      -2.586  -1.137 133.413  0.00  0.00    +0.093 C 
ATOM     31  C   LIG A   1      -2.964   0.303 133.236  0.00  0.00    +0.044 C 
ATOM     32  C   LIG A   1      -1.365  -1.395 134.240  0.00  0.00    +0.044 C 
ENDBRANCH  27  28
BRANCH  27  33
ATOM     33  O   LIG A   1      -2.722  -4.323 132.904  0.00  0.00    -0.389 OA
ATOM     34  H   LIG A   1      -3.216  -4.954 132.347  0.00  0.00    +0.210 HD
ENDBRANCH  27  33
ENDBRANCH  26  27
ENDBRANCH  24  26
ENDBRANCH   8  24
TORSDOF 5
ENDMDL
MODEL 6
REMARK VINA RESULT:      -8.3      3.409      6.302
REMARK  Name = NuBBE_1148
REMARK  13 active torsions:
REMARK  status: ('A' for Active; 'I' for Inactive)
REMARK    1  A    between atoms: C_1  and  C_2
REMARK    2  A    between atoms: C_6  and  C_28
REMARK    3  A    between atoms: C_7  and  C_8
REMARK    4  A    between atoms: C_9  and  C_11
REMARK    5  A    between atoms: C_11  and  C_13
REMARK    6  A    between atoms: C_11  and  C_14
REMARK    7  A    between atoms: C_14  and  C_15
REMARK    8  A    between atoms: C_15  and  O_17
REMARK    9  A    between atoms: C_15  and  C_18
REMARK   10  A    between atoms: C_21  and  C_22
REMARK   11  A    between atoms: C_21  and  C_23
REMARK   12  A    between atoms: C_33  and  C_34
REMARK   13  A    between atoms: C_33  and  C_39
REMARK                            x       y       z     vdW  Elec       q    Type
REMARK                         _______ _______ _______ _____ _____    ______ ____
ROOT
ATOM      1  C   LIG A   1      -7.968   0.984 126.737  0.00  0.00    +0.012 C 
ATOM      2  C   LIG A   1      -7.935  -0.485 126.171  0.00  0.00    -0.021 C 
ATOM      3  C   LIG A   1      -7.669  -1.402 127.417  0.00  0.00    +0.021 C 
ATOM      4  C   LIG A   1      -6.214  -1.489 127.807  0.00  0.00    -0.063 C 
ATOM      5  C   LIG A   1      -5.953  -2.025 129.224  0.00  0.00    -0.005 C 
ATOM      6  C   LIG A   1      -7.154  -2.854 129.850  0.00  0.00    -0.020 C 
ATOM      7  C   LIG A   1      -8.311  -2.111 130.543  0.00  0.00    +0.012 C 
ATOM      8  C   LIG A   1      -6.478  -3.844 130.881  0.00  0.00    -0.001 C 
ATOM      9  C   LIG A   1      -5.113  -4.151 130.253  0.00  0.00    +0.005 C 
ATOM     10  C   LIG A   1      -4.810  -3.077 129.204  0.00  0.00    +0.012 C 
ATOM     11  C   LIG A   1      -7.782  -3.676 128.657  0.00  0.00    +0.008 C 
ATOM     12  C   LIG A   1      -8.295  -2.809 127.477  0.00  0.00    +0.009 C 
ATOM     13  C   LIG A   1      -5.529  -0.759 129.992  0.00  0.00    +0.016 C 
ATOM     14  C   LIG A   1      -5.222  -1.004 127.031  0.00  0.00    -0.026 C 
ATOM     15  C   LIG A   1      -5.428  -0.284 125.737  0.00  0.00    +0.032 C 
ATOM     16  C   LIG A   1      -6.800  -0.574 125.101  0.00  0.00    +0.012 C 
ATOM     17  C   LIG A   1      -6.792  -1.864 124.208  0.00  0.00    +0.027 C 
ATOM     18  C   LIG A   1      -5.799  -2.969 124.642  0.00  0.00    +0.019 C 
ATOM     19  C   LIG A   1      -8.181  -2.505 124.124  0.00  0.00    +0.139 C 
ATOM     20  C   LIG A   1      -9.388  -1.628 124.331  0.00  0.00    +0.075 C 
ATOM     21  C   LIG A   1      -9.322  -0.698 125.528  0.00  0.00    +0.015 C 
ATOM     22  O   LIG A   1      -8.337  -3.667 123.770  0.00  0.00    -0.297 OA
ATOM     23  C   LIG A   1      -6.401  -1.448 122.772  0.00  0.00    +0.019 C 
ENDROOT
BRANCH   8  24
ATOM     24  C   LIG A   1      -6.435  -3.507 132.437  0.00  0.00    -0.008 C 
ATOM     25  C   LIG A   1      -5.796  -4.671 133.213  0.00  0.00    +0.008 C 
BRANCH  24  26
ATOM     26  C   LIG A   1      -5.754  -2.189 132.851  0.00  0.00    +0.037 C 
BRANCH  26  27
ATOM     27  C   LIG A   1      -6.585  -1.150 133.633  0.00  0.00    +0.146 C 
BRANCH  27  28
ATOM     28  C   LIG A   1      -6.077   0.247 133.423  0.00  0.00    +0.179 C 
ATOM     29  O   LIG A   1      -6.791   1.246 134.179  0.00  0.00    -0.363 OA
ATOM     30  C   LIG A   1      -6.820   1.400 132.754  0.00  0.00    +0.093 C 
ATOM     31  C   LIG A   1      -5.984   2.531 132.236  0.00  0.00    +0.044 C 
ATOM     32  C   LIG A   1      -8.201   1.293 132.186  0.00  0.00    +0.044 C 
ENDBRANCH  27  28
BRANCH  27  33
ATOM     33  O   LIG A   1      -6.410  -1.464 135.024  0.00  0.00    -0.389 OA
ATOM     34  H   LIG A   1      -6.674  -0.664 135.516  0.00  0.00    +0.210 HD
ENDBRANCH  27  33
ENDBRANCH  26  27
ENDBRANCH  24  26
ENDBRANCH   8  24
TORSDOF 5
ENDMDL
MODEL 7
REMARK VINA RESULT:      -8.2      4.392      7.701
REMARK  Name = NuBBE_1148
REMARK  13 active torsions:
REMARK  status: ('A' for Active; 'I' for Inactive)
REMARK    1  A    between atoms: C_1  and  C_2
REMARK    2  A    between atoms: C_6  and  C_28
REMARK    3  A    between atoms: C_7  and  C_8
REMARK    4  A    between atoms: C_9  and  C_11
REMARK    5  A    between atoms: C_11  and  C_13
REMARK    6  A    between atoms: C_11  and  C_14
REMARK    7  A    between atoms: C_14  and  C_15
REMARK    8  A    between atoms: C_15  and  O_17
REMARK    9  A    between atoms: C_15  and  C_18
REMARK   10  A    between atoms: C_21  and  C_22
REMARK   11  A    between atoms: C_21  and  C_23
REMARK   12  A    between atoms: C_33  and  C_34
REMARK   13  A    between atoms: C_33  and  C_39
REMARK                            x       y       z     vdW  Elec       q    Type
REMARK                         _______ _______ _______ _____ _____    ______ ____
ROOT
ATOM      1  C   LIG A   1      -7.021  -4.599 124.721  0.00  0.00    +0.012 C 
ATOM      2  C   LIG A   1      -6.985  -3.030 124.609  0.00  0.00    -0.021 C 
ATOM      3  C   LIG A   1      -6.560  -2.522 126.033  0.00  0.00    +0.021 C 
ATOM      4  C   LIG A   1      -7.701  -2.455 127.018  0.00  0.00    -0.063 C 
ATOM      5  C   LIG A   1      -7.279  -2.363 128.493  0.00  0.00    -0.005 C 
ATOM      6  C   LIG A   1      -5.792  -1.855 128.726  0.00  0.00    -0.020 C 
ATOM      7  C   LIG A   1      -4.625  -2.857 128.646  0.00  0.00    +0.012 C 
ATOM      8  C   LIG A   1      -5.806  -1.184 130.158  0.00  0.00    -0.001 C 
ATOM      9  C   LIG A   1      -7.219  -0.601 130.276  0.00  0.00    +0.005 C 
ATOM     10  C   LIG A   1      -8.110  -1.276 129.229  0.00  0.00    +0.012 C 
ATOM     11  C   LIG A   1      -5.533  -0.754 127.625  0.00  0.00    +0.008 C 
ATOM     12  C   LIG A   1      -5.699  -1.251 126.165  0.00  0.00    +0.009 C 
ATOM     13  C   LIG A   1      -7.607  -3.769 129.028  0.00  0.00    +0.016 C 
ATOM     14  C   LIG A   1      -8.991  -2.605 126.651  0.00  0.00    -0.026 C 
ATOM     15  C   LIG A   1      -9.450  -2.906 125.261  0.00  0.00    +0.032 C 
ATOM     16  C   LIG A   1      -8.407  -2.534 124.190  0.00  0.00    +0.012 C 
ATOM     17  C   LIG A   1      -8.511  -1.035 123.739  0.00  0.00    +0.027 C 
ATOM     18  C   LIG A   1      -9.020  -0.048 124.817  0.00  0.00    +0.019 C 
ATOM     19  C   LIG A   1      -7.169  -0.501 123.228  0.00  0.00    +0.139 C 
ATOM     20  C   LIG A   1      -6.173  -1.484 122.671  0.00  0.00    +0.075 C 
ATOM     21  C   LIG A   1      -5.947  -2.729 123.508  0.00  0.00    +0.015 C 
ATOM     22  O   LIG A   1      -6.941   0.699 123.142  0.00  0.00    -0.297 OA
ATOM     23  C   LIG A   1      -9.504  -0.961 122.558  0.00  0.00    +0.019 C 
ENDROOT
BRANCH   8  24
ATOM     24  C   LIG A   1      -5.302  -1.979 131.444  0.00  0.00    -0.008 C 
ATOM     25  C   LIG A   1      -4.546  -1.030 132.389  0.00  0.00    +0.008 C 
BRANCH  24  26
ATOM     26  C   LIG A   1      -6.362  -2.755 132.248  0.00  0.00    +0.037 C 
BRANCH  26  27
ATOM     27  C   LIG A   1      -6.673  -2.290 133.687  0.00  0.00    +0.146 C 
BRANCH  27  28
ATOM     28  C   LIG A   1      -7.569  -3.257 134.406  0.00  0.00    +0.179 C 
ATOM     29  O   LIG A   1      -8.059  -2.766 135.671  0.00  0.00    -0.363 OA
ATOM     30  C   LIG A   1      -7.277  -3.966 135.725  0.00  0.00    +0.093 C 
ATOM     31  C   LIG A   1      -8.067  -5.207 136.013  0.00  0.00    +0.044 C 
ATOM     32  C   LIG A   1      -6.011  -3.801 136.506  0.00  0.00    +0.044 C 
ENDBRANCH  27  28
BRANCH  27  33
ATOM     33  O   LIG A   1      -7.394  -1.054 133.559  0.00  0.00    -0.389 OA
ATOM     34  H   LIG A   1      -7.182  -0.536 134.358  0.00  0.00    +0.210 HD
ENDBRANCH  27  33
ENDBRANCH  26  27
ENDBRANCH  24  26
ENDBRANCH   8  24
TORSDOF 5
ENDMDL
MODEL 8
REMARK VINA RESULT:      -8.1      4.049      6.393
REMARK  Name = NuBBE_1148
REMARK  13 active torsions:
REMARK  status: ('A' for Active; 'I' for Inactive)
REMARK    1  A    between atoms: C_1  and  C_2
REMARK    2  A    between atoms: C_6  and  C_28
REMARK    3  A    between atoms: C_7  and  C_8
REMARK    4  A    between atoms: C_9  and  C_11
REMARK    5  A    between atoms: C_11  and  C_13
REMARK    6  A    between atoms: C_11  and  C_14
REMARK    7  A    between atoms: C_14  and  C_15
REMARK    8  A    between atoms: C_15  and  O_17
REMARK    9  A    between atoms: C_15  and  C_18
REMARK   10  A    between atoms: C_21  and  C_22
REMARK   11  A    between atoms: C_21  and  C_23
REMARK   12  A    between atoms: C_33  and  C_34
REMARK   13  A    between atoms: C_33  and  C_39
REMARK                            x       y       z     vdW  Elec       q    Type
REMARK                         _______ _______ _______ _____ _____    ______ ____
ROOT
ATOM      1  C   LIG A   1      -3.635  -4.062 129.492  0.00  0.00    +0.012 C 
ATOM      2  C   LIG A   1      -4.679  -3.575 130.565  0.00  0.00    -0.021 C 
ATOM      3  C   LIG A   1      -5.773  -2.795 129.754  0.00  0.00    +0.021 C 
ATOM      4  C   LIG A   1      -5.391  -1.370 129.436  0.00  0.00    -0.063 C 
ATOM      5  C   LIG A   1      -6.221  -0.709 128.323  0.00  0.00    -0.005 C 
ATOM      6  C   LIG A   1      -7.623  -1.401 128.043  0.00  0.00    -0.020 C 
ATOM      7  C   LIG A   1      -7.693  -2.627 127.113  0.00  0.00    +0.012 C 
ATOM      8  C   LIG A   1      -8.540  -0.252 127.461  0.00  0.00    -0.001 C 
ATOM      9  C   LIG A   1      -8.037   1.011 128.168  0.00  0.00    +0.005 C 
ATOM     10  C   LIG A   1      -6.647   0.725 128.743  0.00  0.00    +0.012 C 
ATOM     11  C   LIG A   1      -8.170  -1.858 129.451  0.00  0.00    +0.008 C 
ATOM     12  C   LIG A   1      -7.242  -2.835 130.218  0.00  0.00    +0.009 C 
ATOM     13  C   LIG A   1      -5.234  -0.672 127.141  0.00  0.00    +0.016 C 
ATOM     14  C   LIG A   1      -4.316  -0.765 129.982  0.00  0.00    -0.026 C 
ATOM     15  C   LIG A   1      -3.349  -1.424 130.912  0.00  0.00    +0.032 C 
ATOM     16  C   LIG A   1      -3.934  -2.672 131.600  0.00  0.00    +0.012 C 
ATOM     17  C   LIG A   1      -4.725  -2.325 132.910  0.00  0.00    +0.027 C 
ATOM     18  C   LIG A   1      -5.410  -0.938 132.927  0.00  0.00    +0.019 C 
ATOM     19  C   LIG A   1      -5.802  -3.371 133.217  0.00  0.00    +0.139 C 
ATOM     20  C   LIG A   1      -5.614  -4.768 132.688  0.00  0.00    +0.075 C 
ATOM     21  C   LIG A   1      -5.202  -4.866 131.231  0.00  0.00    +0.015 C 
ATOM     22  O   LIG A   1      -6.732  -3.137 133.977  0.00  0.00    -0.297 OA
ATOM     23  C   LIG A   1      -3.728  -2.348 134.089  0.00  0.00    +0.019 C 
ENDROOT
BRANCH   8  24
ATOM     24  C   LIG A   1      -8.764  -0.094 125.891  0.00  0.00    -0.008 C 
ATOM     25  C   LIG A   1     -10.118   0.581 125.615  0.00  0.00    +0.008 C 
BRANCH  24  26
ATOM     26  C   LIG A   1      -7.664   0.635 125.096  0.00  0.00    +0.037 C 
BRANCH  26  27
ATOM     27  C   LIG A   1      -7.387   0.182 123.647  0.00  0.00    +0.146 C 
BRANCH  27  28
ATOM     28  C   LIG A   1      -6.423  -0.967 123.595  0.00  0.00    +0.179 C 
ATOM     29  O   LIG A   1      -6.475  -1.715 122.362  0.00  0.00    -0.363 OA
ATOM     30  C   LIG A   1      -6.772  -2.452 123.555  0.00  0.00    +0.093 C 
ATOM     31  C   LIG A   1      -5.697  -3.409 123.975  0.00  0.00    +0.044 C 
ATOM     32  C   LIG A   1      -8.169  -2.989 123.575  0.00  0.00    +0.044 C 
ENDBRANCH  27  28
BRANCH  27  33
ATOM     33  O   LIG A   1      -6.759   1.297 122.994  0.00  0.00    -0.389 OA
ATOM     34  H   LIG A   1      -5.835   1.029 122.833  0.00  0.00    +0.210 HD
ENDBRANCH  27  33
ENDBRANCH  26  27
ENDBRANCH  24  26
ENDBRANCH   8  24
TORSDOF 5
ENDMDL
MODEL 9
REMARK VINA RESULT:      -8.0      1.970      3.181
REMARK  Name = NuBBE_1148
REMARK  13 active torsions:
REMARK  status: ('A' for Active; 'I' for Inactive)
REMARK    1  A    between atoms: C_1  and  C_2
REMARK    2  A    between atoms: C_6  and  C_28
REMARK    3  A    between atoms: C_7  and  C_8
REMARK    4  A    between atoms: C_9  and  C_11
REMARK    5  A    between atoms: C_11  and  C_13
REMARK    6  A    between atoms: C_11  and  C_14
REMARK    7  A    between atoms: C_14  and  C_15
REMARK    8  A    between atoms: C_15  and  O_17
REMARK    9  A    between atoms: C_15  and  C_18
REMARK   10  A    between atoms: C_21  and  C_22
REMARK   11  A    between atoms: C_21  and  C_23
REMARK   12  A    between atoms: C_33  and  C_34
REMARK   13  A    between atoms: C_33  and  C_39
REMARK                            x       y       z     vdW  Elec       q    Type
REMARK                         _______ _______ _______ _____ _____    ______ ____
ROOT
ATOM      1  C   LIG A   1      -3.856  -1.261 130.320  0.00  0.00    +0.012 C 
ATOM      2  C   LIG A   1      -4.899  -1.871 131.329  0.00  0.00    -0.021 C 
ATOM      3  C   LIG A   1      -6.137  -0.907 131.278  0.00  0.00    +0.021 C 
ATOM      4  C   LIG A   1      -5.984   0.324 132.136  0.00  0.00    -0.063 C 
ATOM      5  C   LIG A   1      -6.960   1.466 131.812  0.00  0.00    -0.005 C 
ATOM      6  C   LIG A   1      -8.260   1.020 131.017  0.00  0.00    -0.020 C 
ATOM      7  C   LIG A   1      -8.203   0.881 129.484  0.00  0.00    +0.012 C 
ATOM      8  C   LIG A   1      -9.365   2.084 131.403  0.00  0.00    -0.001 C 
ATOM      9  C   LIG A   1      -9.012   2.471 132.844  0.00  0.00    +0.005 C 
ATOM     10  C   LIG A   1      -7.565   2.050 133.118  0.00  0.00    +0.012 C 
ATOM     11  C   LIG A   1      -8.658  -0.394 131.594  0.00  0.00    +0.008 C 
ATOM     12  C   LIG A   1      -7.557  -1.479 131.459  0.00  0.00    +0.009 C 
ATOM     13  C   LIG A   1      -6.056   2.496 131.111  0.00  0.00    +0.016 C 
ATOM     14  C   LIG A   1      -4.979   0.472 133.025  0.00  0.00    -0.026 C 
ATOM     15  C   LIG A   1      -3.878  -0.516 133.236  0.00  0.00    +0.032 C 
ATOM     16  C   LIG A   1      -4.237  -1.930 132.744  0.00  0.00    +0.012 C 
ATOM     17  C   LIG A   1      -4.996  -2.773 133.827  0.00  0.00    +0.027 C 
ATOM     18  C   LIG A   1      -5.873  -1.960 134.810  0.00  0.00    +0.019 C 
ATOM     19  C   LIG A   1      -5.892  -3.841 133.191  0.00  0.00    +0.139 C 
ATOM     20  C   LIG A   1      -5.533  -4.353 131.821  0.00  0.00    +0.075 C 
ATOM     21  C   LIG A   1      -5.193  -3.288 130.795  0.00  0.00    +0.015 C 
ATOM     22  O   LIG A   1      -6.803  -4.373 133.811  0.00  0.00    -0.297 OA
ATOM     23  C   LIG A   1      -3.943  -3.518 134.677  0.00  0.00    +0.019 C 
ENDROOT
BRANCH   8  24
ATOM     24  C   LIG A   1      -9.695   3.312 130.444  0.00  0.00    -0.008 C 
ATOM     25  C   LIG A   1     -11.212   3.559 130.403  0.00  0.00    +0.008 C 
BRANCH  24  26
ATOM     26  C   LIG A   1      -8.974   4.642 130.734  0.00  0.00    +0.037 C 
BRANCH  26  27
ATOM     27  C   LIG A   1      -9.800   5.945 130.693  0.00  0.00    +0.146 C 
BRANCH  27  28
ATOM     28  C   LIG A   1      -9.757   6.592 129.339  0.00  0.00    +0.179 C 
ATOM     29  O   LIG A   1      -9.503   8.012 129.379  0.00  0.00    -0.363 OA
ATOM     30  C   LIG A   1     -10.744   7.614 128.783  0.00  0.00    +0.093 C 
ATOM     31  C   LIG A   1     -10.791   7.765 127.292  0.00  0.00    +0.044 C 
ATOM     32  C   LIG A   1     -11.938   8.123 129.529  0.00  0.00    +0.044 C 
ENDBRANCH  27  28
BRANCH  27  33
ATOM     33  O   LIG A   1      -9.169   6.846 131.617  0.00  0.00    -0.389 OA
ATOM     34  H   LIG A   1      -9.239   6.424 132.494  0.00  0.00    +0.210 HD
ENDBRANCH  27  33
ENDBRANCH  26  27
ENDBRANCH  24  26
ENDBRANCH   8  24
TORSDOF 5
ENDMDL
