MODEL 1
REMARK VINA RESULT:      -7.0      0.000      0.000
REMARK  Name = NuBBE_2480
REMARK  9 active torsions:
REMARK  status: ('A' for Active; 'I' for Inactive)
REMARK    1  A    between atoms: C_1  and  C_2
REMARK    2  A    between atoms: C_4  and  C_19
REMARK    3  A    between atoms: C_10  and  O_17
REMARK    4  A    between atoms: C_11  and  O_13
REMARK    5  A    between atoms: O_13  and  C_14
REMARK    6  A    between atoms: C_14  and  C_15
REMARK    7  A    between atoms: O_17  and  C_18
REMARK    8  A    between atoms: C_23  and  O_25
REMARK    9  A    between atoms: O_25  and  C_26
REMARK                            x       y       z     vdW  Elec       q    Type
REMARK                         _______ _______ _______ _____ _____    ______ ____
ROOT
ATOM      1  C   LIG A   1      -4.712  -2.398 129.094  0.00  0.00    +0.016 C 
ATOM      2  C   LIG A   1      -5.729  -1.478 128.422  0.00  0.00    +0.065 C 
ATOM      3  C   LIG A   1      -7.072  -1.429 129.209  0.00  0.00    +0.211 C 
ATOM      4  O   LIG A   1      -8.006  -2.345 128.578  0.00  0.00    -0.483 OA
ATOM      5  C   LIG A   1      -7.500  -2.534 127.317  0.00  0.00    +0.129 A 
ATOM      6  C   LIG A   1      -6.214  -2.064 127.140  0.00  0.00    +0.005 A 
ATOM      7  C   LIG A   1      -5.597  -2.188 125.905  0.00  0.00    +0.057 A 
ATOM      8  C   LIG A   1      -6.309  -2.782 124.843  0.00  0.00    +0.162 A 
ATOM      9  C   LIG A   1      -7.621  -3.277 125.054  0.00  0.00    +0.166 A 
ATOM     10  C   LIG A   1      -8.229  -3.108 126.300  0.00  0.00    +0.095 A 
ENDROOT
BRANCH   3  11
ATOM     11  C   LIG A   1      -7.704  -0.043 129.283  0.00  0.00    +0.000 A 
ATOM     12  C   LIG A   1      -8.111   0.510 130.508  0.00  0.00    +0.057 A 
ATOM     13  C   LIG A   1      -8.702   1.753 130.511  0.00  0.00    +0.170 A 
ATOM     14  C   LIG A   1      -8.901   2.477 129.359  0.00  0.00    +0.207 A 
ATOM     15  C   LIG A   1      -8.493   1.988 128.130  0.00  0.00    +0.166 A 
ATOM     16  C   LIG A   1      -7.898   0.713 128.103  0.00  0.00    +0.057 A 
ATOM     17  O   LIG A   1      -9.522   3.662 129.626  0.00  0.00    -0.449 OA
ATOM     18  C   LIG A   1      -9.701   3.584 131.052  0.00  0.00    +0.467 C 
ATOM     19  O   LIG A   1      -9.152   2.389 131.628  0.00  0.00    -0.453 OA
BRANCH  15  20
ATOM     20  O   LIG A   1      -8.596   2.597 126.912  0.00  0.00    -0.491 OA
ATOM     21  C   LIG A   1      -8.328   1.790 125.770  0.00  0.00    +0.277 C 
ENDBRANCH  15  20
ENDBRANCH   3  11
BRANCH   8  22
ATOM     22  O   LIG A   1      -5.597  -2.839 123.668  0.00  0.00    -0.491 OA
ATOM     23  C   LIG A   1      -4.588  -3.843 123.588  0.00  0.00    +0.277 C 
ENDBRANCH   8  22
BRANCH   9  24
ATOM     24  O   LIG A   1      -8.289  -3.862 124.011  0.00  0.00    -0.484 OA
BRANCH  24  25
ATOM     25  C   LIG A   1      -9.495  -3.228 123.582  0.00  0.00    +0.256 C 
BRANCH  25  26
ATOM     26  C   LIG A   1      -9.099  -2.101 122.671  0.00  0.00    +0.006 C 
ATOM     27  C   LIG A   1      -9.337  -0.812 122.903  0.00  0.00    +0.007 C 
ENDBRANCH  25  26
ENDBRANCH  24  25
ENDBRANCH   9  24
TORSDOF 6
ENDMDL
MODEL 2
REMARK VINA RESULT:      -6.9      3.257      7.575
REMARK  Name = NuBBE_2480
REMARK  9 active torsions:
REMARK  status: ('A' for Active; 'I' for Inactive)
REMARK    1  A    between atoms: C_1  and  C_2
REMARK    2  A    between atoms: C_4  and  C_19
REMARK    3  A    between atoms: C_10  and  O_17
REMARK    4  A    between atoms: C_11  and  O_13
REMARK    5  A    between atoms: O_13  and  C_14
REMARK    6  A    between atoms: C_14  and  C_15
REMARK    7  A    between atoms: O_17  and  C_18
REMARK    8  A    between atoms: C_23  and  O_25
REMARK    9  A    between atoms: O_25  and  C_26
REMARK                            x       y       z     vdW  Elec       q    Type
REMARK                         _______ _______ _______ _____ _____    ______ ____
ROOT
ATOM      1  C   LIG A   1      -6.326   3.765 122.217  0.00  0.00    +0.016 C 
ATOM      2  C   LIG A   1      -6.328   2.705 123.316  0.00  0.00    +0.065 C 
ATOM      3  C   LIG A   1      -7.766   2.193 123.623  0.00  0.00    +0.211 C 
ATOM      4  O   LIG A   1      -8.264   2.902 124.789  0.00  0.00    -0.483 OA
ATOM      5  C   LIG A   1      -7.138   3.386 125.403  0.00  0.00    +0.129 A 
ATOM      6  C   LIG A   1      -5.990   3.306 124.638  0.00  0.00    +0.005 A 
ATOM      7  C   LIG A   1      -4.784   3.754 125.153  0.00  0.00    +0.057 A 
ATOM      8  C   LIG A   1      -4.752   4.272 126.464  0.00  0.00    +0.162 A 
ATOM      9  C   LIG A   1      -5.947   4.364 127.222  0.00  0.00    +0.166 A 
ATOM     10  C   LIG A   1      -7.141   3.875 126.689  0.00  0.00    +0.095 A 
ENDROOT
BRANCH   3  11
ATOM     11  C   LIG A   1      -7.856   0.691 123.874  0.00  0.00    +0.000 A 
ATOM     12  C   LIG A   1      -8.856   0.147 124.696  0.00  0.00    +0.057 A 
ATOM     13  C   LIG A   1      -8.871  -1.213 124.910  0.00  0.00    +0.170 A 
ATOM     14  C   LIG A   1      -7.949  -2.059 124.341  0.00  0.00    +0.207 A 
ATOM     15  C   LIG A   1      -6.960  -1.574 123.501  0.00  0.00    +0.166 A 
ATOM     16  C   LIG A   1      -6.919  -0.186 123.278  0.00  0.00    +0.057 A 
ATOM     17  O   LIG A   1      -8.166  -3.349 124.724  0.00  0.00    -0.449 OA
ATOM     18  C   LIG A   1      -9.299  -3.209 125.599  0.00  0.00    +0.467 C 
ATOM     19  O   LIG A   1      -9.776  -1.858 125.697  0.00  0.00    -0.453 OA
BRANCH  15  20
ATOM     20  O   LIG A   1      -5.998  -2.287 122.844  0.00  0.00    -0.491 OA
ATOM     21  C   LIG A   1      -4.983  -2.880 123.648  0.00  0.00    +0.277 C 
ENDBRANCH  15  20
ENDBRANCH   3  11
BRANCH   8  22
ATOM     22  O   LIG A   1      -3.500   4.674 126.865  0.00  0.00    -0.491 OA
ATOM     23  C   LIG A   1      -2.475   3.686 126.826  0.00  0.00    +0.277 C 
ENDBRANCH   8  22
BRANCH   9  24
ATOM     24  O   LIG A   1      -5.894   4.884 128.489  0.00  0.00    -0.484 OA
BRANCH  24  25
ATOM     25  C   LIG A   1      -6.268   4.013 129.557  0.00  0.00    +0.256 C 
BRANCH  25  26
ATOM     26  C   LIG A   1      -5.038   3.243 129.948  0.00  0.00    +0.006 C 
ATOM     27  C   LIG A   1      -3.881   3.788 130.316  0.00  0.00    +0.007 C 
ENDBRANCH  25  26
ENDBRANCH  24  25
ENDBRANCH   9  24
TORSDOF 6
ENDMDL
MODEL 3
REMARK VINA RESULT:      -6.9      6.055      9.048
REMARK  Name = NuBBE_2480
REMARK  9 active torsions:
REMARK  status: ('A' for Active; 'I' for Inactive)
REMARK    1  A    between atoms: C_1  and  C_2
REMARK    2  A    between atoms: C_4  and  C_19
REMARK    3  A    between atoms: C_10  and  O_17
REMARK    4  A    between atoms: C_11  and  O_13
REMARK    5  A    between atoms: O_13  and  C_14
REMARK    6  A    between atoms: C_14  and  C_15
REMARK    7  A    between atoms: O_17  and  C_18
REMARK    8  A    between atoms: C_23  and  O_25
REMARK    9  A    between atoms: O_25  and  C_26
REMARK                            x       y       z     vdW  Elec       q    Type
REMARK                         _______ _______ _______ _____ _____    ______ ____
ROOT
ATOM      1  C   LIG A   1     -10.067   1.808 132.071  0.00  0.00    +0.016 C 
ATOM      2  C   LIG A   1      -8.974   2.853 132.282  0.00  0.00    +0.065 C 
ATOM      3  C   LIG A   1      -9.211   3.684 133.577  0.00  0.00    +0.211 C 
ATOM      4  O   LIG A   1      -9.849   4.935 133.207  0.00  0.00    -0.483 OA
ATOM      5  C   LIG A   1      -9.580   5.075 131.870  0.00  0.00    +0.129 A 
ATOM      6  C   LIG A   1      -9.072   3.941 131.266  0.00  0.00    +0.005 A 
ATOM      7  C   LIG A   1      -8.750   3.960 129.919  0.00  0.00    +0.057 A 
ATOM      8  C   LIG A   1      -8.935   5.153 129.190  0.00  0.00    +0.162 A 
ATOM      9  C   LIG A   1      -9.478   6.298 129.826  0.00  0.00    +0.166 A 
ATOM     10  C   LIG A   1      -9.762   6.259 131.192  0.00  0.00    +0.095 A 
ENDROOT
BRANCH   3  11
ATOM     11  C   LIG A   1      -7.942   3.985 134.369  0.00  0.00    +0.000 A 
ATOM     12  C   LIG A   1      -6.808   3.161 134.274  0.00  0.00    +0.057 A 
ATOM     13  C   LIG A   1      -5.702   3.466 135.033  0.00  0.00    +0.170 A 
ATOM     14  C   LIG A   1      -5.662   4.552 135.876  0.00  0.00    +0.207 A 
ATOM     15  C   LIG A   1      -6.744   5.410 135.984  0.00  0.00    +0.166 A 
ATOM     16  C   LIG A   1      -7.890   5.111 135.225  0.00  0.00    +0.057 A 
ATOM     17  O   LIG A   1      -4.468   4.622 136.529  0.00  0.00    -0.449 OA
ATOM     18  C   LIG A   1      -3.786   3.461 136.020  0.00  0.00    +0.467 C 
ATOM     19  O   LIG A   1      -4.551   2.739 135.042  0.00  0.00    -0.453 OA
BRANCH  15  20
ATOM     20  O   LIG A   1      -6.844   6.536 136.750  0.00  0.00    -0.491 OA
ATOM     21  C   LIG A   1      -7.909   6.574 137.693  0.00  0.00    +0.277 C 
ENDBRANCH  15  20
ENDBRANCH   3  11
BRANCH   8  22
ATOM     22  O   LIG A   1      -8.572   5.050 127.868  0.00  0.00    -0.491 OA
ATOM     23  C   LIG A   1      -7.698   3.976 127.533  0.00  0.00    +0.277 C 
ENDBRANCH   8  22
BRANCH   9  24
ATOM     24  O   LIG A   1      -9.661   7.442 129.094  0.00  0.00    -0.484 OA
BRANCH  24  25
ATOM     25  C   LIG A   1     -10.970   8.015 129.114  0.00  0.00    +0.256 C 
BRANCH  25  26
ATOM     26  C   LIG A   1     -11.586   7.750 127.770  0.00  0.00    +0.006 C 
ATOM     27  C   LIG A   1     -10.907   7.591 126.636  0.00  0.00    +0.007 C 
ENDBRANCH  25  26
ENDBRANCH  24  25
ENDBRANCH   9  24
TORSDOF 6
ENDMDL
MODEL 4
REMARK VINA RESULT:      -6.8      2.711      7.409
REMARK  Name = NuBBE_2480
REMARK  9 active torsions:
REMARK  status: ('A' for Active; 'I' for Inactive)
REMARK    1  A    between atoms: C_1  and  C_2
REMARK    2  A    between atoms: C_4  and  C_19
REMARK    3  A    between atoms: C_10  and  O_17
REMARK    4  A    between atoms: C_11  and  O_13
REMARK    5  A    between atoms: O_13  and  C_14
REMARK    6  A    between atoms: C_14  and  C_15
REMARK    7  A    between atoms: O_17  and  C_18
REMARK    8  A    between atoms: C_23  and  O_25
REMARK    9  A    between atoms: O_25  and  C_26
REMARK                            x       y       z     vdW  Elec       q    Type
REMARK                         _______ _______ _______ _____ _____    ______ ____
ROOT
ATOM      1  C   LIG A   1      -7.929  -0.171 130.476  0.00  0.00    +0.016 C 
ATOM      2  C   LIG A   1      -7.885   0.047 128.965  0.00  0.00    +0.065 C 
ATOM      3  C   LIG A   1      -6.673  -0.680 128.312  0.00  0.00    +0.211 C 
ATOM      4  O   LIG A   1      -5.605   0.287 128.130  0.00  0.00    -0.483 OA
ATOM      5  C   LIG A   1      -6.232   1.505 128.182  0.00  0.00    +0.129 A 
ATOM      6  C   LIG A   1      -7.535   1.459 128.639  0.00  0.00    +0.005 A 
ATOM      7  C   LIG A   1      -8.279   2.625 128.727  0.00  0.00    +0.057 A 
ATOM      8  C   LIG A   1      -7.688   3.842 128.329  0.00  0.00    +0.162 A 
ATOM      9  C   LIG A   1      -6.342   3.869 127.884  0.00  0.00    +0.166 A 
ATOM     10  C   LIG A   1      -5.629   2.674 127.775  0.00  0.00    +0.095 A 
ENDROOT
BRANCH   3  11
ATOM     11  C   LIG A   1      -6.985  -1.338 126.971  0.00  0.00    +0.000 A 
ATOM     12  C   LIG A   1      -8.305  -1.625 126.588  0.00  0.00    +0.057 A 
ATOM     13  C   LIG A   1      -8.525  -2.246 125.379  0.00  0.00    +0.170 A 
ATOM     14  C   LIG A   1      -7.499  -2.587 124.529  0.00  0.00    +0.207 A 
ATOM     15  C   LIG A   1      -6.183  -2.300 124.849  0.00  0.00    +0.166 A 
ATOM     16  C   LIG A   1      -5.935  -1.676 126.085  0.00  0.00    +0.057 A 
ATOM     17  O   LIG A   1      -7.975  -3.207 123.412  0.00  0.00    -0.449 OA
ATOM     18  C   LIG A   1      -9.390  -3.231 123.670  0.00  0.00    +0.467 C 
ATOM     19  O   LIG A   1      -9.752  -2.591 124.903  0.00  0.00    -0.453 OA
BRANCH  15  20
ATOM     20  O   LIG A   1      -5.068  -2.549 124.101  0.00  0.00    -0.491 OA
ATOM     21  C   LIG A   1      -4.682  -3.913 123.964  0.00  0.00    +0.277 C 
ENDBRANCH  15  20
ENDBRANCH   3  11
BRANCH   8  22
ATOM     22  O   LIG A   1      -8.527   4.925 128.453  0.00  0.00    -0.491 OA
ATOM     23  C   LIG A   1      -8.780   5.381 129.779  0.00  0.00    +0.277 C 
ENDBRANCH   8  22
BRANCH   9  24
ATOM     24  O   LIG A   1      -5.786   5.065 127.516  0.00  0.00    -0.484 OA
BRANCH  24  25
ATOM     25  C   LIG A   1      -4.422   5.036 127.091  0.00  0.00    +0.256 C 
BRANCH  25  26
ATOM     26  C   LIG A   1      -3.713   6.146 127.813  0.00  0.00    +0.006 C 
ATOM     27  C   LIG A   1      -2.454   6.096 128.243  0.00  0.00    +0.007 C 
ENDBRANCH  25  26
ENDBRANCH  24  25
ENDBRANCH   9  24
TORSDOF 6
ENDMDL
MODEL 5
REMARK VINA RESULT:      -6.8      6.049      9.022
REMARK  Name = NuBBE_2480
REMARK  9 active torsions:
REMARK  status: ('A' for Active; 'I' for Inactive)
REMARK    1  A    between atoms: C_1  and  C_2
REMARK    2  A    between atoms: C_4  and  C_19
REMARK    3  A    between atoms: C_10  and  O_17
REMARK    4  A    between atoms: C_11  and  O_13
REMARK    5  A    between atoms: O_13  and  C_14
REMARK    6  A    between atoms: C_14  and  C_15
REMARK    7  A    between atoms: O_17  and  C_18
REMARK    8  A    between atoms: C_23  and  O_25
REMARK    9  A    between atoms: O_25  and  C_26
REMARK                            x       y       z     vdW  Elec       q    Type
REMARK                         _______ _______ _______ _____ _____    ______ ____
ROOT
ATOM      1  C   LIG A   1      -9.799   1.801 132.215  0.00  0.00    +0.016 C 
ATOM      2  C   LIG A   1      -8.790   2.933 132.401  0.00  0.00    +0.065 C 
ATOM      3  C   LIG A   1      -9.111   3.791 133.660  0.00  0.00    +0.211 C 
ATOM      4  O   LIG A   1      -9.834   4.976 133.233  0.00  0.00    -0.483 OA
ATOM      5  C   LIG A   1      -9.553   5.086 131.895  0.00  0.00    +0.129 A 
ATOM      6  C   LIG A   1      -8.952   3.971 131.343  0.00  0.00    +0.005 A 
ATOM      7  C   LIG A   1      -8.609   3.964 130.000  0.00  0.00    +0.057 A 
ATOM      8  C   LIG A   1      -8.870   5.112 129.224  0.00  0.00    +0.162 A 
ATOM      9  C   LIG A   1      -9.508   6.236 129.807  0.00  0.00    +0.166 A 
ATOM     10  C   LIG A   1      -9.812   6.226 131.170  0.00  0.00    +0.095 A 
ENDROOT
BRANCH   3  11
ATOM     11  C   LIG A   1      -7.882   4.216 134.457  0.00  0.00    +0.000 A 
ATOM     12  C   LIG A   1      -7.888   5.381 135.243  0.00  0.00    +0.057 A 
ATOM     13  C   LIG A   1      -6.741   5.730 135.918  0.00  0.00    +0.170 A 
ATOM     14  C   LIG A   1      -5.592   4.977 135.859  0.00  0.00    +0.207 A 
ATOM     15  C   LIG A   1      -5.544   3.807 135.121  0.00  0.00    +0.166 A 
ATOM     16  C   LIG A   1      -6.702   3.437 134.412  0.00  0.00    +0.057 A 
ATOM     17  O   LIG A   1      -4.595   5.546 136.595  0.00  0.00    -0.449 OA
ATOM     18  C   LIG A   1      -5.239   6.731 137.095  0.00  0.00    +0.467 C 
ATOM     19  O   LIG A   1      -6.614   6.839 136.697  0.00  0.00    -0.453 OA
BRANCH  15  20
ATOM     20  O   LIG A   1      -4.493   2.944 134.989  0.00  0.00    -0.491 OA
ATOM     21  C   LIG A   1      -3.592   3.195 133.916  0.00  0.00    +0.277 C 
ENDBRANCH  15  20
ENDBRANCH   3  11
BRANCH   8  22
ATOM     22  O   LIG A   1      -8.477   4.988 127.912  0.00  0.00    -0.491 OA
ATOM     23  C   LIG A   1      -7.518   3.972 127.632  0.00  0.00    +0.277 C 
ENDBRANCH   8  22
BRANCH   9  24
ATOM     24  O   LIG A   1      -9.763   7.335 129.030  0.00  0.00    -0.484 OA
BRANCH  24  25
ATOM     25  C   LIG A   1     -10.999   7.343 128.313  0.00  0.00    +0.256 C 
BRANCH  25  26
ATOM     26  C   LIG A   1     -11.647   8.673 128.570  0.00  0.00    +0.006 C 
ATOM     27  C   LIG A   1     -12.695   8.872 129.366  0.00  0.00    +0.007 C 
ENDBRANCH  25  26
ENDBRANCH  24  25
ENDBRANCH   9  24
TORSDOF 6
ENDMDL
MODEL 6
REMARK VINA RESULT:      -6.7      9.920     13.808
REMARK  Name = NuBBE_2480
REMARK  9 active torsions:
REMARK  status: ('A' for Active; 'I' for Inactive)
REMARK    1  A    between atoms: C_1  and  C_2
REMARK    2  A    between atoms: C_4  and  C_19
REMARK    3  A    between atoms: C_10  and  O_17
REMARK    4  A    between atoms: C_11  and  O_13
REMARK    5  A    between atoms: O_13  and  C_14
REMARK    6  A    between atoms: C_14  and  C_15
REMARK    7  A    between atoms: O_17  and  C_18
REMARK    8  A    between atoms: C_23  and  O_25
REMARK    9  A    between atoms: O_25  and  C_26
REMARK                            x       y       z     vdW  Elec       q    Type
REMARK                         _______ _______ _______ _____ _____    ______ ____
ROOT
ATOM      1  C   LIG A   1      -3.288   7.384 135.922  0.00  0.00    +0.016 C 
ATOM      2  C   LIG A   1      -3.126   7.887 134.489  0.00  0.00    +0.065 C 
ATOM      3  C   LIG A   1      -2.410   6.840 133.586  0.00  0.00    +0.211 C 
ATOM      4  O   LIG A   1      -1.004   7.196 133.500  0.00  0.00    -0.483 OA
ATOM      5  C   LIG A   1      -0.963   8.518 133.859  0.00  0.00    +0.129 A 
ATOM      6  C   LIG A   1      -2.130   8.996 134.423  0.00  0.00    +0.005 A 
ATOM      7  C   LIG A   1      -2.216  10.322 134.817  0.00  0.00    +0.057 A 
ATOM      8  C   LIG A   1      -1.104  11.166 134.618  0.00  0.00    +0.162 A 
ATOM      9  C   LIG A   1       0.091  10.648 134.057  0.00  0.00    +0.166 A 
ATOM     10  C   LIG A   1       0.136   9.317 133.639  0.00  0.00    +0.095 A 
ENDROOT
BRANCH   3  11
ATOM     11  C   LIG A   1      -2.986   6.730 132.178  0.00  0.00    +0.000 A 
ATOM     12  C   LIG A   1      -2.205   6.275 131.103  0.00  0.00    +0.057 A 
ATOM     13  C   LIG A   1      -2.769   6.224 129.849  0.00  0.00    +0.170 A 
ATOM     14  C   LIG A   1      -4.072   6.593 129.611  0.00  0.00    +0.207 A 
ATOM     15  C   LIG A   1      -4.890   7.023 130.641  0.00  0.00    +0.166 A 
ATOM     16  C   LIG A   1      -4.330   7.094 131.930  0.00  0.00    +0.057 A 
ATOM     17  O   LIG A   1      -4.381   6.472 128.288  0.00  0.00    -0.449 OA
ATOM     18  C   LIG A   1      -3.135   6.011 127.736  0.00  0.00    +0.467 C 
ATOM     19  O   LIG A   1      -2.114   5.818 128.727  0.00  0.00    -0.453 OA
BRANCH  15  20
ATOM     20  O   LIG A   1      -6.203   7.394 130.567  0.00  0.00    -0.491 OA
ATOM     21  C   LIG A   1      -7.119   6.665 131.377  0.00  0.00    +0.277 C 
ENDBRANCH  15  20
ENDBRANCH   3  11
BRANCH   8  22
ATOM     22  O   LIG A   1      -1.313  12.457 135.040  0.00  0.00    -0.491 OA
ATOM     23  C   LIG A   1      -2.130  13.272 134.205  0.00  0.00    +0.277 C 
ENDBRANCH   8  22
BRANCH   9  24
ATOM     24  O   LIG A   1       1.163  11.484 133.885  0.00  0.00    -0.484 OA
BRANCH  24  25
ATOM     25  C   LIG A   1       1.657  11.631 132.553  0.00  0.00    +0.256 C 
BRANCH  25  26
ATOM     26  C   LIG A   1       1.040  12.881 131.991  0.00  0.00    +0.006 C 
ATOM     27  C   LIG A   1       0.425  12.967 130.814  0.00  0.00    +0.007 C 
ENDBRANCH  25  26
ENDBRANCH  24  25
ENDBRANCH   9  24
TORSDOF 6
ENDMDL
MODEL 7
REMARK VINA RESULT:      -6.7      2.143      6.988
REMARK  Name = NuBBE_2480
REMARK  9 active torsions:
REMARK  status: ('A' for Active; 'I' for Inactive)
REMARK    1  A    between atoms: C_1  and  C_2
REMARK    2  A    between atoms: C_4  and  C_19
REMARK    3  A    between atoms: C_10  and  O_17
REMARK    4  A    between atoms: C_11  and  O_13
REMARK    5  A    between atoms: O_13  and  C_14
REMARK    6  A    between atoms: C_14  and  C_15
REMARK    7  A    between atoms: O_17  and  C_18
REMARK    8  A    between atoms: C_23  and  O_25
REMARK    9  A    between atoms: O_25  and  C_26
REMARK                            x       y       z     vdW  Elec       q    Type
REMARK                         _______ _______ _______ _____ _____    ______ ____
ROOT
ATOM      1  C   LIG A   1      -4.431  -2.520 129.342  0.00  0.00    +0.016 C 
ATOM      2  C   LIG A   1      -5.880  -2.219 128.961  0.00  0.00    +0.065 C 
ATOM      3  C   LIG A   1      -5.973  -1.096 127.886  0.00  0.00    +0.211 C 
ATOM      4  O   LIG A   1      -6.256   0.159 128.560  0.00  0.00    -0.483 OA
ATOM      5  C   LIG A   1      -6.763  -0.213 129.778  0.00  0.00    +0.129 A 
ATOM      6  C   LIG A   1      -6.599  -1.550 130.083  0.00  0.00    +0.005 A 
ATOM      7  C   LIG A   1      -7.080  -2.050 131.283  0.00  0.00    +0.057 A 
ATOM      8  C   LIG A   1      -7.746  -1.177 132.167  0.00  0.00    +0.162 A 
ATOM      9  C   LIG A   1      -7.885   0.196 131.842  0.00  0.00    +0.166 A 
ATOM     10  C   LIG A   1      -7.419   0.664 130.612  0.00  0.00    +0.095 A 
ENDROOT
BRANCH   3  11
ATOM     11  C   LIG A   1      -7.033  -1.340 126.816  0.00  0.00    +0.000 A 
ATOM     12  C   LIG A   1      -6.990  -2.475 125.991  0.00  0.00    +0.057 A 
ATOM     13  C   LIG A   1      -7.957  -2.628 125.023  0.00  0.00    +0.170 A 
ATOM     14  C   LIG A   1      -8.968  -1.714 124.840  0.00  0.00    +0.207 A 
ATOM     15  C   LIG A   1      -9.069  -0.592 125.646  0.00  0.00    +0.166 A 
ATOM     16  C   LIG A   1      -8.084  -0.410 126.634  0.00  0.00    +0.057 A 
ATOM     17  O   LIG A   1      -9.780  -2.082 123.809  0.00  0.00    -0.449 OA
ATOM     18  C   LIG A   1      -9.156  -3.300 123.364  0.00  0.00    +0.467 C 
ATOM     19  O   LIG A   1      -8.016  -3.673 124.153  0.00  0.00    -0.453 OA
BRANCH  15  20
ATOM     20  O   LIG A   1     -10.024   0.383 125.605  0.00  0.00    -0.491 OA
ATOM     21  C   LIG A   1      -9.923   1.331 124.548  0.00  0.00    +0.277 C 
ENDBRANCH  15  20
ENDBRANCH   3  11
BRANCH   8  22
ATOM     22  O   LIG A   1      -8.184  -1.791 133.317  0.00  0.00    -0.491 OA
ATOM     23  C   LIG A   1      -7.547  -3.017 133.662  0.00  0.00    +0.277 C 
ENDBRANCH   8  22
BRANCH   9  24
ATOM     24  O   LIG A   1      -8.525   1.028 132.723  0.00  0.00    -0.484 OA
BRANCH  24  25
ATOM     25  C   LIG A   1      -9.579   1.835 132.196  0.00  0.00    +0.256 C 
BRANCH  25  26
ATOM     26  C   LIG A   1      -9.299   3.251 132.614  0.00  0.00    +0.006 C 
ATOM     27  C   LIG A   1      -9.061   3.646 133.862  0.00  0.00    +0.007 C 
ENDBRANCH  25  26
ENDBRANCH  24  25
ENDBRANCH   9  24
TORSDOF 6
ENDMDL
MODEL 8
REMARK VINA RESULT:      -6.7      4.425      8.220
REMARK  Name = NuBBE_2480
REMARK  9 active torsions:
REMARK  status: ('A' for Active; 'I' for Inactive)
REMARK    1  A    between atoms: C_1  and  C_2
REMARK    2  A    between atoms: C_4  and  C_19
REMARK    3  A    between atoms: C_10  and  O_17
REMARK    4  A    between atoms: C_11  and  O_13
REMARK    5  A    between atoms: O_13  and  C_14
REMARK    6  A    between atoms: C_14  and  C_15
REMARK    7  A    between atoms: O_17  and  C_18
REMARK    8  A    between atoms: C_23  and  O_25
REMARK    9  A    between atoms: O_25  and  C_26
REMARK                            x       y       z     vdW  Elec       q    Type
REMARK                         _______ _______ _______ _____ _____    ______ ____
ROOT
ATOM      1  C   LIG A   1      -1.956   3.016 126.591  0.00  0.00    +0.016 C 
ATOM      2  C   LIG A   1      -3.475   3.025 126.745  0.00  0.00    +0.065 C 
ATOM      3  C   LIG A   1      -4.131   4.186 125.940  0.00  0.00    +0.211 C 
ATOM      4  O   LIG A   1      -4.381   5.289 126.852  0.00  0.00    -0.483 OA
ATOM      5  C   LIG A   1      -4.363   4.716 128.097  0.00  0.00    +0.129 A 
ATOM      6  C   LIG A   1      -3.870   3.426 128.126  0.00  0.00    +0.005 A 
ATOM      7  C   LIG A   1      -3.811   2.735 129.326  0.00  0.00    +0.057 A 
ATOM      8  C   LIG A   1      -4.275   3.365 130.499  0.00  0.00    +0.162 A 
ATOM      9  C   LIG A   1      -4.757   4.698 130.449  0.00  0.00    +0.166 A 
ATOM     10  C   LIG A   1      -4.835   5.356 129.220  0.00  0.00    +0.095 A 
ENDROOT
BRANCH   3  11
ATOM     11  C   LIG A   1      -5.434   3.808 125.243  0.00  0.00    +0.000 A 
ATOM     12  C   LIG A   1      -5.569   3.902 123.848  0.00  0.00    +0.057 A 
ATOM     13  C   LIG A   1      -6.778   3.574 123.276  0.00  0.00    +0.170 A 
ATOM     14  C   LIG A   1      -7.854   3.150 124.020  0.00  0.00    +0.207 A 
ATOM     15  C   LIG A   1      -7.762   3.015 125.394  0.00  0.00    +0.166 A 
ATOM     16  C   LIG A   1      -6.539   3.356 126.001  0.00  0.00    +0.057 A 
ATOM     17  O   LIG A   1      -8.935   2.910 123.224  0.00  0.00    -0.449 OA
ATOM     18  C   LIG A   1      -8.422   3.248 121.922  0.00  0.00    +0.467 C 
ATOM     19  O   LIG A   1      -7.040   3.639 121.942  0.00  0.00    -0.453 OA
BRANCH  15  20
ATOM     20  O   LIG A   1      -8.728   2.582 126.258  0.00  0.00    -0.491 OA
ATOM     21  C   LIG A   1      -8.689   1.207 126.621  0.00  0.00    +0.277 C 
ENDBRANCH  15  20
ENDBRANCH   3  11
BRANCH   8  22
ATOM     22  O   LIG A   1      -4.174   2.578 131.622  0.00  0.00    -0.491 OA
ATOM     23  C   LIG A   1      -4.410   1.184 131.441  0.00  0.00    +0.277 C 
ENDBRANCH   8  22
BRANCH   9  24
ATOM     24  O   LIG A   1      -5.190   5.294 131.604  0.00  0.00    -0.484 OA
BRANCH  24  25
ATOM     25  C   LIG A   1      -5.839   6.559 131.470  0.00  0.00    +0.256 C 
BRANCH  25  26
ATOM     26  C   LIG A   1      -7.307   6.326 131.692  0.00  0.00    +0.006 C 
ATOM     27  C   LIG A   1      -8.283   6.831 130.940  0.00  0.00    +0.007 C 
ENDBRANCH  25  26
ENDBRANCH  24  25
ENDBRANCH   9  24
TORSDOF 6
ENDMDL
MODEL 9
REMARK VINA RESULT:      -6.7      2.992      4.638
REMARK  Name = NuBBE_2480
REMARK  9 active torsions:
REMARK  status: ('A' for Active; 'I' for Inactive)
REMARK    1  A    between atoms: C_1  and  C_2
REMARK    2  A    between atoms: C_4  and  C_19
REMARK    3  A    between atoms: C_10  and  O_17
REMARK    4  A    between atoms: C_11  and  O_13
REMARK    5  A    between atoms: O_13  and  C_14
REMARK    6  A    between atoms: C_14  and  C_15
REMARK    7  A    between atoms: O_17  and  C_18
REMARK    8  A    between atoms: C_23  and  O_25
REMARK    9  A    between atoms: O_25  and  C_26
REMARK                            x       y       z     vdW  Elec       q    Type
REMARK                         _______ _______ _______ _____ _____    ______ ____
ROOT
ATOM      1  C   LIG A   1      -5.574   3.872 126.051  0.00  0.00    +0.016 C 
ATOM      2  C   LIG A   1      -7.028   3.740 126.499  0.00  0.00    +0.065 C 
ATOM      3  C   LIG A   1      -7.147   2.998 127.862  0.00  0.00    +0.211 C 
ATOM      4  O   LIG A   1      -7.467   1.606 127.599  0.00  0.00    -0.483 OA
ATOM      5  C   LIG A   1      -7.969   1.605 126.323  0.00  0.00    +0.129 A 
ATOM      6  C   LIG A   1      -7.770   2.783 125.628  0.00  0.00    +0.005 A 
ATOM      7  C   LIG A   1      -8.242   2.909 124.331  0.00  0.00    +0.057 A 
ATOM      8  C   LIG A   1      -8.935   1.828 123.750  0.00  0.00    +0.162 A 
ATOM      9  C   LIG A   1      -9.109   0.621 124.474  0.00  0.00    +0.166 A 
ATOM     10  C   LIG A   1      -8.652   0.535 125.790  0.00  0.00    +0.095 A 
ENDROOT
BRANCH   3  11
ATOM     11  C   LIG A   1      -8.196   3.582 128.804  0.00  0.00    +0.000 A 
ATOM     12  C   LIG A   1      -8.483   4.957 128.815  0.00  0.00    +0.057 A 
ATOM     13  C   LIG A   1      -9.418   5.431 129.706  0.00  0.00    +0.170 A 
ATOM     14  C   LIG A   1     -10.088   4.608 130.580  0.00  0.00    +0.207 A 
ATOM     15  C   LIG A   1      -9.860   3.242 130.590  0.00  0.00    +0.166 A 
ATOM     16  C   LIG A   1      -8.899   2.737 129.695  0.00  0.00    +0.057 A 
ATOM     17  O   LIG A   1     -10.941   5.321 131.369  0.00  0.00    -0.449 OA
ATOM     18  C   LIG A   1     -10.715   6.665 130.906  0.00  0.00    +0.467 C 
ATOM     19  O   LIG A   1      -9.773   6.740 129.825  0.00  0.00    -0.453 OA
BRANCH  15  20
ATOM     20  O   LIG A   1     -10.462   2.300 131.374  0.00  0.00    -0.491 OA
ATOM     21  C   LIG A   1      -9.602   1.423 132.093  0.00  0.00    +0.277 C 
ENDBRANCH  15  20
ENDBRANCH   3  11
BRANCH   8  22
ATOM     22  O   LIG A   1      -9.361   2.076 122.466  0.00  0.00    -0.491 OA
ATOM     23  C   LIG A   1      -8.703   3.134 121.775  0.00  0.00    +0.277 C 
ENDBRANCH   8  22
BRANCH   9  24
ATOM     24  O   LIG A   1      -9.775  -0.421 123.883  0.00  0.00    -0.484 OA
BRANCH  24  25
ATOM     25  C   LIG A   1      -9.050  -1.179 122.913  0.00  0.00    +0.256 C 
BRANCH  25  26
ATOM     26  C   LIG A   1      -9.117  -2.618 123.341  0.00  0.00    +0.006 C 
ATOM     27  C   LIG A   1      -9.299  -3.035 124.593  0.00  0.00    +0.007 C 
ENDBRANCH  25  26
ENDBRANCH  24  25
ENDBRANCH   9  24
TORSDOF 6
ENDMDL
