MODEL 1
REMARK VINA RESULT:      -7.4      0.000      0.000
REMARK  Name = NuBBE_2232
REMARK  5 active torsions:
REMARK  status: ('A' for Active; 'I' for Inactive)
REMARK    1  A    between atoms: C_1  and  C_2
REMARK    2  A    between atoms: C_8  and  O_9
REMARK    3  A    between atoms: C_10  and  O_12
REMARK    4  A    between atoms: C_20  and  C_21
REMARK    5  A    between atoms: C_20  and  C_22
REMARK                            x       y       z     vdW  Elec       q    Type
REMARK                         _______ _______ _______ _____ _____    ______ ____
ROOT
ATOM      1  C   LIG A   1      -7.304  -2.178 123.553  0.00  0.00    +0.014 C 
ATOM      2  C   LIG A   1      -7.858  -1.737 124.947  0.00  0.00    +0.003 C 
ATOM      3  C   LIG A   1      -6.619  -1.860 125.990  0.00  0.00    +0.003 C 
ATOM      4  C   LIG A   1      -5.554  -0.788 125.712  0.00  0.00    +0.005 C 
ATOM      5  C   LIG A   1      -6.073   0.635 125.640  0.00  0.00    +0.010 C 
ATOM      6  C   LIG A   1      -7.316   0.839 124.753  0.00  0.00    +0.007 C 
ATOM      7  C   LIG A   1      -6.886   1.012 123.264  0.00  0.00    +0.040 C 
ATOM      8  C   LIG A   1      -8.461  -0.242 124.888  0.00  0.00    +0.103 C 
ATOM      9  C   LIG A   1      -9.637   0.099 123.881  0.00  0.00    +0.148 C 
ATOM     10  C   LIG A   1      -9.927   1.629 123.842  0.00  0.00    +0.042 C 
ATOM     11  C   LIG A   1      -8.694   2.565 123.849  0.00  0.00    +0.018 C 
ATOM     12  C   LIG A   1      -7.908   2.247 125.109  0.00  0.00    +0.018 C 
ATOM     13  C   LIG A   1      -7.512   2.336 122.918  0.00  0.00    -0.073 C 
ATOM     14  C   LIG A   1      -6.843   3.287 122.298  0.00  0.00    +0.008 C 
ATOM     15  C   LIG A   1      -7.001  -2.069 127.516  0.00  0.00    -0.032 C 
ATOM     16  C   LIG A   1      -5.863  -2.504 128.488  0.00  0.00    +0.011 C 
ATOM     17  C   LIG A   1      -7.513  -0.793 128.220  0.00  0.00    +0.011 C 
ATOM     18  C   LIG A   1      -7.936  -3.306 127.511  0.00  0.00    +0.007 C 
ATOM     19  C   LIG A   1      -9.215  -3.159 126.723  0.00  0.00    +0.001 C 
ATOM     20  C   LIG A   1      -8.958  -2.807 125.262  0.00  0.00    +0.010 C 
ENDROOT
BRANCH   8  21
ATOM     21  O   LIG A   1      -9.144   0.017 126.132  0.00  0.00    -0.385 OA
ATOM     22  H   LIG A   1      -8.640   0.650 126.659  0.00  0.00    +0.210 HD
ENDBRANCH   8  21
BRANCH   9  23
ATOM     23  O   LIG A   1      -9.479  -0.350 122.546  0.00  0.00    -0.389 OA
ATOM     24  H   LIG A   1      -8.604  -0.061 122.238  0.00  0.00    +0.210 HD
ENDBRANCH   9  23
TORSDOF 2
ENDMDL
MODEL 2
REMARK VINA RESULT:      -7.2      1.512      5.034
REMARK  Name = NuBBE_2232
REMARK  5 active torsions:
REMARK  status: ('A' for Active; 'I' for Inactive)
REMARK    1  A    between atoms: C_1  and  C_2
REMARK    2  A    between atoms: C_8  and  O_9
REMARK    3  A    between atoms: C_10  and  O_12
REMARK    4  A    between atoms: C_20  and  C_21
REMARK    5  A    between atoms: C_20  and  C_22
REMARK                            x       y       z     vdW  Elec       q    Type
REMARK                         _______ _______ _______ _____ _____    ______ ____
ROOT
ATOM      1  C   LIG A   1     -10.080   1.264 124.523  0.00  0.00    +0.014 C 
ATOM      2  C   LIG A   1      -8.528   1.409 124.396  0.00  0.00    +0.003 C 
ATOM      3  C   LIG A   1      -8.059   2.375 125.615  0.00  0.00    +0.003 C 
ATOM      4  C   LIG A   1      -8.209   1.667 126.971  0.00  0.00    +0.005 C 
ATOM      5  C   LIG A   1      -7.550   0.304 127.064  0.00  0.00    +0.010 C 
ATOM      6  C   LIG A   1      -7.850  -0.655 125.896  0.00  0.00    +0.007 C 
ATOM      7  C   LIG A   1      -9.205  -1.389 126.144  0.00  0.00    +0.040 C 
ATOM      8  C   LIG A   1      -7.803  -0.031 124.444  0.00  0.00    +0.103 C 
ATOM      9  C   LIG A   1      -8.174  -1.142 123.376  0.00  0.00    +0.148 C 
ATOM     10  C   LIG A   1      -7.516  -2.510 123.723  0.00  0.00    +0.042 C 
ATOM     11  C   LIG A   1      -7.525  -2.919 125.217  0.00  0.00    +0.018 C 
ATOM     12  C   LIG A   1      -6.805  -1.820 125.978  0.00  0.00    +0.018 C 
ATOM     13  C   LIG A   1      -8.787  -2.832 126.062  0.00  0.00    -0.073 C 
ATOM     14  C   LIG A   1      -9.158  -3.721 126.961  0.00  0.00    +0.008 C 
ATOM     15  C   LIG A   1      -6.703   3.169 125.401  0.00  0.00    -0.032 C 
ATOM     16  C   LIG A   1      -6.387   4.330 126.393  0.00  0.00    +0.011 C 
ATOM     17  C   LIG A   1      -5.432   2.304 125.552  0.00  0.00    +0.011 C 
ATOM     18  C   LIG A   1      -6.903   3.916 124.058  0.00  0.00    +0.007 C 
ATOM     19  C   LIG A   1      -7.130   3.041 122.848  0.00  0.00    +0.001 C 
ATOM     20  C   LIG A   1      -8.335   2.123 123.015  0.00  0.00    +0.010 C 
ENDROOT
BRANCH   8  21
ATOM     21  O   LIG A   1      -6.413   0.154 124.107  0.00  0.00    -0.385 OA
ATOM     22  H   LIG A   1      -6.206  -0.322 123.292  0.00  0.00    +0.210 HD
ENDBRANCH   8  21
BRANCH   9  23
ATOM     23  O   LIG A   1      -9.555  -1.367 123.148  0.00  0.00    -0.389 OA
ATOM     24  H   LIG A   1      -9.968  -1.565 124.005  0.00  0.00    +0.210 HD
ENDBRANCH   9  23
TORSDOF 2
ENDMDL
MODEL 3
REMARK VINA RESULT:      -7.1      1.974      4.133
REMARK  Name = NuBBE_2232
REMARK  5 active torsions:
REMARK  status: ('A' for Active; 'I' for Inactive)
REMARK    1  A    between atoms: C_1  and  C_2
REMARK    2  A    between atoms: C_8  and  O_9
REMARK    3  A    between atoms: C_10  and  O_12
REMARK    4  A    between atoms: C_20  and  C_21
REMARK    5  A    between atoms: C_20  and  C_22
REMARK                            x       y       z     vdW  Elec       q    Type
REMARK                         _______ _______ _______ _____ _____    ______ ____
ROOT
ATOM      1  C   LIG A   1      -6.804  -1.754 127.709  0.00  0.00    +0.014 C 
ATOM      2  C   LIG A   1      -6.773  -1.549 126.159  0.00  0.00    +0.003 C 
ATOM      3  C   LIG A   1      -8.208  -2.066 125.602  0.00  0.00    +0.003 C 
ATOM      4  C   LIG A   1      -9.341  -1.120 126.031  0.00  0.00    +0.005 C 
ATOM      5  C   LIG A   1      -9.118   0.344 125.703  0.00  0.00    +0.010 C 
ATOM      6  C   LIG A   1      -7.740   0.907 126.100  0.00  0.00    +0.007 C 
ATOM      7  C   LIG A   1      -7.750   1.333 127.601  0.00  0.00    +0.040 C 
ATOM      8  C   LIG A   1      -6.489  -0.007 125.781  0.00  0.00    +0.103 C 
ATOM      9  C   LIG A   1      -5.168   0.705 126.290  0.00  0.00    +0.148 C 
ATOM     10  C   LIG A   1      -5.190   2.232 125.987  0.00  0.00    +0.042 C 
ATOM     11  C   LIG A   1      -6.535   2.962 126.226  0.00  0.00    +0.018 C 
ATOM     12  C   LIG A   1      -7.569   2.274 125.353  0.00  0.00    +0.018 C 
ATOM     13  C   LIG A   1      -7.329   2.775 127.510  0.00  0.00    -0.073 C 
ATOM     14  C   LIG A   1      -7.968   3.732 128.151  0.00  0.00    +0.008 C 
ATOM     15  C   LIG A   1      -8.246  -2.541 124.088  0.00  0.00    -0.032 C 
ATOM     16  C   LIG A   1      -9.504  -3.330 123.615  0.00  0.00    +0.011 C 
ATOM     17  C   LIG A   1      -8.223  -1.387 123.062  0.00  0.00    +0.011 C 
ATOM     18  C   LIG A   1      -7.122  -3.604 123.992  0.00  0.00    +0.007 C 
ATOM     19  C   LIG A   1      -5.726  -3.113 124.295  0.00  0.00    +0.001 C 
ATOM     20  C   LIG A   1      -5.619  -2.496 125.685  0.00  0.00    +0.010 C 
ENDROOT
BRANCH   8  21
ATOM     21  O   LIG A   1      -6.258   0.073 124.359  0.00  0.00    -0.385 OA
ATOM     22  H   LIG A   1      -5.574  -0.558 124.101  0.00  0.00    +0.210 HD
ENDBRANCH   8  21
BRANCH   9  23
ATOM     23  O   LIG A   1      -4.842   0.535 127.659  0.00  0.00    -0.389 OA
ATOM     24  H   LIG A   1      -4.599  -0.396 127.792  0.00  0.00    +0.210 HD
ENDBRANCH   9  23
TORSDOF 2
ENDMDL
MODEL 4
REMARK VINA RESULT:      -7.0      2.102      4.299
REMARK  Name = NuBBE_2232
REMARK  5 active torsions:
REMARK  status: ('A' for Active; 'I' for Inactive)
REMARK    1  A    between atoms: C_1  and  C_2
REMARK    2  A    between atoms: C_8  and  O_9
REMARK    3  A    between atoms: C_10  and  O_12
REMARK    4  A    between atoms: C_20  and  C_21
REMARK    5  A    between atoms: C_20  and  C_22
REMARK                            x       y       z     vdW  Elec       q    Type
REMARK                         _______ _______ _______ _____ _____    ______ ____
ROOT
ATOM      1  C   LIG A   1      -8.581   0.565 127.184  0.00  0.00    +0.014 C 
ATOM      2  C   LIG A   1      -7.142  -0.038 127.287  0.00  0.00    +0.003 C 
ATOM      3  C   LIG A   1      -7.131  -0.967 128.619  0.00  0.00    +0.003 C 
ATOM      4  C   LIG A   1      -7.995  -2.223 128.424  0.00  0.00    +0.005 C 
ATOM      5  C   LIG A   1      -7.681  -3.037 127.184  0.00  0.00    +0.010 C 
ATOM      6  C   LIG A   1      -7.567  -2.229 125.877  0.00  0.00    +0.007 C 
ATOM      7  C   LIG A   1      -8.984  -2.002 125.265  0.00  0.00    +0.040 C 
ATOM      8  C   LIG A   1      -6.762  -0.870 125.958  0.00  0.00    +0.103 C 
ATOM      9  C   LIG A   1      -6.780  -0.157 124.543  0.00  0.00    +0.148 C 
ATOM     10  C   LIG A   1      -6.584  -1.180 123.386  0.00  0.00    +0.042 C 
ATOM     11  C   LIG A   1      -7.339  -2.525 123.520  0.00  0.00    +0.018 C 
ATOM     12  C   LIG A   1      -6.878  -3.160 124.820  0.00  0.00    +0.018 C 
ATOM     13  C   LIG A   1      -8.816  -2.580 123.886  0.00  0.00    -0.073 C 
ATOM     14  C   LIG A   1      -9.694  -3.410 123.362  0.00  0.00    +0.008 C 
ATOM     15  C   LIG A   1      -5.718  -1.205 129.300  0.00  0.00    -0.032 C 
ATOM     16  C   LIG A   1      -5.706  -1.814 130.735  0.00  0.00    +0.011 C 
ATOM     17  C   LIG A   1      -4.815  -2.209 128.550  0.00  0.00    +0.011 C 
ATOM     18  C   LIG A   1      -5.159   0.223 129.532  0.00  0.00    +0.007 C 
ATOM     19  C   LIG A   1      -4.947   1.055 128.291  0.00  0.00    +0.001 C 
ATOM     20  C   LIG A   1      -6.227   1.219 127.479  0.00  0.00    +0.010 C 
ENDROOT
BRANCH   8  21
ATOM     21  O   LIG A   1      -5.362  -1.210 126.025  0.00  0.00    -0.385 OA
ATOM     22  H   LIG A   1      -5.260  -2.166 126.120  0.00  0.00    +0.210 HD
ENDBRANCH   8  21
BRANCH   9  23
ATOM     23  O   LIG A   1      -7.921   0.629 124.243  0.00  0.00    -0.389 OA
ATOM     24  H   LIG A   1      -7.675   1.562 124.353  0.00  0.00    +0.210 HD
ENDBRANCH   9  23
TORSDOF 2
ENDMDL
MODEL 5
REMARK VINA RESULT:      -6.8      1.819      2.581
REMARK  Name = NuBBE_2232
REMARK  5 active torsions:
REMARK  status: ('A' for Active; 'I' for Inactive)
REMARK    1  A    between atoms: C_1  and  C_2
REMARK    2  A    between atoms: C_8  and  O_9
REMARK    3  A    between atoms: C_10  and  O_12
REMARK    4  A    between atoms: C_20  and  C_21
REMARK    5  A    between atoms: C_20  and  C_22
REMARK                            x       y       z     vdW  Elec       q    Type
REMARK                         _______ _______ _______ _____ _____    ______ ____
ROOT
ATOM      1  C   LIG A   1      -5.698  -2.027 125.384  0.00  0.00    +0.014 C 
ATOM      2  C   LIG A   1      -6.823  -1.778 126.442  0.00  0.00    +0.003 C 
ATOM      3  C   LIG A   1      -6.264  -2.365 127.849  0.00  0.00    +0.003 C 
ATOM      4  C   LIG A   1      -5.114  -1.500 128.390  0.00  0.00    +0.005 C 
ATOM      5  C   LIG A   1      -5.414  -0.018 128.493  0.00  0.00    +0.010 C 
ATOM      6  C   LIG A   1      -6.046   0.616 127.239  0.00  0.00    +0.007 C 
ATOM      7  C   LIG A   1      -4.932   0.999 126.216  0.00  0.00    +0.040 C 
ATOM      8  C   LIG A   1      -7.196  -0.212 126.538  0.00  0.00    +0.103 C 
ATOM      9  C   LIG A   1      -7.700   0.564 125.251  0.00  0.00    +0.148 C 
ATOM     10  C   LIG A   1      -7.808   2.095 125.513  0.00  0.00    +0.042 C 
ATOM     11  C   LIG A   1      -6.662   2.736 126.334  0.00  0.00    +0.018 C 
ATOM     12  C   LIG A   1      -6.618   2.011 127.667  0.00  0.00    +0.018 C 
ATOM     13  C   LIG A   1      -5.200   2.466 126.011  0.00  0.00    -0.073 C 
ATOM     14  C   LIG A   1      -4.238   3.365 126.049  0.00  0.00    +0.008 C 
ATOM     15  C   LIG A   1      -7.356  -2.799 128.915  0.00  0.00    -0.032 C 
ATOM     16  C   LIG A   1      -6.876  -3.649 130.130  0.00  0.00    +0.011 C 
ATOM     17  C   LIG A   1      -8.039  -1.618 129.638  0.00  0.00    +0.011 C 
ATOM     18  C   LIG A   1      -8.268  -3.790 128.146  0.00  0.00    +0.007 C 
ATOM     19  C   LIG A   1      -8.985  -3.225 126.943  0.00  0.00    +0.001 C 
ATOM     20  C   LIG A   1      -8.021  -2.641 125.917  0.00  0.00    +0.010 C 
ENDROOT
BRANCH   8  21
ATOM     21  O   LIG A   1      -8.375  -0.079 127.359  0.00  0.00    -0.385 OA
ATOM     22  H   LIG A   1      -8.744  -0.951 127.548  0.00  0.00    +0.210 HD
ENDBRANCH   8  21
BRANCH   9  23
ATOM     23  O   LIG A   1      -6.950   0.376 124.062  0.00  0.00    -0.389 OA
ATOM     24  H   LIG A   1      -7.357   0.918 123.366  0.00  0.00    +0.210 HD
ENDBRANCH   9  23
TORSDOF 2
ENDMDL
MODEL 6
REMARK VINA RESULT:      -6.8      6.097      7.914
REMARK  Name = NuBBE_2232
REMARK  5 active torsions:
REMARK  status: ('A' for Active; 'I' for Inactive)
REMARK    1  A    between atoms: C_1  and  C_2
REMARK    2  A    between atoms: C_8  and  O_9
REMARK    3  A    between atoms: C_10  and  O_12
REMARK    4  A    between atoms: C_20  and  C_21
REMARK    5  A    between atoms: C_20  and  C_22
REMARK                            x       y       z     vdW  Elec       q    Type
REMARK                         _______ _______ _______ _____ _____    ______ ____
ROOT
ATOM      1  C   LIG A   1      -2.135   3.525 127.486  0.00  0.00    +0.014 C 
ATOM      2  C   LIG A   1      -3.678   3.771 127.432  0.00  0.00    +0.003 C 
ATOM      3  C   LIG A   1      -4.376   2.407 127.969  0.00  0.00    +0.003 C 
ATOM      4  C   LIG A   1      -4.131   2.216 129.474  0.00  0.00    +0.005 C 
ATOM      5  C   LIG A   1      -4.500   3.401 130.344  0.00  0.00    +0.010 C 
ATOM      6  C   LIG A   1      -3.970   4.765 129.861  0.00  0.00    +0.007 C 
ATOM      7  C   LIG A   1      -2.503   4.970 130.351  0.00  0.00    +0.040 C 
ATOM      8  C   LIG A   1      -4.094   5.058 128.312  0.00  0.00    +0.103 C 
ATOM      9  C   LIG A   1      -3.466   6.477 127.988  0.00  0.00    +0.148 C 
ATOM     10  C   LIG A   1      -3.842   7.528 129.073  0.00  0.00    +0.042 C 
ATOM     11  C   LIG A   1      -3.800   7.044 130.544  0.00  0.00    +0.018 C 
ATOM     12  C   LIG A   1      -4.756   5.869 130.648  0.00  0.00    +0.018 C 
ATOM     13  C   LIG A   1      -2.612   6.272 131.098  0.00  0.00    -0.073 C 
ATOM     14  C   LIG A   1      -2.098   6.435 132.300  0.00  0.00    +0.008 C 
ATOM     15  C   LIG A   1      -5.859   2.133 127.475  0.00  0.00    -0.032 C 
ATOM     16  C   LIG A   1      -6.440   0.705 127.704  0.00  0.00    +0.011 C 
ATOM     17  C   LIG A   1      -6.929   2.999 128.176  0.00  0.00    +0.011 C 
ATOM     18  C   LIG A   1      -5.770   2.220 125.930  0.00  0.00    +0.007 C 
ATOM     19  C   LIG A   1      -5.328   3.551 125.371  0.00  0.00    +0.001 C 
ATOM     20  C   LIG A   1      -3.966   3.980 125.906  0.00  0.00    +0.010 C 
ENDROOT
BRANCH   8  21
ATOM     21  O   LIG A   1      -5.480   5.356 128.047  0.00  0.00    -0.385 OA
ATOM     22  H   LIG A   1      -5.700   5.115 127.138  0.00  0.00    +0.210 HD
ENDBRANCH   8  21
BRANCH   9  23
ATOM     23  O   LIG A   1      -2.061   6.522 127.803  0.00  0.00    -0.389 OA
ATOM     24  H   LIG A   1      -1.645   6.460 128.679  0.00  0.00    +0.210 HD
ENDBRANCH   9  23
TORSDOF 2
ENDMDL
MODEL 7
REMARK VINA RESULT:      -6.7      7.770      9.556
REMARK  Name = NuBBE_2232
REMARK  5 active torsions:
REMARK  status: ('A' for Active; 'I' for Inactive)
REMARK    1  A    between atoms: C_1  and  C_2
REMARK    2  A    between atoms: C_8  and  O_9
REMARK    3  A    between atoms: C_10  and  O_12
REMARK    4  A    between atoms: C_20  and  C_21
REMARK    5  A    between atoms: C_20  and  C_22
REMARK                            x       y       z     vdW  Elec       q    Type
REMARK                         _______ _______ _______ _____ _____    ______ ____
ROOT
ATOM      1  C   LIG A   1      -5.762   6.671 131.345  0.00  0.00    +0.014 C 
ATOM      2  C   LIG A   1      -4.341   6.143 131.730  0.00  0.00    +0.003 C 
ATOM      3  C   LIG A   1      -4.576   4.797 132.607  0.00  0.00    +0.003 C 
ATOM      4  C   LIG A   1      -5.120   3.656 131.734  0.00  0.00    +0.005 C 
ATOM      5  C   LIG A   1      -4.318   3.362 130.482  0.00  0.00    +0.010 C 
ATOM      6  C   LIG A   1      -3.952   4.592 129.629  0.00  0.00    +0.007 C 
ATOM      7  C   LIG A   1      -5.137   4.955 128.681  0.00  0.00    +0.040 C 
ATOM      8  C   LIG A   1      -3.447   5.867 130.416  0.00  0.00    +0.103 C 
ATOM      9  C   LIG A   1      -3.157   7.043 129.392  0.00  0.00    +0.148 C 
ATOM     10  C   LIG A   1      -2.454   6.518 128.105  0.00  0.00    +0.042 C 
ATOM     11  C   LIG A   1      -2.980   5.180 127.530  0.00  0.00    +0.018 C 
ATOM     12  C   LIG A   1      -2.833   4.141 128.628  0.00  0.00    +0.018 C 
ATOM     13  C   LIG A   1      -4.468   4.924 127.333  0.00  0.00    -0.073 C 
ATOM     14  C   LIG A   1      -4.997   4.297 126.303  0.00  0.00    +0.008 C 
ATOM     15  C   LIG A   1      -3.414   4.399 133.612  0.00  0.00    -0.032 C 
ATOM     16  C   LIG A   1      -3.732   3.314 134.684  0.00  0.00    +0.011 C 
ATOM     17  C   LIG A   1      -2.174   3.780 132.931  0.00  0.00    +0.011 C 
ATOM     18  C   LIG A   1      -3.197   5.672 134.470  0.00  0.00    +0.007 C 
ATOM     19  C   LIG A   1      -2.763   6.906 133.716  0.00  0.00    +0.001 C 
ATOM     20  C   LIG A   1      -3.749   7.290 132.618  0.00  0.00    +0.010 C 
ENDROOT
BRANCH   8  21
ATOM     21  O   LIG A   1      -2.095   5.596 130.840  0.00  0.00    -0.385 OA
ATOM     22  H   LIG A   1      -1.842   6.206 131.544  0.00  0.00    +0.210 HD
ENDBRANCH   8  21
BRANCH   9  23
ATOM     23  O   LIG A   1      -4.269   7.827 128.995  0.00  0.00    -0.389 OA
ATOM     24  H   LIG A   1      -4.779   7.310 128.349  0.00  0.00    +0.210 HD
ENDBRANCH   9  23
TORSDOF 2
ENDMDL
MODEL 8
REMARK VINA RESULT:      -6.6      6.704      9.203
REMARK  Name = NuBBE_2232
REMARK  5 active torsions:
REMARK  status: ('A' for Active; 'I' for Inactive)
REMARK    1  A    between atoms: C_1  and  C_2
REMARK    2  A    between atoms: C_8  and  O_9
REMARK    3  A    between atoms: C_10  and  O_12
REMARK    4  A    between atoms: C_20  and  C_21
REMARK    5  A    between atoms: C_20  and  C_22
REMARK                            x       y       z     vdW  Elec       q    Type
REMARK                         _______ _______ _______ _____ _____    ______ ____
ROOT
ATOM      1  C   LIG A   1      -3.130   4.490 131.987  0.00  0.00    +0.014 C 
ATOM      2  C   LIG A   1      -3.734   5.025 130.647  0.00  0.00    +0.003 C 
ATOM      3  C   LIG A   1      -3.387   3.913 129.515  0.00  0.00    +0.003 C 
ATOM      4  C   LIG A   1      -4.191   2.624 129.741  0.00  0.00    +0.005 C 
ATOM      5  C   LIG A   1      -5.689   2.814 129.884  0.00  0.00    +0.010 C 
ATOM      6  C   LIG A   1      -6.123   3.922 130.863  0.00  0.00    +0.007 C 
ATOM      7  C   LIG A   1      -6.141   3.368 132.321  0.00  0.00    +0.040 C 
ATOM      8  C   LIG A   1      -5.320   5.282 130.784  0.00  0.00    +0.103 C 
ATOM      9  C   LIG A   1      -5.869   6.286 131.881  0.00  0.00    +0.148 C 
ATOM     10  C   LIG A   1      -7.422   6.233 131.977  0.00  0.00    +0.042 C 
ATOM     11  C   LIG A   1      -8.069   4.828 131.904  0.00  0.00    +0.018 C 
ATOM     12  C   LIG A   1      -7.638   4.214 130.584  0.00  0.00    +0.018 C 
ATOM     13  C   LIG A   1      -7.555   3.666 132.742  0.00  0.00    -0.073 C 
ATOM     14  C   LIG A   1      -8.313   2.767 133.335  0.00  0.00    +0.008 C 
ATOM     15  C   LIG A   1      -3.325   4.430 128.016  0.00  0.00    -0.032 C 
ATOM     16  C   LIG A   1      -2.692   3.480 126.955  0.00  0.00    +0.011 C 
ATOM     17  C   LIG A   1      -4.708   4.696 127.381  0.00  0.00    +0.011 C 
ATOM     18  C   LIG A   1      -2.320   5.610 128.059  0.00  0.00    +0.007 C 
ATOM     19  C   LIG A   1      -2.709   6.772 128.940  0.00  0.00    +0.001 C 
ATOM     20  C   LIG A   1      -2.940   6.350 130.387  0.00  0.00    +0.010 C 
ENDROOT
BRANCH   8  21
ATOM     21  O   LIG A   1      -5.769   5.971 129.599  0.00  0.00    -0.385 OA
ATOM     22  H   LIG A   1      -5.564   6.912 129.669  0.00  0.00    +0.210 HD
ENDBRANCH   8  21
BRANCH   9  23
ATOM     23  O   LIG A   1      -5.345   6.144 133.191  0.00  0.00    -0.389 OA
ATOM     24  H   LIG A   1      -6.003   5.667 133.723  0.00  0.00    +0.210 HD
ENDBRANCH   9  23
TORSDOF 2
ENDMDL
MODEL 9
REMARK VINA RESULT:      -6.6      8.718     11.012
REMARK  Name = NuBBE_2232
REMARK  5 active torsions:
REMARK  status: ('A' for Active; 'I' for Inactive)
REMARK    1  A    between atoms: C_1  and  C_2
REMARK    2  A    between atoms: C_8  and  O_9
REMARK    3  A    between atoms: C_10  and  O_12
REMARK    4  A    between atoms: C_20  and  C_21
REMARK    5  A    between atoms: C_20  and  C_22
REMARK                            x       y       z     vdW  Elec       q    Type
REMARK                         _______ _______ _______ _____ _____    ______ ____
ROOT
ATOM      1  C   LIG A   1      -2.825   3.151 132.782  0.00  0.00    +0.014 C 
ATOM      2  C   LIG A   1      -2.917   4.690 132.522  0.00  0.00    +0.003 C 
ATOM      3  C   LIG A   1      -2.950   4.880 130.910  0.00  0.00    +0.003 C 
ATOM      4  C   LIG A   1      -4.276   4.372 130.321  0.00  0.00    +0.005 C 
ATOM      5  C   LIG A   1      -5.527   4.936 130.967  0.00  0.00    +0.010 C 
ATOM      6  C   LIG A   1      -5.549   4.896 132.508  0.00  0.00    +0.007 C 
ATOM      7  C   LIG A   1      -6.029   3.495 132.999  0.00  0.00    +0.040 C 
ATOM      8  C   LIG A   1      -4.214   5.325 133.240  0.00  0.00    +0.103 C 
ATOM      9  C   LIG A   1      -4.401   5.187 134.808  0.00  0.00    +0.148 C 
ATOM     10  C   LIG A   1      -5.805   5.686 135.261  0.00  0.00    +0.042 C 
ATOM     11  C   LIG A   1      -7.000   5.292 134.359  0.00  0.00    +0.018 C 
ATOM     12  C   LIG A   1      -6.707   5.843 132.975  0.00  0.00    +0.018 C 
ATOM     13  C   LIG A   1      -7.198   3.864 133.872  0.00  0.00    -0.073 C 
ATOM     14  C   LIG A   1      -8.359   3.249 133.784  0.00  0.00    +0.008 C 
ATOM     15  C   LIG A   1      -2.443   6.277 130.355  0.00  0.00    -0.032 C 
ATOM     16  C   LIG A   1      -2.162   6.382 128.825  0.00  0.00    +0.011 C 
ATOM     17  C   LIG A   1      -3.444   7.436 130.548  0.00  0.00    +0.011 C 
ATOM     18  C   LIG A   1      -1.030   6.443 130.971  0.00  0.00    +0.007 C 
ATOM     19  C   LIG A   1      -0.973   6.490 132.480  0.00  0.00    +0.001 C 
ATOM     20  C   LIG A   1      -1.579   5.246 133.120  0.00  0.00    +0.010 C 
ENDROOT
BRANCH   8  21
ATOM     21  O   LIG A   1      -4.123   6.761 133.147  0.00  0.00    -0.385 OA
ATOM     22  H   LIG A   1      -3.561   7.008 132.401  0.00  0.00    +0.210 HD
ENDBRANCH   8  21
BRANCH   9  23
ATOM     23  O   LIG A   1      -4.196   3.897 135.360  0.00  0.00    -0.389 OA
ATOM     24  H   LIG A   1      -3.858   4.012 136.264  0.00  0.00    +0.210 HD
ENDBRANCH   9  23
TORSDOF 2
ENDMDL
