MODEL 1
REMARK VINA RESULT:      -7.5      0.000      0.000
REMARK  Name = NuBBE_2465
REMARK  8 active torsions:
REMARK  status: ('A' for Active; 'I' for Inactive)
REMARK    1  A    between atoms: C_1  and  O_2
REMARK    2  A    between atoms: O_2  and  C_3
REMARK    3  A    between atoms: C_5  and  C_6
REMARK    4  A    between atoms: C_14  and  C_18
REMARK    5  A    between atoms: C_20  and  O_21
REMARK    6  A    between atoms: O_21  and  C_22
REMARK    7  A    between atoms: C_23  and  O_24
REMARK    8  A    between atoms: C_29  and  O_30
REMARK                            x       y       z     vdW  Elec       q    Type
REMARK                         _______ _______ _______ _____ _____    ______ ____
ROOT
ATOM      1  C   LIG A   1      -7.958   2.732 123.311  0.00  0.00    +0.154 C 
ATOM      2  C   LIG A   1      -7.009   1.921 124.204  0.00  0.00    +0.056 C 
ATOM      3  C   LIG A   1      -7.679   0.577 124.352  0.00  0.00    +0.056 C 
ATOM      4  C   LIG A   1      -8.545   0.482 123.120  0.00  0.00    +0.167 C 
ATOM      5  O   LIG A   1      -8.960   1.815 122.823  0.00  0.00    -0.371 OA
ATOM      6  C   LIG A   1      -8.499   0.690 125.644  0.00  0.00    +0.154 C 
ATOM      7  O   LIG A   1      -8.106   1.924 126.283  0.00  0.00    -0.371 OA
ATOM      8  C   LIG A   1      -6.947   2.434 125.623  0.00  0.00    +0.167 C 
ENDROOT
BRANCH   1  11
ATOM      9  C   LIG A   1      -7.270   4.275 119.853  0.00  0.00    +0.162 A 
ATOM     10  C   LIG A   1      -7.909   3.664 120.946  0.00  0.00    +0.055 A 
ATOM     11  C   LIG A   1      -7.240   3.417 122.158  0.00  0.00    -0.015 A 
ATOM     12  C   LIG A   1      -5.894   3.790 122.250  0.00  0.00    +0.010 A 
ATOM     13  C   LIG A   1      -5.244   4.402 121.176  0.00  0.00    +0.049 A 
ATOM     14  C   LIG A   1      -5.926   4.645 119.983  0.00  0.00    +0.159 A 
BRANCH   9  16
ATOM     15  C   LIG A   1      -9.496   4.350 118.977  0.00  0.00    +0.277 C 
ATOM     16  O   LIG A   1      -8.092   4.425 118.768  0.00  0.00    -0.491 OA
ENDBRANCH   9  16
BRANCH  14  17
ATOM     17  O   LIG A   1      -5.243   5.245 118.963  0.00  0.00    -0.503 OA
ATOM     18  H   LIG A   1      -4.305   5.313 119.206  0.00  0.00    +0.292 HD
ENDBRANCH  14  17
ENDBRANCH   1  11
BRANCH   6  19
ATOM     19  C   LIG A   1      -8.289  -0.503 126.569  0.00  0.00    -0.015 A 
ATOM     20  C   LIG A   1      -7.716  -0.343 127.845  0.00  0.00    +0.055 A 
ATOM     21  C   LIG A   1      -7.531  -1.434 128.695  0.00  0.00    +0.162 A 
ATOM     22  C   LIG A   1      -7.940  -2.697 128.264  0.00  0.00    +0.159 A 
ATOM     23  C   LIG A   1      -8.513  -2.888 127.013  0.00  0.00    +0.049 A 
ATOM     24  C   LIG A   1      -8.690  -1.791 126.167  0.00  0.00    +0.010 A 
BRANCH  21  25
ATOM     25  O   LIG A   1      -6.968  -1.396 129.946  0.00  0.00    -0.491 OA
ATOM     26  C   LIG A   1      -7.192  -0.213 130.705  0.00  0.00    +0.277 C 
ENDBRANCH  21  25
BRANCH  22  27
ATOM     27  O   LIG A   1      -7.786  -3.786 129.078  0.00  0.00    -0.503 OA
ATOM     28  H   LIG A   1      -8.682  -3.962 129.429  0.00  0.00    +0.292 HD
ENDBRANCH  22  27
ENDBRANCH   6  19
TORSDOF 6
ENDMDL
MODEL 2
REMARK VINA RESULT:      -7.3      0.948      8.719
REMARK  Name = NuBBE_2465
REMARK  8 active torsions:
REMARK  status: ('A' for Active; 'I' for Inactive)
REMARK    1  A    between atoms: C_1  and  O_2
REMARK    2  A    between atoms: O_2  and  C_3
REMARK    3  A    between atoms: C_5  and  C_6
REMARK    4  A    between atoms: C_14  and  C_18
REMARK    5  A    between atoms: C_20  and  O_21
REMARK    6  A    between atoms: O_21  and  C_22
REMARK    7  A    between atoms: C_23  and  O_24
REMARK    8  A    between atoms: C_29  and  O_30
REMARK                            x       y       z     vdW  Elec       q    Type
REMARK                         _______ _______ _______ _____ _____    ______ ____
ROOT
ATOM      1  C   LIG A   1      -8.970   0.282 125.661  0.00  0.00    +0.154 C 
ATOM      2  C   LIG A   1      -8.128   0.239 124.378  0.00  0.00    +0.056 C 
ATOM      3  C   LIG A   1      -7.714   1.671 124.147  0.00  0.00    +0.056 C 
ATOM      4  C   LIG A   1      -7.772   2.279 125.526  0.00  0.00    +0.167 C 
ATOM      5  O   LIG A   1      -8.831   1.610 126.210  0.00  0.00    -0.371 OA
ATOM      6  C   LIG A   1      -8.782   2.239 123.203  0.00  0.00    +0.154 C 
ATOM      7  O   LIG A   1      -9.584   1.123 122.759  0.00  0.00    -0.371 OA
ATOM      8  C   LIG A   1      -8.938  -0.089 123.147  0.00  0.00    +0.167 C 
ENDROOT
BRANCH   1  11
ATOM      9  C   LIG A   1      -7.477  -1.351 128.810  0.00  0.00    +0.162 A 
ATOM     10  C   LIG A   1      -7.897  -0.401 127.862  0.00  0.00    +0.055 A 
ATOM     11  C   LIG A   1      -8.553  -0.773 126.675  0.00  0.00    -0.015 A 
ATOM     12  C   LIG A   1      -8.773  -2.136 126.448  0.00  0.00    +0.010 A 
ATOM     13  C   LIG A   1      -8.368  -3.093 127.381  0.00  0.00    +0.049 A 
ATOM     14  C   LIG A   1      -7.723  -2.705 128.557  0.00  0.00    +0.159 A 
BRANCH   9  16
ATOM     15  C   LIG A   1      -5.438  -0.833 129.951  0.00  0.00    +0.277 C 
ATOM     16  O   LIG A   1      -6.858  -0.787 129.893  0.00  0.00    -0.491 OA
ENDBRANCH   9  16
BRANCH  14  17
ATOM     17  O   LIG A   1      -7.345  -3.681 129.435  0.00  0.00    -0.503 OA
ATOM     18  H   LIG A   1      -6.377  -3.767 129.417  0.00  0.00    +0.292 HD
ENDBRANCH  14  17
ENDBRANCH   1  11
BRANCH   6  19
ATOM     19  C   LIG A   1      -8.175   2.989 122.024  0.00  0.00    -0.015 A 
ATOM     20  C   LIG A   1      -6.786   3.209 121.939  0.00  0.00    +0.055 A 
ATOM     21  C   LIG A   1      -6.229   3.890 120.855  0.00  0.00    +0.162 A 
ATOM     22  C   LIG A   1      -7.073   4.341 119.840  0.00  0.00    +0.159 A 
ATOM     23  C   LIG A   1      -8.446   4.136 119.891  0.00  0.00    +0.049 A 
ATOM     24  C   LIG A   1      -8.996   3.457 120.982  0.00  0.00    +0.010 A 
BRANCH  21  25
ATOM     25  O   LIG A   1      -4.898   4.175 120.681  0.00  0.00    -0.491 OA
ATOM     26  C   LIG A   1      -4.334   5.133 121.569  0.00  0.00    +0.277 C 
ENDBRANCH  21  25
BRANCH  22  27
ATOM     27  O   LIG A   1      -6.557   4.999 118.757  0.00  0.00    -0.503 OA
ATOM     28  H   LIG A   1      -5.631   5.194 119.003  0.00  0.00    +0.292 HD
ENDBRANCH  22  27
ENDBRANCH   6  19
TORSDOF 6
ENDMDL
MODEL 3
REMARK VINA RESULT:      -7.3      3.162      4.347
REMARK  Name = NuBBE_2465
REMARK  8 active torsions:
REMARK  status: ('A' for Active; 'I' for Inactive)
REMARK    1  A    between atoms: C_1  and  O_2
REMARK    2  A    between atoms: O_2  and  C_3
REMARK    3  A    between atoms: C_5  and  C_6
REMARK    4  A    between atoms: C_14  and  C_18
REMARK    5  A    between atoms: C_20  and  O_21
REMARK    6  A    between atoms: O_21  and  C_22
REMARK    7  A    between atoms: C_23  and  O_24
REMARK    8  A    between atoms: C_29  and  O_30
REMARK                            x       y       z     vdW  Elec       q    Type
REMARK                         _______ _______ _______ _____ _____    ______ ____
ROOT
ATOM      1  C   LIG A   1      -6.096   3.294 124.110  0.00  0.00    +0.154 C 
ATOM      2  C   LIG A   1      -7.422   3.732 124.750  0.00  0.00    +0.056 C 
ATOM      3  C   LIG A   1      -7.043   4.187 126.137  0.00  0.00    +0.056 C 
ATOM      4  C   LIG A   1      -5.593   4.574 125.994  0.00  0.00    +0.167 C 
ATOM      5  O   LIG A   1      -5.043   3.697 125.011  0.00  0.00    -0.371 OA
ATOM      6  C   LIG A   1      -7.242   2.949 127.022  0.00  0.00    +0.154 C 
ATOM      7  O   LIG A   1      -7.915   1.960 126.213  0.00  0.00    -0.371 OA
ATOM      8  C   LIG A   1      -8.364   2.581 125.008  0.00  0.00    +0.167 C 
ENDROOT
BRANCH   1  11
ATOM      9  C   LIG A   1      -6.685   4.232 120.425  0.00  0.00    +0.162 A 
ATOM     10  C   LIG A   1      -6.856   3.716 121.721  0.00  0.00    +0.055 A 
ATOM     11  C   LIG A   1      -5.886   3.887 122.725  0.00  0.00    -0.015 A 
ATOM     12  C   LIG A   1      -4.719   4.585 122.396  0.00  0.00    +0.010 A 
ATOM     13  C   LIG A   1      -4.534   5.109 121.114  0.00  0.00    +0.049 A 
ATOM     14  C   LIG A   1      -5.511   4.934 120.132  0.00  0.00    +0.159 A 
BRANCH   9  16
ATOM     15  C   LIG A   1      -9.047   3.951 120.158  0.00  0.00    +0.277 C 
ATOM     16  O   LIG A   1      -7.740   3.958 119.597  0.00  0.00    -0.491 OA
ENDBRANCH   9  16
BRANCH  14  17
ATOM     17  O   LIG A   1      -5.279   5.465 118.894  0.00  0.00    -0.503 OA
ATOM     18  H   LIG A   1      -4.334   5.680 118.813  0.00  0.00    +0.292 HD
ENDBRANCH  14  17
ENDBRANCH   1  11
BRANCH   6  19
ATOM     19  C   LIG A   1      -8.032   3.261 128.287  0.00  0.00    -0.015 A 
ATOM     20  C   LIG A   1      -8.252   4.590 128.697  0.00  0.00    +0.055 A 
ATOM     21  C   LIG A   1      -8.982   4.877 129.852  0.00  0.00    +0.162 A 
ATOM     22  C   LIG A   1      -9.508   3.818 130.594  0.00  0.00    +0.159 A 
ATOM     23  C   LIG A   1      -9.312   2.496 130.213  0.00  0.00    +0.049 A 
ATOM     24  C   LIG A   1      -8.577   2.219 129.059  0.00  0.00    +0.010 A 
BRANCH  21  25
ATOM     25  O   LIG A   1      -9.240   6.128 130.353  0.00  0.00    -0.491 OA
ATOM     26  C   LIG A   1      -8.145   6.805 130.961  0.00  0.00    +0.277 C 
ENDBRANCH  21  25
BRANCH  22  27
ATOM     27  O   LIG A   1     -10.240   4.064 131.723  0.00  0.00    -0.503 OA
ATOM     28  H   LIG A   1      -9.574   4.252 132.415  0.00  0.00    +0.292 HD
ENDBRANCH  22  27
ENDBRANCH   6  19
TORSDOF 6
ENDMDL
MODEL 4
REMARK VINA RESULT:      -7.2      4.361      7.494
REMARK  Name = NuBBE_2465
REMARK  8 active torsions:
REMARK  status: ('A' for Active; 'I' for Inactive)
REMARK    1  A    between atoms: C_1  and  O_2
REMARK    2  A    between atoms: O_2  and  C_3
REMARK    3  A    between atoms: C_5  and  C_6
REMARK    4  A    between atoms: C_14  and  C_18
REMARK    5  A    between atoms: C_20  and  O_21
REMARK    6  A    between atoms: O_21  and  C_22
REMARK    7  A    between atoms: C_23  and  O_24
REMARK    8  A    between atoms: C_29  and  O_30
REMARK                            x       y       z     vdW  Elec       q    Type
REMARK                         _______ _______ _______ _____ _____    ______ ____
ROOT
ATOM      1  C   LIG A   1      -4.242   4.368 126.551  0.00  0.00    +0.154 C 
ATOM      2  C   LIG A   1      -5.766   4.374 126.363  0.00  0.00    +0.056 C 
ATOM      3  C   LIG A   1      -6.116   2.941 126.045  0.00  0.00    +0.056 C 
ATOM      4  C   LIG A   1      -4.985   2.160 126.665  0.00  0.00    +0.167 C 
ATOM      5  O   LIG A   1      -3.826   2.986 126.558  0.00  0.00    -0.371 OA
ATOM      6  C   LIG A   1      -6.115   2.870 124.512  0.00  0.00    +0.154 C 
ATOM      7  O   LIG A   1      -6.013   4.227 124.030  0.00  0.00    -0.371 OA
ATOM      8  C   LIG A   1      -6.208   5.120 125.127  0.00  0.00    +0.167 C 
ENDROOT
BRANCH   1  11
ATOM      9  C   LIG A   1      -4.307   5.828 130.111  0.00  0.00    +0.162 A 
ATOM     10  C   LIG A   1      -4.671   5.162 128.927  0.00  0.00    +0.055 A 
ATOM     11  C   LIG A   1      -3.803   5.076 127.824  0.00  0.00    -0.015 A 
ATOM     12  C   LIG A   1      -2.549   5.688 127.928  0.00  0.00    +0.010 A 
ATOM     13  C   LIG A   1      -2.168   6.349 129.097  0.00  0.00    +0.049 A 
ATOM     14  C   LIG A   1      -3.041   6.420 130.185  0.00  0.00    +0.159 A 
BRANCH   9  16
ATOM     15  C   LIG A   1      -6.197   6.895 131.120  0.00  0.00    +0.277 C 
ATOM     16  O   LIG A   1      -5.290   5.801 131.063  0.00  0.00    -0.491 OA
ENDBRANCH   9  16
BRANCH  14  17
ATOM     17  O   LIG A   1      -2.620   7.080 131.305  0.00  0.00    -0.503 OA
ATOM     18  H   LIG A   1      -2.054   7.825 131.040  0.00  0.00    +0.292 HD
ENDBRANCH  14  17
ENDBRANCH   1  11
BRANCH   6  19
ATOM     19  C   LIG A   1      -7.357   2.180 123.963  0.00  0.00    -0.015 A 
ATOM     20  C   LIG A   1      -7.741   0.903 124.418  0.00  0.00    +0.055 A 
ATOM     21  C   LIG A   1      -8.883   0.273 123.921  0.00  0.00    +0.162 A 
ATOM     22  C   LIG A   1      -9.656   0.939 122.968  0.00  0.00    +0.159 A 
ATOM     23  C   LIG A   1      -9.308   2.201 122.503  0.00  0.00    +0.049 A 
ATOM     24  C   LIG A   1      -8.161   2.822 123.003  0.00  0.00    +0.010 A 
BRANCH  21  25
ATOM     25  O   LIG A   1      -9.337  -0.972 124.277  0.00  0.00    -0.491 OA
ATOM     26  C   LIG A   1      -8.597  -2.082 123.780  0.00  0.00    +0.277 C 
ENDBRANCH  21  25
BRANCH  22  27
ATOM     27  O   LIG A   1     -10.789   0.356 122.471  0.00  0.00    -0.503 OA
ATOM     28  H   LIG A   1     -10.808  -0.535 122.874  0.00  0.00    +0.292 HD
ENDBRANCH  22  27
ENDBRANCH   6  19
TORSDOF 6
ENDMDL
MODEL 5
REMARK VINA RESULT:      -7.1      4.278      6.686
REMARK  Name = NuBBE_2465
REMARK  8 active torsions:
REMARK  status: ('A' for Active; 'I' for Inactive)
REMARK    1  A    between atoms: C_1  and  O_2
REMARK    2  A    between atoms: O_2  and  C_3
REMARK    3  A    between atoms: C_5  and  C_6
REMARK    4  A    between atoms: C_14  and  C_18
REMARK    5  A    between atoms: C_20  and  O_21
REMARK    6  A    between atoms: O_21  and  C_22
REMARK    7  A    between atoms: C_23  and  O_24
REMARK    8  A    between atoms: C_29  and  O_30
REMARK                            x       y       z     vdW  Elec       q    Type
REMARK                         _______ _______ _______ _____ _____    ______ ____
ROOT
ATOM      1  C   LIG A   1      -6.051   2.779 124.551  0.00  0.00    +0.154 C 
ATOM      2  C   LIG A   1      -5.912   2.682 126.077  0.00  0.00    +0.056 C 
ATOM      3  C   LIG A   1      -5.523   4.073 126.512  0.00  0.00    +0.056 C 
ATOM      4  C   LIG A   1      -6.061   4.948 125.408  0.00  0.00    +0.167 C 
ATOM      5  O   LIG A   1      -5.966   4.178 124.209  0.00  0.00    -0.371 OA
ATOM      6  C   LIG A   1      -3.990   4.053 126.559  0.00  0.00    +0.154 C 
ATOM      7  O   LIG A   1      -3.584   2.677 126.397  0.00  0.00    -0.371 OA
ATOM      8  C   LIG A   1      -4.736   1.842 126.514  0.00  0.00    +0.167 C 
ENDROOT
BRANCH   1  11
ATOM      9  C   LIG A   1      -9.004   0.352 124.094  0.00  0.00    +0.162 A 
ATOM     10  C   LIG A   1      -7.821   0.953 124.559  0.00  0.00    +0.055 A 
ATOM     11  C   LIG A   1      -7.349   2.171 124.038  0.00  0.00    -0.015 A 
ATOM     12  C   LIG A   1      -8.091   2.780 123.020  0.00  0.00    +0.010 A 
ATOM     13  C   LIG A   1      -9.271   2.200 122.548  0.00  0.00    +0.049 A 
ATOM     14  C   LIG A   1      -9.727   0.992 123.081  0.00  0.00    +0.159 A 
BRANCH   9  16
ATOM     15  C   LIG A   1      -8.723  -2.022 124.200  0.00  0.00    +0.277 C 
ATOM     16  O   LIG A   1      -9.288  -0.828 124.726  0.00  0.00    -0.491 OA
ENDBRANCH   9  16
BRANCH  14  17
ATOM     17  O   LIG A   1     -10.886   0.468 122.583  0.00  0.00    -0.503 OA
ATOM     18  H   LIG A   1     -10.743  -0.469 122.365  0.00  0.00    +0.292 HD
ENDBRANCH  14  17
ENDBRANCH   1  11
BRANCH   6  19
ATOM     19  C   LIG A   1      -3.441   4.644 127.852  0.00  0.00    -0.015 A 
ATOM     20  C   LIG A   1      -3.622   3.989 129.086  0.00  0.00    +0.055 A 
ATOM     21  C   LIG A   1      -3.113   4.527 130.269  0.00  0.00    +0.162 A 
ATOM     22  C   LIG A   1      -2.403   5.727 130.210  0.00  0.00    +0.159 A 
ATOM     23  C   LIG A   1      -2.204   6.396 129.009  0.00  0.00    +0.049 A 
ATOM     24  C   LIG A   1      -2.720   5.852 127.830  0.00  0.00    +0.010 A 
BRANCH  21  25
ATOM     25  O   LIG A   1      -3.246   3.985 131.523  0.00  0.00    -0.491 OA
ATOM     26  C   LIG A   1      -4.509   4.159 132.157  0.00  0.00    +0.277 C 
ENDBRANCH  21  25
BRANCH  22  27
ATOM     27  O   LIG A   1      -1.879   6.274 131.350  0.00  0.00    -0.503 OA
ATOM     28  H   LIG A   1      -2.658   6.527 131.885  0.00  0.00    +0.292 HD
ENDBRANCH  22  27
ENDBRANCH   6  19
TORSDOF 6
ENDMDL
MODEL 6
REMARK VINA RESULT:      -7.0      7.073      8.927
REMARK  Name = NuBBE_2465
REMARK  8 active torsions:
REMARK  status: ('A' for Active; 'I' for Inactive)
REMARK    1  A    between atoms: C_1  and  O_2
REMARK    2  A    between atoms: O_2  and  C_3
REMARK    3  A    between atoms: C_5  and  C_6
REMARK    4  A    between atoms: C_14  and  C_18
REMARK    5  A    between atoms: C_20  and  O_21
REMARK    6  A    between atoms: O_21  and  C_22
REMARK    7  A    between atoms: C_23  and  O_24
REMARK    8  A    between atoms: C_29  and  O_30
REMARK                            x       y       z     vdW  Elec       q    Type
REMARK                         _______ _______ _______ _____ _____    ______ ____
ROOT
ATOM      1  C   LIG A   1     -10.889   5.641 131.311  0.00  0.00    +0.154 C 
ATOM      2  C   LIG A   1      -9.401   5.836 131.641  0.00  0.00    +0.056 C 
ATOM      3  C   LIG A   1      -8.736   4.571 131.158  0.00  0.00    +0.056 C 
ATOM      4  C   LIG A   1      -9.673   4.068 130.089  0.00  0.00    +0.167 C 
ATOM      5  O   LIG A   1     -10.986   4.451 130.501  0.00  0.00    -0.371 OA
ATOM      6  C   LIG A   1      -8.697   3.656 132.390  0.00  0.00    +0.154 C 
ATOM      7  O   LIG A   1      -9.092   4.461 133.521  0.00  0.00    -0.371 OA
ATOM      8  C   LIG A   1      -9.117   5.832 133.123  0.00  0.00    +0.167 C 
ENDROOT
BRANCH   1  11
ATOM      9  C   LIG A   1     -11.499   8.380 128.677  0.00  0.00    +0.162 A 
ATOM     10  C   LIG A   1     -10.979   7.265 129.357  0.00  0.00    +0.055 A 
ATOM     11  C   LIG A   1     -11.494   6.839 130.594  0.00  0.00    -0.015 A 
ATOM     12  C   LIG A   1     -12.549   7.571 131.151  0.00  0.00    +0.010 A 
ATOM     13  C   LIG A   1     -13.081   8.679 130.488  0.00  0.00    +0.049 A 
ATOM     14  C   LIG A   1     -12.561   9.083 129.257  0.00  0.00    +0.159 A 
BRANCH   9  16
ATOM     15  C   LIG A   1     -10.889   7.622 126.490  0.00  0.00    +0.277 C 
ATOM     16  O   LIG A   1     -10.860   8.630 127.492  0.00  0.00    -0.491 OA
ENDBRANCH   9  16
BRANCH  14  17
ATOM     17  O   LIG A   1     -13.118  10.175 128.652  0.00  0.00    -0.503 OA
ATOM     18  H   LIG A   1     -14.058  10.225 128.891  0.00  0.00    +0.292 HD
ENDBRANCH  14  17
ENDBRANCH   1  11
BRANCH   6  19
ATOM     19  C   LIG A   1      -7.323   3.033 132.605  0.00  0.00    -0.015 A 
ATOM     20  C   LIG A   1      -6.340   3.071 131.597  0.00  0.00    +0.055 A 
ATOM     21  C   LIG A   1      -5.080   2.507 131.797  0.00  0.00    +0.162 A 
ATOM     22  C   LIG A   1      -4.798   1.911 133.028  0.00  0.00    +0.159 A 
ATOM     23  C   LIG A   1      -5.744   1.861 134.044  0.00  0.00    +0.049 A 
ATOM     24  C   LIG A   1      -7.005   2.425 133.834  0.00  0.00    +0.010 A 
BRANCH  21  25
ATOM     25  O   LIG A   1      -4.058   2.471 130.882  0.00  0.00    -0.491 OA
ATOM     26  C   LIG A   1      -4.224   1.582 129.782  0.00  0.00    +0.277 C 
ENDBRANCH  21  25
BRANCH  22  27
ATOM     27  O   LIG A   1      -3.567   1.361 133.262  0.00  0.00    -0.503 OA
ATOM     28  H   LIG A   1      -3.512   1.282 134.235  0.00  0.00    +0.292 HD
ENDBRANCH  22  27
ENDBRANCH   6  19
TORSDOF 6
ENDMDL
MODEL 7
REMARK VINA RESULT:      -6.9      7.214      8.900
REMARK  Name = NuBBE_2465
REMARK  8 active torsions:
REMARK  status: ('A' for Active; 'I' for Inactive)
REMARK    1  A    between atoms: C_1  and  O_2
REMARK    2  A    between atoms: O_2  and  C_3
REMARK    3  A    between atoms: C_5  and  C_6
REMARK    4  A    between atoms: C_14  and  C_18
REMARK    5  A    between atoms: C_20  and  O_21
REMARK    6  A    between atoms: O_21  and  C_22
REMARK    7  A    between atoms: C_23  and  O_24
REMARK    8  A    between atoms: C_29  and  O_30
REMARK                            x       y       z     vdW  Elec       q    Type
REMARK                         _______ _______ _______ _____ _____    ______ ____
ROOT
ATOM      1  C   LIG A   1     -10.510   5.214 130.898  0.00  0.00    +0.154 C 
ATOM      2  C   LIG A   1      -9.291   5.545 131.771  0.00  0.00    +0.056 C 
ATOM      3  C   LIG A   1      -8.200   4.636 131.261  0.00  0.00    +0.056 C 
ATOM      4  C   LIG A   1      -8.619   4.350 129.841  0.00  0.00    +0.167 C 
ATOM      5  O   LIG A   1     -10.046   4.348 129.840  0.00  0.00    -0.371 OA
ATOM      6  C   LIG A   1      -8.274   3.396 132.162  0.00  0.00    +0.154 C 
ATOM      7  O   LIG A   1      -9.179   3.715 133.240  0.00  0.00    -0.371 OA
ATOM      8  C   LIG A   1      -9.456   5.115 133.208  0.00  0.00    +0.167 C 
ENDROOT
BRANCH   1  11
ATOM      9  C   LIG A   1     -11.326   8.171 128.573  0.00  0.00    +0.162 A 
ATOM     10  C   LIG A   1     -10.743   7.012 129.116  0.00  0.00    +0.055 A 
ATOM     11  C   LIG A   1     -11.183   6.456 130.330  0.00  0.00    -0.015 A 
ATOM     12  C   LIG A   1     -12.226   7.098 131.005  0.00  0.00    +0.010 A 
ATOM     13  C   LIG A   1     -12.820   8.247 130.479  0.00  0.00    +0.049 A 
ATOM     14  C   LIG A   1     -12.374   8.783 129.269  0.00  0.00    +0.159 A 
BRANCH   9  16
ATOM     15  C   LIG A   1     -10.924   7.703 126.260  0.00  0.00    +0.277 C 
ATOM     16  O   LIG A   1     -10.755   8.552 127.388  0.00  0.00    -0.491 OA
ENDBRANCH   9  16
BRANCH  14  17
ATOM     17  O   LIG A   1     -12.989   9.910 128.800  0.00  0.00    -0.503 OA
ATOM     18  H   LIG A   1     -13.945   9.747 128.738  0.00  0.00    +0.292 HD
ENDBRANCH  14  17
ENDBRANCH   1  11
BRANCH   6  19
ATOM     19  C   LIG A   1      -6.906   2.982 132.691  0.00  0.00    -0.015 A 
ATOM     20  C   LIG A   1      -6.782   2.210 133.862  0.00  0.00    +0.055 A 
ATOM     21  C   LIG A   1      -5.529   1.825 134.343  0.00  0.00    +0.162 A 
ATOM     22  C   LIG A   1      -4.391   2.206 133.632  0.00  0.00    +0.159 A 
ATOM     23  C   LIG A   1      -4.479   2.964 132.470  0.00  0.00    +0.049 A 
ATOM     24  C   LIG A   1      -5.736   3.348 131.999  0.00  0.00    +0.010 A 
BRANCH  21  25
ATOM     25  O   LIG A   1      -5.292   1.092 135.479  0.00  0.00    -0.491 OA
ATOM     26  C   LIG A   1      -5.643  -0.287 135.428  0.00  0.00    +0.277 C 
ENDBRANCH  21  25
BRANCH  22  27
ATOM     27  O   LIG A   1      -3.149   1.833 134.068  0.00  0.00    -0.503 OA
ATOM     28  H   LIG A   1      -2.527   2.350 133.518  0.00  0.00    +0.292 HD
ENDBRANCH  22  27
ENDBRANCH   6  19
TORSDOF 6
ENDMDL
MODEL 8
REMARK VINA RESULT:      -6.8      7.884     10.077
REMARK  Name = NuBBE_2465
REMARK  8 active torsions:
REMARK  status: ('A' for Active; 'I' for Inactive)
REMARK    1  A    between atoms: C_1  and  O_2
REMARK    2  A    between atoms: O_2  and  C_3
REMARK    3  A    between atoms: C_5  and  C_6
REMARK    4  A    between atoms: C_14  and  C_18
REMARK    5  A    between atoms: C_20  and  O_21
REMARK    6  A    between atoms: O_21  and  C_22
REMARK    7  A    between atoms: C_23  and  O_24
REMARK    8  A    between atoms: C_29  and  O_30
REMARK                            x       y       z     vdW  Elec       q    Type
REMARK                         _______ _______ _______ _____ _____    ______ ____
ROOT
ATOM      1  C   LIG A   1      -9.303   5.787 130.821  0.00  0.00    +0.154 C 
ATOM      2  C   LIG A   1      -8.977   6.016 132.304  0.00  0.00    +0.056 C 
ATOM      3  C   LIG A   1      -7.474   6.136 132.350  0.00  0.00    +0.056 C 
ATOM      4  C   LIG A   1      -7.118   6.592 130.957  0.00  0.00    +0.167 C 
ATOM      5  O   LIG A   1      -8.079   5.996 130.086  0.00  0.00    -0.371 OA
ATOM      6  C   LIG A   1      -6.978   4.716 132.653  0.00  0.00    +0.154 C 
ATOM      7  O   LIG A   1      -8.141   3.929 132.991  0.00  0.00    -0.371 OA
ATOM      8  C   LIG A   1      -9.253   4.807 133.166  0.00  0.00    +0.167 C 
ENDROOT
BRANCH   1  11
ATOM      9  C   LIG A   1     -11.295   8.177 128.556  0.00  0.00    +0.162 A 
ATOM     10  C   LIG A   1     -10.304   7.309 129.048  0.00  0.00    +0.055 A 
ATOM     11  C   LIG A   1     -10.407   6.702 130.313  0.00  0.00    -0.015 A 
ATOM     12  C   LIG A   1     -11.532   6.996 131.091  0.00  0.00    +0.010 A 
ATOM     13  C   LIG A   1     -12.528   7.852 130.617  0.00  0.00    +0.049 A 
ATOM     14  C   LIG A   1     -12.412   8.442 129.356  0.00  0.00    +0.159 A 
BRANCH   9  16
ATOM     15  C   LIG A   1     -10.802   7.730 126.257  0.00  0.00    +0.277 C 
ATOM     16  O   LIG A   1     -11.007   8.664 127.309  0.00  0.00    -0.491 OA
ENDBRANCH   9  16
BRANCH  14  17
ATOM     17  O   LIG A   1     -13.414   9.273 128.941  0.00  0.00    -0.503 OA
ATOM     18  H   LIG A   1     -14.126   9.267 129.602  0.00  0.00    +0.292 HD
ENDBRANCH  14  17
ENDBRANCH   1  11
BRANCH   6  19
ATOM     19  C   LIG A   1      -5.946   4.689 133.774  0.00  0.00    -0.015 A 
ATOM     20  C   LIG A   1      -4.837   5.557 133.762  0.00  0.00    +0.055 A 
ATOM     21  C   LIG A   1      -3.895   5.538 134.792  0.00  0.00    +0.162 A 
ATOM     22  C   LIG A   1      -4.078   4.649 135.853  0.00  0.00    +0.159 A 
ATOM     23  C   LIG A   1      -5.165   3.784 135.897  0.00  0.00    +0.049 A 
ATOM     24  C   LIG A   1      -6.099   3.807 134.859  0.00  0.00    +0.010 A 
BRANCH  21  25
ATOM     25  O   LIG A   1      -2.772   6.322 134.873  0.00  0.00    -0.491 OA
ATOM     26  C   LIG A   1      -2.985   7.727 134.965  0.00  0.00    +0.277 C 
ENDBRANCH  21  25
BRANCH  22  27
ATOM     27  O   LIG A   1      -3.182   4.615 136.886  0.00  0.00    -0.503 OA
ATOM     28  H   LIG A   1      -2.305   4.606 136.454  0.00  0.00    +0.292 HD
ENDBRANCH  22  27
ENDBRANCH   6  19
TORSDOF 6
ENDMDL
MODEL 9
REMARK VINA RESULT:      -6.7      2.706      4.439
REMARK  Name = NuBBE_2465
REMARK  8 active torsions:
REMARK  status: ('A' for Active; 'I' for Inactive)
REMARK    1  A    between atoms: C_1  and  O_2
REMARK    2  A    between atoms: O_2  and  C_3
REMARK    3  A    between atoms: C_5  and  C_6
REMARK    4  A    between atoms: C_14  and  C_18
REMARK    5  A    between atoms: C_20  and  O_21
REMARK    6  A    between atoms: O_21  and  C_22
REMARK    7  A    between atoms: C_23  and  O_24
REMARK    8  A    between atoms: C_29  and  O_30
REMARK                            x       y       z     vdW  Elec       q    Type
REMARK                         _______ _______ _______ _____ _____    ______ ____
ROOT
ATOM      1  C   LIG A   1      -8.180  -0.315 125.629  0.00  0.00    +0.154 C 
ATOM      2  C   LIG A   1      -7.119  -0.010 126.696  0.00  0.00    +0.056 C 
ATOM      3  C   LIG A   1      -6.304  -1.276 126.794  0.00  0.00    +0.056 C 
ATOM      4  C   LIG A   1      -6.501  -1.924 125.447  0.00  0.00    +0.167 C 
ATOM      5  O   LIG A   1      -7.821  -1.578 125.029  0.00  0.00    -0.371 OA
ATOM      6  C   LIG A   1      -6.953  -2.071 127.935  0.00  0.00    +0.154 C 
ATOM      7  O   LIG A   1      -7.902  -1.189 128.572  0.00  0.00    -0.371 OA
ATOM      8  C   LIG A   1      -7.698   0.136 128.083  0.00  0.00    +0.167 C 
ENDROOT
BRANCH   1  11
ATOM      9  C   LIG A   1      -7.389   2.826 123.551  0.00  0.00    +0.162 A 
ATOM     10  C   LIG A   1      -7.312   1.789 124.497  0.00  0.00    +0.055 A 
ATOM     11  C   LIG A   1      -8.286   0.778 124.575  0.00  0.00    -0.015 A 
ATOM     12  C   LIG A   1      -9.361   0.833 123.681  0.00  0.00    +0.010 A 
ATOM     13  C   LIG A   1      -9.452   1.854 122.732  0.00  0.00    +0.049 A 
ATOM     14  C   LIG A   1      -8.472   2.846 122.665  0.00  0.00    +0.159 A 
BRANCH   9  16
ATOM     15  C   LIG A   1      -5.509   3.644 124.786  0.00  0.00    +0.277 C 
ATOM     16  O   LIG A   1      -6.347   3.710 123.639  0.00  0.00    -0.491 OA
ENDBRANCH   9  16
BRANCH  14  17
ATOM     17  O   LIG A   1      -8.611   3.822 121.718  0.00  0.00    -0.503 OA
ATOM     18  H   LIG A   1      -9.533   4.129 121.711  0.00  0.00    +0.292 HD
ENDBRANCH  14  17
ENDBRANCH   1  11
BRANCH   6  19
ATOM     19  C   LIG A   1      -5.928  -2.596 128.932  0.00  0.00    -0.015 A 
ATOM     20  C   LIG A   1      -6.320  -3.388 130.030  0.00  0.00    +0.055 A 
ATOM     21  C   LIG A   1      -5.380  -3.875 130.939  0.00  0.00    +0.162 A 
ATOM     22  C   LIG A   1      -4.032  -3.578 130.736  0.00  0.00    +0.159 A 
ATOM     23  C   LIG A   1      -3.612  -2.804 129.661  0.00  0.00    +0.049 A 
ATOM     24  C   LIG A   1      -4.560  -2.317 128.758  0.00  0.00    +0.010 A 
BRANCH  21  25
ATOM     25  O   LIG A   1      -5.651  -4.636 132.048  0.00  0.00    -0.491 OA
ATOM     26  C   LIG A   1      -6.315  -3.976 133.122  0.00  0.00    +0.277 C 
ENDBRANCH  21  25
BRANCH  22  27
ATOM     27  O   LIG A   1      -3.083  -4.052 131.600  0.00  0.00    -0.503 OA
ATOM     28  H   LIG A   1      -2.860  -4.941 131.260  0.00  0.00    +0.292 HD
ENDBRANCH  22  27
ENDBRANCH   6  19
TORSDOF 6
ENDMDL
