MODEL 1
REMARK VINA RESULT:      -7.3      0.000      0.000
REMARK  Name = NuBBE_2509
REMARK  5 active torsions:
REMARK  status: ('A' for Active; 'I' for Inactive)
REMARK    1  A    between atoms: C_4  and  O_5
REMARK    2  A    between atoms: C_7  and  O_8
REMARK    3  A    between atoms: C_13  and  C_14
REMARK    4  A    between atoms: C_17  and  O_18
REMARK    5  A    between atoms: O_18  and  C_19
REMARK                            x       y       z     vdW  Elec       q    Type
REMARK                         _______ _______ _______ _____ _____    ______ ____
ROOT
ATOM      1  O   LIG A   1      -9.431  -0.064 122.762  0.00  0.00    -0.291 OA
ATOM      2  C   LIG A   1      -8.859   0.267 123.797  0.00  0.00    +0.181 C 
ATOM      3  C   LIG A   1      -8.695  -0.744 124.860  0.00  0.00    +0.101 A 
ATOM      4  C   LIG A   1      -9.098  -2.072 124.674  0.00  0.00    +0.134 A 
ATOM      5  C   LIG A   1      -8.954  -3.003 125.700  0.00  0.00    +0.091 A 
ATOM      6  C   LIG A   1      -8.418  -2.593 126.917  0.00  0.00    +0.124 A 
ATOM      7  C   LIG A   1      -8.024  -1.272 127.118  0.00  0.00    +0.092 A 
ATOM      8  C   LIG A   1      -8.142  -0.351 126.078  0.00  0.00    +0.138 A 
ATOM      9  O   LIG A   1      -7.722   0.927 126.333  0.00  0.00    -0.490 OA
ATOM     10  C   LIG A   1      -7.261   1.588 125.146  0.00  0.00    +0.245 C 
ATOM     11  C   LIG A   1      -8.354   1.672 124.085  0.00  0.00    +0.128 C 
ENDROOT
BRANCH  11  12
ATOM     12  C   LIG A   1      -7.859   2.427 122.861  0.00  0.00    -0.033 A 
ATOM     13  C   LIG A   1      -8.785   3.038 122.003  0.00  0.00    +0.008 A 
ATOM     14  C   LIG A   1      -8.353   3.741 120.873  0.00  0.00    +0.046 A 
ATOM     15  C   LIG A   1      -6.994   3.855 120.578  0.00  0.00    +0.120 A 
ATOM     16  C   LIG A   1      -6.066   3.269 121.434  0.00  0.00    +0.046 A 
ATOM     17  C   LIG A   1      -6.493   2.571 122.570  0.00  0.00    +0.008 A 
BRANCH  15  18
ATOM     18  O   LIG A   1      -6.708   4.556 119.438  0.00  0.00    -0.495 OA
ATOM     19  C   LIG A   1      -5.523   5.342 119.447  0.00  0.00    +0.277 C 
ENDBRANCH  15  18
ENDBRANCH  11  12
BRANCH   4  20
ATOM     20  O   LIG A   1      -9.649  -2.530 123.507  0.00  0.00    -0.506 OA
ATOM     21  H   LIG A   1      -9.049  -2.277 122.767  0.00  0.00    +0.292 HD
ENDBRANCH   4  20
BRANCH   6  22
ATOM     22  O   LIG A   1      -8.257  -3.469 127.949  0.00  0.00    -0.506 OA
ATOM     23  H   LIG A   1      -7.901  -2.989 128.716  0.00  0.00    +0.292 HD
ENDBRANCH   6  22
TORSDOF 4
ENDMDL
MODEL 2
REMARK VINA RESULT:      -7.2      1.732      7.635
REMARK  Name = NuBBE_2509
REMARK  5 active torsions:
REMARK  status: ('A' for Active; 'I' for Inactive)
REMARK    1  A    between atoms: C_4  and  O_5
REMARK    2  A    between atoms: C_7  and  O_8
REMARK    3  A    between atoms: C_13  and  C_14
REMARK    4  A    between atoms: C_17  and  O_18
REMARK    5  A    between atoms: O_18  and  C_19
REMARK                            x       y       z     vdW  Elec       q    Type
REMARK                         _______ _______ _______ _____ _____    ______ ____
ROOT
ATOM      1  O   LIG A   1      -6.223   3.357 123.593  0.00  0.00    -0.291 OA
ATOM      2  C   LIG A   1      -7.066   3.344 122.700  0.00  0.00    +0.181 C 
ATOM      3  C   LIG A   1      -6.713   3.941 121.397  0.00  0.00    +0.101 A 
ATOM      4  C   LIG A   1      -5.426   4.435 121.143  0.00  0.00    +0.134 A 
ATOM      5  C   LIG A   1      -5.123   5.015 119.914  0.00  0.00    +0.091 A 
ATOM      6  C   LIG A   1      -6.118   5.111 118.947  0.00  0.00    +0.124 A 
ATOM      7  C   LIG A   1      -7.404   4.634 119.190  0.00  0.00    +0.092 A 
ATOM      8  C   LIG A   1      -7.695   4.028 120.411  0.00  0.00    +0.138 A 
ATOM      9  O   LIG A   1      -8.972   3.564 120.584  0.00  0.00    -0.490 OA
ATOM     10  C   LIG A   1      -9.021   2.446 121.481  0.00  0.00    +0.245 C 
ATOM     11  C   LIG A   1      -8.478   2.803 122.861  0.00  0.00    +0.128 C 
ENDROOT
BRANCH  11  12
ATOM     12  C   LIG A   1      -8.594   1.619 123.808  0.00  0.00    -0.033 A 
ATOM     13  C   LIG A   1      -7.843   0.460 123.564  0.00  0.00    +0.008 A 
ATOM     14  C   LIG A   1      -7.930  -0.640 124.423  0.00  0.00    +0.046 A 
ATOM     15  C   LIG A   1      -8.761  -0.608 125.544  0.00  0.00    +0.120 A 
ATOM     16  C   LIG A   1      -9.497   0.545 125.806  0.00  0.00    +0.046 A 
ATOM     17  C   LIG A   1      -9.406   1.651 124.953  0.00  0.00    +0.008 A 
BRANCH  15  18
ATOM     18  O   LIG A   1      -8.765  -1.753 126.292  0.00  0.00    -0.495 OA
ATOM     19  C   LIG A   1      -9.445  -2.876 125.745  0.00  0.00    +0.277 C 
ENDBRANCH  15  18
ENDBRANCH  11  12
BRANCH   4  20
ATOM     20  O   LIG A   1      -4.412   4.386 122.062  0.00  0.00    -0.506 OA
ATOM     21  H   LIG A   1      -3.638   3.946 121.639  0.00  0.00    +0.292 HD
ENDBRANCH   4  20
BRANCH   6  22
ATOM     22  O   LIG A   1      -5.867   5.670 117.728  0.00  0.00    -0.506 OA
ATOM     23  H   LIG A   1      -5.053   5.281 117.365  0.00  0.00    +0.292 HD
ENDBRANCH   6  22
TORSDOF 4
ENDMDL
MODEL 3
REMARK VINA RESULT:      -7.2      7.795     10.924
REMARK  Name = NuBBE_2509
REMARK  5 active torsions:
REMARK  status: ('A' for Active; 'I' for Inactive)
REMARK    1  A    between atoms: C_4  and  O_5
REMARK    2  A    between atoms: C_7  and  O_8
REMARK    3  A    between atoms: C_13  and  C_14
REMARK    4  A    between atoms: C_17  and  O_18
REMARK    5  A    between atoms: O_18  and  C_19
REMARK                            x       y       z     vdW  Elec       q    Type
REMARK                         _______ _______ _______ _____ _____    ______ ____
ROOT
ATOM      1  O   LIG A   1      -8.884   5.573 129.259  0.00  0.00    -0.291 OA
ATOM      2  C   LIG A   1      -9.718   6.017 130.043  0.00  0.00    +0.181 C 
ATOM      3  C   LIG A   1     -10.715   6.979 129.533  0.00  0.00    +0.101 A 
ATOM      4  C   LIG A   1     -10.774   7.319 128.175  0.00  0.00    +0.134 A 
ATOM      5  C   LIG A   1     -11.709   8.246 127.720  0.00  0.00    +0.091 A 
ATOM      6  C   LIG A   1     -12.572   8.842 128.634  0.00  0.00    +0.124 A 
ATOM      7  C   LIG A   1     -12.516   8.521 129.989  0.00  0.00    +0.092 A 
ATOM      8  C   LIG A   1     -11.599   7.570 130.434  0.00  0.00    +0.138 A 
ATOM      9  O   LIG A   1     -11.604   7.285 131.774  0.00  0.00    -0.490 OA
ATOM     10  C   LIG A   1     -11.176   5.943 132.040  0.00  0.00    +0.245 C 
ATOM     11  C   LIG A   1      -9.762   5.687 131.527  0.00  0.00    +0.128 C 
ENDROOT
BRANCH  11  12
ATOM     12  C   LIG A   1      -9.311   4.276 131.872  0.00  0.00    -0.033 A 
ATOM     13  C   LIG A   1      -8.284   4.087 132.808  0.00  0.00    +0.008 A 
ATOM     14  C   LIG A   1      -7.855   2.799 133.145  0.00  0.00    +0.046 A 
ATOM     15  C   LIG A   1      -8.441   1.674 132.562  0.00  0.00    +0.120 A 
ATOM     16  C   LIG A   1      -9.475   1.851 131.645  0.00  0.00    +0.046 A 
ATOM     17  C   LIG A   1      -9.912   3.138 131.312  0.00  0.00    +0.008 A 
BRANCH  15  18
ATOM     18  O   LIG A   1      -7.920   0.476 132.967  0.00  0.00    -0.495 OA
ATOM     19  C   LIG A   1      -8.208  -0.657 132.157  0.00  0.00    +0.277 C 
ENDBRANCH  15  18
ENDBRANCH  11  12
BRANCH   4  20
ATOM     20  O   LIG A   1      -9.939   6.781 127.232  0.00  0.00    -0.506 OA
ATOM     21  H   LIG A   1     -10.079   5.806 127.222  0.00  0.00    +0.292 HD
ENDBRANCH   4  20
BRANCH   6  22
ATOM     22  O   LIG A   1     -13.504   9.755 128.235  0.00  0.00    -0.506 OA
ATOM     23  H   LIG A   1     -13.068  10.615 128.110  0.00  0.00    +0.292 HD
ENDBRANCH   6  22
TORSDOF 4
ENDMDL
MODEL 4
REMARK VINA RESULT:      -7.1      8.425      9.854
REMARK  Name = NuBBE_2509
REMARK  5 active torsions:
REMARK  status: ('A' for Active; 'I' for Inactive)
REMARK    1  A    between atoms: C_4  and  O_5
REMARK    2  A    between atoms: C_7  and  O_8
REMARK    3  A    between atoms: C_13  and  C_14
REMARK    4  A    between atoms: C_17  and  O_18
REMARK    5  A    between atoms: O_18  and  C_19
REMARK                            x       y       z     vdW  Elec       q    Type
REMARK                         _______ _______ _______ _____ _____    ______ ____
ROOT
ATOM      1  O   LIG A   1      -8.478   6.873 131.123  0.00  0.00    -0.291 OA
ATOM      2  C   LIG A   1      -9.077   5.813 130.961  0.00  0.00    +0.181 C 
ATOM      3  C   LIG A   1      -8.623   4.631 131.720  0.00  0.00    +0.101 A 
ATOM      4  C   LIG A   1      -7.594   4.719 132.667  0.00  0.00    +0.134 A 
ATOM      5  C   LIG A   1      -7.168   3.586 133.354  0.00  0.00    +0.091 A 
ATOM      6  C   LIG A   1      -7.766   2.361 133.076  0.00  0.00    +0.124 A 
ATOM      7  C   LIG A   1      -8.782   2.256 132.129  0.00  0.00    +0.092 A 
ATOM      8  C   LIG A   1      -9.226   3.399 131.465  0.00  0.00    +0.138 A 
ATOM      9  O   LIG A   1     -10.238   3.235 130.558  0.00  0.00    -0.490 OA
ATOM     10  C   LIG A   1     -11.046   4.413 130.434  0.00  0.00    +0.245 C 
ATOM     11  C   LIG A   1     -10.225   5.617 129.984  0.00  0.00    +0.128 C 
ENDROOT
BRANCH  11  12
ATOM     12  C   LIG A   1     -11.114   6.838 129.805  0.00  0.00    -0.033 A 
ATOM     13  C   LIG A   1     -10.980   7.630 128.655  0.00  0.00    +0.008 A 
ATOM     14  C   LIG A   1     -11.789   8.755 128.466  0.00  0.00    +0.046 A 
ATOM     15  C   LIG A   1     -12.750   9.112 129.413  0.00  0.00    +0.120 A 
ATOM     16  C   LIG A   1     -12.905   8.322 130.548  0.00  0.00    +0.046 A 
ATOM     17  C   LIG A   1     -12.102   7.190 130.737  0.00  0.00    +0.008 A 
BRANCH  15  18
ATOM     18  O   LIG A   1     -13.463  10.241 129.113  0.00  0.00    -0.495 OA
ATOM     19  C   LIG A   1     -13.560  11.228 130.132  0.00  0.00    +0.277 C 
ENDBRANCH  15  18
ENDBRANCH  11  12
BRANCH   4  20
ATOM     20  O   LIG A   1      -6.956   5.893 132.969  0.00  0.00    -0.506 OA
ATOM     21  H   LIG A   1      -6.602   6.272 132.130  0.00  0.00    +0.292 HD
ENDBRANCH   4  20
BRANCH   6  22
ATOM     22  O   LIG A   1      -7.382   1.224 133.725  0.00  0.00    -0.506 OA
ATOM     23  H   LIG A   1      -8.059   0.994 134.384  0.00  0.00    +0.292 HD
ENDBRANCH   6  22
TORSDOF 4
ENDMDL
MODEL 5
REMARK VINA RESULT:      -7.1      1.959      2.353
REMARK  Name = NuBBE_2509
REMARK  5 active torsions:
REMARK  status: ('A' for Active; 'I' for Inactive)
REMARK    1  A    between atoms: C_4  and  O_5
REMARK    2  A    between atoms: C_7  and  O_8
REMARK    3  A    between atoms: C_13  and  C_14
REMARK    4  A    between atoms: C_17  and  O_18
REMARK    5  A    between atoms: O_18  and  C_19
REMARK                            x       y       z     vdW  Elec       q    Type
REMARK                         _______ _______ _______ _____ _____    ______ ____
ROOT
ATOM      1  O   LIG A   1      -7.886   0.153 123.031  0.00  0.00    -0.291 OA
ATOM      2  C   LIG A   1      -7.332   0.856 123.872  0.00  0.00    +0.181 C 
ATOM      3  C   LIG A   1      -6.643   0.192 124.995  0.00  0.00    +0.101 A 
ATOM      4  C   LIG A   1      -6.540  -1.204 125.068  0.00  0.00    +0.134 A 
ATOM      5  C   LIG A   1      -5.904  -1.809 126.149  0.00  0.00    +0.091 A 
ATOM      6  C   LIG A   1      -5.387  -1.010 127.164  0.00  0.00    +0.124 A 
ATOM      7  C   LIG A   1      -5.492   0.377 127.109  0.00  0.00    +0.092 A 
ATOM      8  C   LIG A   1      -6.103   0.980 126.010  0.00  0.00    +0.138 A 
ATOM      9  O   LIG A   1      -6.161   2.348 126.007  0.00  0.00    -0.490 OA
ATOM     10  C   LIG A   1      -6.166   2.883 124.677  0.00  0.00    +0.245 C 
ATOM     11  C   LIG A   1      -7.356   2.377 123.868  0.00  0.00    +0.128 C 
ENDROOT
BRANCH  11  12
ATOM     12  C   LIG A   1      -7.370   3.002 122.482  0.00  0.00    -0.033 A 
ATOM     13  C   LIG A   1      -6.157   3.303 121.845  0.00  0.00    +0.008 A 
ATOM     14  C   LIG A   1      -6.144   3.875 120.568  0.00  0.00    +0.046 A 
ATOM     15  C   LIG A   1      -7.336   4.154 119.898  0.00  0.00    +0.120 A 
ATOM     16  C   LIG A   1      -8.546   3.843 120.514  0.00  0.00    +0.046 A 
ATOM     17  C   LIG A   1      -8.562   3.263 121.788  0.00  0.00    +0.008 A 
BRANCH  15  18
ATOM     18  O   LIG A   1      -7.184   4.726 118.665  0.00  0.00    -0.495 OA
ATOM     19  C   LIG A   1      -6.069   5.591 118.491  0.00  0.00    +0.277 C 
ENDBRANCH  15  18
ENDBRANCH  11  12
BRANCH   4  20
ATOM     20  O   LIG A   1      -7.046  -2.041 124.110  0.00  0.00    -0.506 OA
ATOM     21  H   LIG A   1      -6.308  -2.300 123.509  0.00  0.00    +0.292 HD
ENDBRANCH   4  20
BRANCH   6  22
ATOM     22  O   LIG A   1      -4.755  -1.558 128.241  0.00  0.00    -0.506 OA
ATOM     23  H   LIG A   1      -5.229  -1.298 129.049  0.00  0.00    +0.292 HD
ENDBRANCH   6  22
TORSDOF 4
ENDMDL
MODEL 6
REMARK VINA RESULT:      -6.8      7.664      9.089
REMARK  Name = NuBBE_2509
REMARK  5 active torsions:
REMARK  status: ('A' for Active; 'I' for Inactive)
REMARK    1  A    between atoms: C_4  and  O_5
REMARK    2  A    between atoms: C_7  and  O_8
REMARK    3  A    between atoms: C_13  and  C_14
REMARK    4  A    between atoms: C_17  and  O_18
REMARK    5  A    between atoms: O_18  and  C_19
REMARK                            x       y       z     vdW  Elec       q    Type
REMARK                         _______ _______ _______ _____ _____    ______ ____
ROOT
ATOM      1  O   LIG A   1     -10.575   4.076 129.681  0.00  0.00    -0.291 OA
ATOM      2  C   LIG A   1      -9.644   4.589 130.295  0.00  0.00    +0.181 C 
ATOM      3  C   LIG A   1      -8.334   3.910 130.274  0.00  0.00    +0.101 A 
ATOM      4  C   LIG A   1      -8.119   2.757 129.506  0.00  0.00    +0.134 A 
ATOM      5  C   LIG A   1      -6.881   2.121 129.519  0.00  0.00    +0.091 A 
ATOM      6  C   LIG A   1      -5.863   2.636 130.317  0.00  0.00    +0.124 A 
ATOM      7  C   LIG A   1      -6.067   3.774 131.093  0.00  0.00    +0.092 A 
ATOM      8  C   LIG A   1      -7.299   4.425 131.053  0.00  0.00    +0.138 A 
ATOM      9  O   LIG A   1      -7.432   5.548 131.826  0.00  0.00    -0.490 OA
ATOM     10  C   LIG A   1      -8.375   6.474 131.271  0.00  0.00    +0.245 C 
ATOM     11  C   LIG A   1      -9.762   5.853 131.131  0.00  0.00    +0.128 C 
ENDROOT
BRANCH  11  12
ATOM     12  C   LIG A   1     -10.756   6.872 130.595  0.00  0.00    -0.033 A 
ATOM     13  C   LIG A   1     -10.427   7.631 129.462  0.00  0.00    +0.008 A 
ATOM     14  C   LIG A   1     -11.327   8.571 128.948  0.00  0.00    +0.046 A 
ATOM     15  C   LIG A   1     -12.572   8.771 129.546  0.00  0.00    +0.120 A 
ATOM     16  C   LIG A   1     -12.915   8.009 130.660  0.00  0.00    +0.046 A 
ATOM     17  C   LIG A   1     -12.021   7.062 131.173  0.00  0.00    +0.008 A 
BRANCH  15  18
ATOM     18  O   LIG A   1     -13.349   9.728 128.954  0.00  0.00    -0.495 OA
ATOM     19  C   LIG A   1     -13.564  10.926 129.689  0.00  0.00    +0.277 C 
ENDBRANCH  15  18
ENDBRANCH  11  12
BRANCH   4  20
ATOM     20  O   LIG A   1      -9.087   2.194 128.718  0.00  0.00    -0.506 OA
ATOM     21  H   LIG A   1      -9.916   2.136 129.247  0.00  0.00    +0.292 HD
ENDBRANCH   4  20
BRANCH   6  22
ATOM     22  O   LIG A   1      -4.634   2.048 130.361  0.00  0.00    -0.506 OA
ATOM     23  H   LIG A   1      -4.042   2.596 130.904  0.00  0.00    +0.292 HD
ENDBRANCH   6  22
TORSDOF 4
ENDMDL
MODEL 7
REMARK VINA RESULT:      -6.7      4.340      9.202
REMARK  Name = NuBBE_2509
REMARK  5 active torsions:
REMARK  status: ('A' for Active; 'I' for Inactive)
REMARK    1  A    between atoms: C_4  and  O_5
REMARK    2  A    between atoms: C_7  and  O_8
REMARK    3  A    between atoms: C_13  and  C_14
REMARK    4  A    between atoms: C_17  and  O_18
REMARK    5  A    between atoms: O_18  and  C_19
REMARK                            x       y       z     vdW  Elec       q    Type
REMARK                         _______ _______ _______ _____ _____    ______ ____
ROOT
ATOM      1  O   LIG A   1      -5.983  -1.493 128.120  0.00  0.00    -0.291 OA
ATOM      2  C   LIG A   1      -6.979  -2.152 127.836  0.00  0.00    +0.181 C 
ATOM      3  C   LIG A   1      -7.368  -2.255 126.415  0.00  0.00    +0.101 A 
ATOM      4  C   LIG A   1      -6.583  -1.693 125.400  0.00  0.00    +0.134 A 
ATOM      5  C   LIG A   1      -6.981  -1.784 124.069  0.00  0.00    +0.091 A 
ATOM      6  C   LIG A   1      -8.177  -2.424 123.762  0.00  0.00    +0.124 A 
ATOM      7  C   LIG A   1      -8.973  -2.977 124.763  0.00  0.00    +0.092 A 
ATOM      8  C   LIG A   1      -8.555  -2.911 126.091  0.00  0.00    +0.138 A 
ATOM      9  O   LIG A   1      -9.372  -3.486 127.027  0.00  0.00    -0.490 OA
ATOM     10  C   LIG A   1      -8.638  -3.957 128.165  0.00  0.00    +0.245 C 
ATOM     11  C   LIG A   1      -7.881  -2.828 128.857  0.00  0.00    +0.128 C 
ENDROOT
BRANCH  11  12
ATOM     12  C   LIG A   1      -7.158  -3.342 130.092  0.00  0.00    -0.033 A 
ATOM     13  C   LIG A   1      -7.491  -2.828 131.354  0.00  0.00    +0.008 A 
ATOM     14  C   LIG A   1      -6.843  -3.288 132.505  0.00  0.00    +0.046 A 
ATOM     15  C   LIG A   1      -5.855  -4.271 132.426  0.00  0.00    +0.120 A 
ATOM     16  C   LIG A   1      -5.531  -4.802 131.180  0.00  0.00    +0.046 A 
ATOM     17  C   LIG A   1      -6.183  -4.350 130.027  0.00  0.00    +0.008 A 
BRANCH  15  18
ATOM     18  O   LIG A   1      -5.292  -4.621 133.622  0.00  0.00    -0.495 OA
ATOM     19  C   LIG A   1      -6.018  -5.538 134.431  0.00  0.00    +0.277 C 
ENDBRANCH  15  18
ENDBRANCH  11  12
BRANCH   4  20
ATOM     20  O   LIG A   1      -5.407  -1.035 125.642  0.00  0.00    -0.506 OA
ATOM     21  H   LIG A   1      -5.625  -0.133 125.976  0.00  0.00    +0.292 HD
ENDBRANCH   4  20
BRANCH   6  22
ATOM     22  O   LIG A   1      -8.607  -2.538 122.472  0.00  0.00    -0.506 OA
ATOM     23  H   LIG A   1      -7.847  -2.429 121.876  0.00  0.00    +0.292 HD
ENDBRANCH   6  22
TORSDOF 4
ENDMDL
MODEL 8
REMARK VINA RESULT:      -6.7      2.538      4.073
REMARK  Name = NuBBE_2509
REMARK  5 active torsions:
REMARK  status: ('A' for Active; 'I' for Inactive)
REMARK    1  A    between atoms: C_4  and  O_5
REMARK    2  A    between atoms: C_7  and  O_8
REMARK    3  A    between atoms: C_13  and  C_14
REMARK    4  A    between atoms: C_17  and  O_18
REMARK    5  A    between atoms: O_18  and  C_19
REMARK                            x       y       z     vdW  Elec       q    Type
REMARK                         _______ _______ _______ _____ _____    ______ ____
ROOT
ATOM      1  O   LIG A   1      -5.999   4.145 124.809  0.00  0.00    -0.291 OA
ATOM      2  C   LIG A   1      -6.771   3.196 124.917  0.00  0.00    +0.181 C 
ATOM      3  C   LIG A   1      -7.333   2.899 126.249  0.00  0.00    +0.101 A 
ATOM      4  C   LIG A   1      -7.071   3.720 127.353  0.00  0.00    +0.134 A 
ATOM      5  C   LIG A   1      -7.593   3.407 128.605  0.00  0.00    +0.091 A 
ATOM      6  C   LIG A   1      -8.366   2.259 128.749  0.00  0.00    +0.124 A 
ATOM      7  C   LIG A   1      -8.625   1.428 127.662  0.00  0.00    +0.092 A 
ATOM      8  C   LIG A   1      -8.125   1.762 126.404  0.00  0.00    +0.138 A 
ATOM      9  O   LIG A   1      -8.428   0.914 125.372  0.00  0.00    -0.490 OA
ATOM     10  C   LIG A   1      -8.478   1.597 124.112  0.00  0.00    +0.245 C 
ATOM     11  C   LIG A   1      -7.147   2.263 123.776  0.00  0.00    +0.128 C 
ENDROOT
BRANCH  11  12
ATOM     12  C   LIG A   1      -7.209   2.930 122.411  0.00  0.00    -0.033 A 
ATOM     13  C   LIG A   1      -6.020   3.196 121.716  0.00  0.00    +0.008 A 
ATOM     14  C   LIG A   1      -6.051   3.805 120.457  0.00  0.00    +0.046 A 
ATOM     15  C   LIG A   1      -7.264   4.157 119.863  0.00  0.00    +0.120 A 
ATOM     16  C   LIG A   1      -8.451   3.881 120.536  0.00  0.00    +0.046 A 
ATOM     17  C   LIG A   1      -8.424   3.264 121.793  0.00  0.00    +0.008 A 
BRANCH  15  18
ATOM     18  O   LIG A   1      -7.153   4.758 118.639  0.00  0.00    -0.495 OA
ATOM     19  C   LIG A   1      -6.042   5.624 118.447  0.00  0.00    +0.277 C 
ENDBRANCH  15  18
ENDBRANCH  11  12
BRANCH   4  20
ATOM     20  O   LIG A   1      -6.302   4.850 127.278  0.00  0.00    -0.506 OA
ATOM     21  H   LIG A   1      -6.609   5.377 126.503  0.00  0.00    +0.292 HD
ENDBRANCH   4  20
BRANCH   6  22
ATOM     22  O   LIG A   1      -8.900   1.913 129.955  0.00  0.00    -0.506 OA
ATOM     23  H   LIG A   1      -8.468   1.100 130.269  0.00  0.00    +0.292 HD
ENDBRANCH   6  22
TORSDOF 4
ENDMDL
MODEL 9
REMARK VINA RESULT:      -6.6      4.079      6.032
REMARK  Name = NuBBE_2509
REMARK  5 active torsions:
REMARK  status: ('A' for Active; 'I' for Inactive)
REMARK    1  A    between atoms: C_4  and  O_5
REMARK    2  A    between atoms: C_7  and  O_8
REMARK    3  A    between atoms: C_13  and  C_14
REMARK    4  A    between atoms: C_17  and  O_18
REMARK    5  A    between atoms: O_18  and  C_19
REMARK                            x       y       z     vdW  Elec       q    Type
REMARK                         _______ _______ _______ _____ _____    ______ ____
ROOT
ATOM      1  O   LIG A   1      -5.980   1.408 126.978  0.00  0.00    -0.291 OA
ATOM      2  C   LIG A   1      -6.327   2.066 126.000  0.00  0.00    +0.181 C 
ATOM      3  C   LIG A   1      -7.675   1.836 125.445  0.00  0.00    +0.101 A 
ATOM      4  C   LIG A   1      -8.579   0.958 126.058  0.00  0.00    +0.134 A 
ATOM      5  C   LIG A   1      -9.837   0.740 125.504  0.00  0.00    +0.091 A 
ATOM      6  C   LIG A   1     -10.180   1.393 124.324  0.00  0.00    +0.124 A 
ATOM      7  C   LIG A   1      -9.286   2.260 123.698  0.00  0.00    +0.092 A 
ATOM      8  C   LIG A   1      -8.039   2.498 124.273  0.00  0.00    +0.138 A 
ATOM      9  O   LIG A   1      -7.212   3.372 123.620  0.00  0.00    -0.490 OA
ATOM     10  C   LIG A   1      -6.323   4.047 124.520  0.00  0.00    +0.245 C 
ATOM     11  C   LIG A   1      -5.436   3.066 125.280  0.00  0.00    +0.128 C 
ENDROOT
BRANCH  11  12
ATOM     12  C   LIG A   1      -4.465   3.809 126.184  0.00  0.00    -0.033 A 
ATOM     13  C   LIG A   1      -4.875   4.990 126.820  0.00  0.00    +0.008 A 
ATOM     14  C   LIG A   1      -4.000   5.688 127.660  0.00  0.00    +0.046 A 
ATOM     15  C   LIG A   1      -2.704   5.224 127.888  0.00  0.00    +0.120 A 
ATOM     16  C   LIG A   1      -2.293   4.042 127.277  0.00  0.00    +0.046 A 
ATOM     17  C   LIG A   1      -3.169   3.336 126.442  0.00  0.00    +0.008 A 
BRANCH  15  18
ATOM     18  O   LIG A   1      -1.948   6.007 128.717  0.00  0.00    -0.495 OA
ATOM     19  C   LIG A   1      -2.576   6.482 129.901  0.00  0.00    +0.277 C 
ENDBRANCH  15  18
ENDBRANCH  11  12
BRANCH   4  20
ATOM     20  O   LIG A   1      -8.291   0.273 127.209  0.00  0.00    -0.506 OA
ATOM     21  H   LIG A   1      -7.329   0.379 127.395  0.00  0.00    +0.292 HD
ENDBRANCH   4  20
BRANCH   6  22
ATOM     22  O   LIG A   1     -11.401   1.212 123.745  0.00  0.00    -0.506 OA
ATOM     23  H   LIG A   1     -11.639   0.271 123.801  0.00  0.00    +0.292 HD
ENDBRANCH   6  22
TORSDOF 4
ENDMDL
