MODEL 1
REMARK VINA RESULT:      -6.6      0.000      0.000
REMARK  Name = NuBBE_1545
REMARK  4 active torsions:
REMARK  status: ('A' for Active; 'I' for Inactive)
REMARK    1  A    between atoms: C_1  and  C_2
REMARK    2  A    between atoms: C_6  and  C_10
REMARK    3  A    between atoms: C_10  and  C_12
REMARK    4  A    between atoms: C_13  and  C_17
REMARK                            x       y       z     vdW  Elec       q    Type
REMARK                         _______ _______ _______ _____ _____    ______ ____
ROOT
ATOM      1  C   LIG A   1      -6.385  -0.218 124.932  0.00  0.00    +0.012 C 
ATOM      2  C   LIG A   1      -6.153  -1.675 125.412  0.00  0.00    -0.025 C 
ATOM      3  C   LIG A   1      -7.460  -2.531 125.431  0.00  0.00    +0.021 C 
ATOM      4  C   LIG A   1      -8.478  -1.931 126.423  0.00  0.00    +0.016 C 
ATOM      5  C   LIG A   1      -7.929  -1.880 127.870  0.00  0.00    +0.015 C 
ATOM      6  C   LIG A   1      -6.562  -1.160 127.901  0.00  0.00    +0.008 C 
ATOM      7  C   LIG A   1      -5.563  -1.642 126.841  0.00  0.00    +0.008 C 
ATOM      8  C   LIG A   1      -7.987  -2.811 124.026  0.00  0.00    -0.073 C 
ATOM      9  C   LIG A   1      -7.163  -2.791 122.960  0.00  0.00    -0.027 C 
ATOM     10  C   LIG A   1      -5.694  -2.486 123.026  0.00  0.00    +0.028 C 
ATOM     11  C   LIG A   1      -5.150  -2.363 124.453  0.00  0.00    +0.011 C 
ATOM     12  C   LIG A   1      -9.431  -3.198 123.865  0.00  0.00    +0.039 C 
ENDROOT
BRANCH   5  13
ATOM     13  C   LIG A   1      -7.991  -3.248 128.567  0.00  0.00    -0.077 C 
ATOM     14  C   LIG A   1      -7.181  -3.657 129.560  0.00  0.00    +0.007 C 
ATOM     15  C   LIG A   1      -9.115  -4.157 128.127  0.00  0.00    +0.038 C 
ENDBRANCH   5  13
TORSDOF 1
ENDMDL
MODEL 2
REMARK VINA RESULT:      -6.2      1.063      4.398
REMARK  Name = NuBBE_1545
REMARK  4 active torsions:
REMARK  status: ('A' for Active; 'I' for Inactive)
REMARK    1  A    between atoms: C_1  and  C_2
REMARK    2  A    between atoms: C_6  and  C_10
REMARK    3  A    between atoms: C_10  and  C_12
REMARK    4  A    between atoms: C_13  and  C_17
REMARK                            x       y       z     vdW  Elec       q    Type
REMARK                         _______ _______ _______ _____ _____    ______ ____
ROOT
ATOM      1  C   LIG A   1      -5.400  -1.976 127.179  0.00  0.00    +0.012 C 
ATOM      2  C   LIG A   1      -6.747  -1.343 126.741  0.00  0.00    -0.025 C 
ATOM      3  C   LIG A   1      -7.900  -2.387 126.600  0.00  0.00    +0.021 C 
ATOM      4  C   LIG A   1      -7.559  -3.418 125.505  0.00  0.00    +0.016 C 
ATOM      5  C   LIG A   1      -7.352  -2.756 124.120  0.00  0.00    +0.015 C 
ATOM      6  C   LIG A   1      -6.315  -1.615 124.218  0.00  0.00    +0.008 C 
ATOM      7  C   LIG A   1      -6.549  -0.640 125.379  0.00  0.00    +0.008 C 
ATOM      8  C   LIG A   1      -8.323  -2.966 127.949  0.00  0.00    -0.073 C 
ATOM      9  C   LIG A   1      -8.113  -2.284 129.092  0.00  0.00    -0.027 C 
ATOM     10  C   LIG A   1      -7.452  -0.938 129.170  0.00  0.00    +0.028 C 
ATOM     11  C   LIG A   1      -7.177  -0.302 127.803  0.00  0.00    +0.011 C 
ATOM     12  C   LIG A   1      -9.058  -4.277 127.969  0.00  0.00    +0.039 C 
ENDROOT
BRANCH   5  13
ATOM     13  C   LIG A   1      -8.682  -2.407 123.436  0.00  0.00    -0.077 C 
ATOM     14  C   LIG A   1      -8.946  -1.265 122.775  0.00  0.00    +0.007 C 
ATOM     15  C   LIG A   1      -9.737  -3.488 123.462  0.00  0.00    +0.038 C 
ENDBRANCH   5  13
TORSDOF 1
ENDMDL
MODEL 3
REMARK VINA RESULT:      -6.0      2.481      4.906
REMARK  Name = NuBBE_1545
REMARK  4 active torsions:
REMARK  status: ('A' for Active; 'I' for Inactive)
REMARK    1  A    between atoms: C_1  and  C_2
REMARK    2  A    between atoms: C_6  and  C_10
REMARK    3  A    between atoms: C_10  and  C_12
REMARK    4  A    between atoms: C_13  and  C_17
REMARK                            x       y       z     vdW  Elec       q    Type
REMARK                         _______ _______ _______ _____ _____    ______ ____
ROOT
ATOM      1  C   LIG A   1      -7.413  -1.131 126.747  0.00  0.00    +0.012 C 
ATOM      2  C   LIG A   1      -8.493  -1.153 125.632  0.00  0.00    -0.025 C 
ATOM      3  C   LIG A   1      -7.894  -1.036 124.194  0.00  0.00    +0.021 C 
ATOM      4  C   LIG A   1      -7.163   0.312 124.026  0.00  0.00    +0.016 C 
ATOM      5  C   LIG A   1      -8.105   1.521 124.244  0.00  0.00    +0.015 C 
ATOM      6  C   LIG A   1      -8.837   1.397 125.599  0.00  0.00    +0.008 C 
ATOM      7  C   LIG A   1      -9.469   0.024 125.858  0.00  0.00    +0.008 C 
ATOM      8  C   LIG A   1      -7.098  -2.277 123.797  0.00  0.00    -0.073 C 
ATOM      9  C   LIG A   1      -7.342  -3.471 124.373  0.00  0.00    -0.027 C 
ATOM     10  C   LIG A   1      -8.372  -3.705 125.440  0.00  0.00    +0.028 C 
ATOM     11  C   LIG A   1      -9.267  -2.492 125.715  0.00  0.00    +0.011 C 
ATOM     12  C   LIG A   1      -6.094  -2.160 122.685  0.00  0.00    +0.039 C 
ENDROOT
BRANCH   5  13
ATOM     13  C   LIG A   1      -8.990   1.800 123.019  0.00  0.00    -0.077 C 
ATOM     14  C   LIG A   1     -10.093   1.111 122.677  0.00  0.00    +0.007 C 
ATOM     15  C   LIG A   1      -8.602   3.003 122.191  0.00  0.00    +0.038 C 
ENDBRANCH   5  13
TORSDOF 1
ENDMDL
MODEL 4
REMARK VINA RESULT:      -6.0      1.396      5.066
REMARK  Name = NuBBE_1545
REMARK  4 active torsions:
REMARK  status: ('A' for Active; 'I' for Inactive)
REMARK    1  A    between atoms: C_1  and  C_2
REMARK    2  A    between atoms: C_6  and  C_10
REMARK    3  A    between atoms: C_10  and  C_12
REMARK    4  A    between atoms: C_13  and  C_17
REMARK                            x       y       z     vdW  Elec       q    Type
REMARK                         _______ _______ _______ _____ _____    ______ ____
ROOT
ATOM      1  C   LIG A   1      -7.357  -0.599 128.886  0.00  0.00    +0.012 C 
ATOM      2  C   LIG A   1      -7.558  -2.016 128.285  0.00  0.00    -0.025 C 
ATOM      3  C   LIG A   1      -6.216  -2.712 127.890  0.00  0.00    +0.021 C 
ATOM      4  C   LIG A   1      -5.495  -1.901 126.793  0.00  0.00    +0.016 C 
ATOM      5  C   LIG A   1      -6.348  -1.763 125.509  0.00  0.00    +0.015 C 
ATOM      6  C   LIG A   1      -7.747  -1.203 125.850  0.00  0.00    +0.008 C 
ATOM      7  C   LIG A   1      -8.445  -1.902 127.023  0.00  0.00    +0.008 C 
ATOM      8  C   LIG A   1      -5.373  -3.075 129.111  0.00  0.00    -0.073 C 
ATOM      9  C   LIG A   1      -5.945  -3.259 130.317  0.00  0.00    -0.027 C 
ATOM     10  C   LIG A   1      -7.414  -3.117 130.593  0.00  0.00    +0.028 C 
ATOM     11  C   LIG A   1      -8.264  -2.908 129.335  0.00  0.00    +0.011 C 
ATOM     12  C   LIG A   1      -3.901  -3.311 128.921  0.00  0.00    +0.039 C 
ENDROOT
BRANCH   5  13
ATOM     13  C   LIG A   1      -6.319  -3.035 124.648  0.00  0.00    -0.077 C 
ATOM     14  C   LIG A   1      -7.397  -3.728 124.238  0.00  0.00    +0.007 C 
ATOM     15  C   LIG A   1      -4.952  -3.475 124.176  0.00  0.00    +0.038 C 
ENDBRANCH   5  13
TORSDOF 1
ENDMDL
MODEL 5
REMARK VINA RESULT:      -6.0      2.112      4.566
REMARK  Name = NuBBE_1545
REMARK  4 active torsions:
REMARK  status: ('A' for Active; 'I' for Inactive)
REMARK    1  A    between atoms: C_1  and  C_2
REMARK    2  A    between atoms: C_6  and  C_10
REMARK    3  A    between atoms: C_10  and  C_12
REMARK    4  A    between atoms: C_13  and  C_17
REMARK                            x       y       z     vdW  Elec       q    Type
REMARK                         _______ _______ _______ _____ _____    ______ ____
ROOT
ATOM      1  C   LIG A   1      -5.937  -1.861 125.845  0.00  0.00    +0.012 C 
ATOM      2  C   LIG A   1      -7.276  -1.104 126.048  0.00  0.00    -0.025 C 
ATOM      3  C   LIG A   1      -8.320  -1.390 124.921  0.00  0.00    +0.021 C 
ATOM      4  C   LIG A   1      -7.782  -0.909 123.558  0.00  0.00    +0.016 C 
ATOM      5  C   LIG A   1      -7.484   0.611 123.548  0.00  0.00    +0.015 C 
ATOM      6  C   LIG A   1      -6.558   0.985 124.727  0.00  0.00    +0.008 C 
ATOM      7  C   LIG A   1      -6.992   0.415 126.084  0.00  0.00    +0.008 C 
ATOM      8  C   LIG A   1      -8.836  -2.827 124.962  0.00  0.00    -0.073 C 
ATOM      9  C   LIG A   1      -8.804  -3.542 126.104  0.00  0.00    -0.027 C 
ATOM     10  C   LIG A   1      -8.266  -3.034 127.411  0.00  0.00    +0.028 C 
ATOM     11  C   LIG A   1      -7.900  -1.546 127.394  0.00  0.00    +0.011 C 
ATOM     12  C   LIG A   1      -9.461  -3.401 123.721  0.00  0.00    +0.039 C 
ENDROOT
BRANCH   5  13
ATOM     13  C   LIG A   1      -8.757   1.455 123.391  0.00  0.00    -0.077 C 
ATOM     14  C   LIG A   1      -9.905   1.043 122.822  0.00  0.00    +0.007 C 
ATOM     15  C   LIG A   1      -8.708   2.836 124.004  0.00  0.00    +0.038 C 
ENDBRANCH   5  13
TORSDOF 1
ENDMDL
MODEL 6
REMARK VINA RESULT:      -6.0      1.634      3.149
REMARK  Name = NuBBE_1545
REMARK  4 active torsions:
REMARK  status: ('A' for Active; 'I' for Inactive)
REMARK    1  A    between atoms: C_1  and  C_2
REMARK    2  A    between atoms: C_6  and  C_10
REMARK    3  A    between atoms: C_10  and  C_12
REMARK    4  A    between atoms: C_13  and  C_17
REMARK                            x       y       z     vdW  Elec       q    Type
REMARK                         _______ _______ _______ _____ _____    ______ ____
ROOT
ATOM      1  C   LIG A   1      -7.846  -0.385 127.345  0.00  0.00    +0.012 C 
ATOM      2  C   LIG A   1      -6.988  -1.644 127.051  0.00  0.00    -0.025 C 
ATOM      3  C   LIG A   1      -7.437  -2.898 127.869  0.00  0.00    +0.021 C 
ATOM      4  C   LIG A   1      -7.275  -2.638 129.381  0.00  0.00    +0.016 C 
ATOM      5  C   LIG A   1      -5.809  -2.324 129.768  0.00  0.00    +0.015 C 
ATOM      6  C   LIG A   1      -5.256  -1.174 128.897  0.00  0.00    +0.008 C 
ATOM      7  C   LIG A   1      -5.513  -1.335 127.393  0.00  0.00    +0.008 C 
ATOM      8  C   LIG A   1      -8.804  -3.417 127.426  0.00  0.00    -0.073 C 
ATOM      9  C   LIG A   1      -9.272  -3.168 126.187  0.00  0.00    -0.027 C 
ATOM     10  C   LIG A   1      -8.540  -2.370 125.147  0.00  0.00    +0.028 C 
ATOM     11  C   LIG A   1      -7.110  -1.991 125.547  0.00  0.00    +0.011 C 
ATOM     12  C   LIG A   1      -9.581  -4.289 128.373  0.00  0.00    +0.039 C 
ENDROOT
BRANCH   5  13
ATOM     13  C   LIG A   1      -4.943  -3.590 129.850  0.00  0.00    -0.077 C 
ATOM     14  C   LIG A   1      -3.679  -3.703 129.402  0.00  0.00    +0.007 C 
ATOM     15  C   LIG A   1      -5.565  -4.765 130.567  0.00  0.00    +0.038 C 
ENDBRANCH   5  13
TORSDOF 1
ENDMDL
MODEL 7
REMARK VINA RESULT:      -5.8      1.184      4.843
REMARK  Name = NuBBE_1545
REMARK  4 active torsions:
REMARK  status: ('A' for Active; 'I' for Inactive)
REMARK    1  A    between atoms: C_1  and  C_2
REMARK    2  A    between atoms: C_6  and  C_10
REMARK    3  A    between atoms: C_10  and  C_12
REMARK    4  A    between atoms: C_13  and  C_17
REMARK                            x       y       z     vdW  Elec       q    Type
REMARK                         _______ _______ _______ _____ _____    ______ ____
ROOT
ATOM      1  C   LIG A   1      -8.582  -0.773 127.430  0.00  0.00    +0.012 C 
ATOM      2  C   LIG A   1      -8.175  -2.100 126.737  0.00  0.00    -0.025 C 
ATOM      3  C   LIG A   1      -6.637  -2.374 126.789  0.00  0.00    +0.021 C 
ATOM      4  C   LIG A   1      -5.871  -1.267 126.035  0.00  0.00    +0.016 C 
ATOM      5  C   LIG A   1      -6.283  -1.180 124.545  0.00  0.00    +0.015 C 
ATOM      6  C   LIG A   1      -7.817  -1.044 124.417  0.00  0.00    +0.008 C 
ATOM      7  C   LIG A   1      -8.617  -2.048 125.257  0.00  0.00    +0.008 C 
ATOM      8  C   LIG A   1      -6.151  -2.671 128.206  0.00  0.00    -0.073 C 
ATOM      9  C   LIG A   1      -6.994  -3.153 129.141  0.00  0.00    -0.027 C 
ATOM     10  C   LIG A   1      -8.452  -3.427 128.911  0.00  0.00    +0.028 C 
ATOM     11  C   LIG A   1      -8.889  -3.275 127.450  0.00  0.00    +0.011 C 
ATOM     12  C   LIG A   1      -4.690  -2.498 128.514  0.00  0.00    +0.039 C 
ENDROOT
BRANCH   5  13
ATOM     13  C   LIG A   1      -5.626  -2.275 123.691  0.00  0.00    -0.077 C 
ATOM     14  C   LIG A   1      -4.869  -3.284 124.160  0.00  0.00    +0.007 C 
ATOM     15  C   LIG A   1      -5.938  -2.229 122.213  0.00  0.00    +0.038 C 
ENDBRANCH   5  13
TORSDOF 1
ENDMDL
MODEL 8
REMARK VINA RESULT:      -5.7      1.506      3.525
REMARK  Name = NuBBE_1545
REMARK  4 active torsions:
REMARK  status: ('A' for Active; 'I' for Inactive)
REMARK    1  A    between atoms: C_1  and  C_2
REMARK    2  A    between atoms: C_6  and  C_10
REMARK    3  A    between atoms: C_10  and  C_12
REMARK    4  A    between atoms: C_13  and  C_17
REMARK                            x       y       z     vdW  Elec       q    Type
REMARK                         _______ _______ _______ _____ _____    ______ ____
ROOT
ATOM      1  C   LIG A   1      -7.082  -1.677 122.780  0.00  0.00    +0.012 C 
ATOM      2  C   LIG A   1      -8.076  -1.295 123.909  0.00  0.00    -0.025 C 
ATOM      3  C   LIG A   1      -7.366  -0.896 125.243  0.00  0.00    +0.021 C 
ATOM      4  C   LIG A   1      -6.557  -2.087 125.797  0.00  0.00    +0.016 C 
ATOM      5  C   LIG A   1      -7.450  -3.318 126.089  0.00  0.00    +0.015 C 
ATOM      6  C   LIG A   1      -8.287  -3.685 124.843  0.00  0.00    +0.008 C 
ATOM      7  C   LIG A   1      -9.005  -2.499 124.186  0.00  0.00    +0.008 C 
ATOM      8  C   LIG A   1      -6.607   0.423 125.121  0.00  0.00    -0.073 C 
ATOM      9  C   LIG A   1      -6.954   1.339 124.195  0.00  0.00    -0.027 C 
ATOM     10  C   LIG A   1      -8.071   1.168 123.206  0.00  0.00    +0.028 C 
ATOM     11  C   LIG A   1      -8.921  -0.085 123.442  0.00  0.00    +0.011 C 
ATOM     12  C   LIG A   1      -5.518   0.719 126.114  0.00  0.00    +0.039 C 
ENDROOT
BRANCH   5  13
ATOM     13  C   LIG A   1      -8.226  -3.177 127.408  0.00  0.00    -0.077 C 
ATOM     14  C   LIG A   1      -9.243  -3.963 127.806  0.00  0.00    +0.007 C 
ATOM     15  C   LIG A   1      -7.730  -2.102 128.347  0.00  0.00    +0.038 C 
ENDBRANCH   5  13
TORSDOF 1
ENDMDL
MODEL 9
REMARK VINA RESULT:      -5.6      2.039      3.596
REMARK  Name = NuBBE_1545
REMARK  4 active torsions:
REMARK  status: ('A' for Active; 'I' for Inactive)
REMARK    1  A    between atoms: C_1  and  C_2
REMARK    2  A    between atoms: C_6  and  C_10
REMARK    3  A    between atoms: C_10  and  C_12
REMARK    4  A    between atoms: C_13  and  C_17
REMARK                            x       y       z     vdW  Elec       q    Type
REMARK                         _______ _______ _______ _____ _____    ______ ____
ROOT
ATOM      1  C   LIG A   1      -5.950  -2.567 123.719  0.00  0.00    +0.012 C 
ATOM      2  C   LIG A   1      -6.892  -2.147 124.878  0.00  0.00    -0.025 C 
ATOM      3  C   LIG A   1      -7.863  -0.985 124.491  0.00  0.00    +0.021 C 
ATOM      4  C   LIG A   1      -7.063   0.285 124.135  0.00  0.00    +0.016 C 
ATOM      5  C   LIG A   1      -6.188   0.777 125.314  0.00  0.00    +0.015 C 
ATOM      6  C   LIG A   1      -5.295  -0.370 125.837  0.00  0.00    +0.008 C 
ATOM      7  C   LIG A   1      -6.034  -1.692 126.081  0.00  0.00    +0.008 C 
ATOM      8  C   LIG A   1      -8.907  -1.423 123.465  0.00  0.00    -0.073 C 
ATOM      9  C   LIG A   1      -9.259  -2.718 123.345  0.00  0.00    -0.027 C 
ATOM     10  C   LIG A   1      -8.679  -3.837 124.161  0.00  0.00    +0.028 C 
ATOM     11  C   LIG A   1      -7.754  -3.367 125.288  0.00  0.00    +0.011 C 
ATOM     12  C   LIG A   1      -9.599  -0.366 122.651  0.00  0.00    +0.039 C 
ENDROOT
BRANCH   5  13
ATOM     13  C   LIG A   1      -7.004   1.536 126.370  0.00  0.00    -0.077 C 
ATOM     14  C   LIG A   1      -6.761   1.540 127.693  0.00  0.00    +0.007 C 
ATOM     15  C   LIG A   1      -8.123   2.401 125.837  0.00  0.00    +0.038 C 
ENDBRANCH   5  13
TORSDOF 1
ENDMDL
