MODEL 1
REMARK VINA RESULT:      -8.4      0.000      0.000
REMARK  Name = NuBBE_1175
REMARK  13 active torsions:
REMARK  status: ('A' for Active; 'I' for Inactive)
REMARK    1  A    between atoms: C_1  and  C_2
REMARK    2  A    between atoms: C_2  and  C_3
REMARK    3  A    between atoms: C_6  and  C_7
REMARK    4  A    between atoms: C_7  and  O_8
REMARK    5  A    between atoms: C_12  and  C_13
REMARK    6  A    between atoms: C_14  and  C_15
REMARK    7  A    between atoms: C_17  and  O_19
REMARK    8  A    between atoms: C_21  and  C_22
REMARK    9  A    between atoms: C_21  and  C_23
REMARK   10  A    between atoms: C_23  and  O_24
REMARK   11  A    between atoms: C_25  and  O_27
REMARK   12  A    between atoms: C_28  and  O_30
REMARK   13  A    between atoms: C_32  and  C_33
REMARK                            x       y       z     vdW  Elec       q    Type
REMARK                         _______ _______ _______ _____ _____    ______ ____
ROOT
ATOM      1  C   LIG A   1      -2.234   3.064 127.440  0.00  0.00    +0.011 C 
ATOM      2  C   LIG A   1      -3.368   4.099 127.584  0.00  0.00    -0.034 C 
ATOM      3  C   LIG A   1      -2.724   5.497 127.660  0.00  0.00    +0.011 C 
ATOM      4  C   LIG A   1      -4.293   4.044 126.352  0.00  0.00    +0.007 C 
ATOM      5  C   LIG A   1      -5.207   2.817 126.329  0.00  0.00    +0.019 C 
ATOM      6  C   LIG A   1      -6.053   2.675 127.614  0.00  0.00    +0.074 C 
ATOM      7  C   LIG A   1      -6.817   1.332 127.570  0.00  0.00    +0.019 C 
ATOM      8  C   LIG A   1      -7.704   1.155 128.805  0.00  0.00    +0.012 C 
ATOM      9  C   LIG A   1      -6.980   1.270 130.182  0.00  0.00    -0.005 C 
ATOM     10  C   LIG A   1      -6.181  -0.075 130.315  0.00  0.00    +0.016 C 
ATOM     11  C   LIG A   1      -8.058   1.476 131.429  0.00  0.00    -0.017 C 
ATOM     12  C   LIG A   1      -8.165   0.135 132.247  0.00  0.00    +0.012 C 
ATOM     13  C   LIG A   1      -9.513   1.730 131.006  0.00  0.00    +0.039 C 
ATOM     14  C   LIG A   1      -9.855   3.139 130.550  0.00  0.00    +0.119 C 
ATOM     15  C   LIG A   1      -9.746   4.174 131.698  0.00  0.00    +0.034 C 
ATOM     16  C   LIG A   1     -10.257   5.658 131.267  0.00  0.00    +0.025 C 
ATOM     17  C   LIG A   1     -10.731   6.454 132.515  0.00  0.00    +0.016 C 
ATOM     18  C   LIG A   1      -9.122   6.411 130.524  0.00  0.00    +0.151 C 
ATOM     19  C   LIG A   1      -7.838   6.476 131.341  0.00  0.00    +0.144 C 
ATOM     20  C   LIG A   1      -7.325   5.067 131.586  0.00  0.00    +0.041 C 
ATOM     21  C   LIG A   1      -8.284   4.107 132.342  0.00  0.00    -0.020 C 
ATOM     22  C   LIG A   1      -8.359   4.600 133.823  0.00  0.00    +0.012 C 
ATOM     23  C   LIG A   1      -7.663   2.600 132.466  0.00  0.00    +0.006 C 
ATOM     24  C   LIG A   1      -6.132   2.573 132.658  0.00  0.00    +0.031 C 
ATOM     25  C   LIG A   1      -5.427   2.812 131.362  0.00  0.00    -0.026 C 
ATOM     26  C   LIG A   1      -5.856   2.327 130.179  0.00  0.00    -0.063 C 
ATOM     27  C   LIG A   1      -5.119   2.632 128.858  0.00  0.00    +0.033 C 
ATOM     28  C   LIG A   1      -4.153   3.846 128.895  0.00  0.00    +0.015 C 
ENDROOT
BRANCH   6  29
ATOM     29  C   LIG A   1      -7.041   3.854 127.619  0.00  0.00    +0.311 C 
ATOM     30  O   LIG A   1      -6.995   4.863 128.292  0.00  0.00    -0.250 OA
BRANCH  29  31
ATOM     31  O   LIG A   1      -8.005   3.756 126.676  0.00  0.00    -0.480 OA
ATOM     32  H   LIG A   1      -7.767   4.457 126.032  0.00  0.00    +0.295 HD
ENDBRANCH  29  31
ENDBRANCH   6  29
BRANCH  14  33
ATOM     33  O   LIG A   1     -11.211   3.032 130.112  0.00  0.00    -0.392 OA
ATOM     34  H   LIG A   1     -11.346   3.648 129.371  0.00  0.00    +0.210 HD
ENDBRANCH  14  33
BRANCH  18  35
ATOM     35  O   LIG A   1      -9.508   7.749 130.168  0.00  0.00    -0.389 OA
ATOM     36  H   LIG A   1     -10.485   7.745 130.205  0.00  0.00    +0.210 HD
ENDBRANCH  18  35
BRANCH  19  37
ATOM     37  O   LIG A   1      -6.847   7.207 130.608  0.00  0.00    -0.389 OA
ATOM     38  H   LIG A   1      -6.206   6.555 130.275  0.00  0.00    +0.210 HD
ENDBRANCH  19  37
BRANCH  16  39
ATOM     39  C   LIG A   1     -11.499   5.637 130.310  0.00  0.00    +0.165 C 
BRANCH  39  40
ATOM     40  O   LIG A   1     -11.178   5.902 128.942  0.00  0.00    -0.394 OA
ATOM     41  H   LIG A   1     -11.392   6.846 128.785  0.00  0.00    +0.209 HD
ENDBRANCH  39  40
ENDBRANCH  16  39
TORSDOF 7
ENDMDL
MODEL 2
REMARK VINA RESULT:      -8.3      2.348      4.099
REMARK  Name = NuBBE_1175
REMARK  13 active torsions:
REMARK  status: ('A' for Active; 'I' for Inactive)
REMARK    1  A    between atoms: C_1  and  C_2
REMARK    2  A    between atoms: C_2  and  C_3
REMARK    3  A    between atoms: C_6  and  C_7
REMARK    4  A    between atoms: C_7  and  O_8
REMARK    5  A    between atoms: C_12  and  C_13
REMARK    6  A    between atoms: C_14  and  C_15
REMARK    7  A    between atoms: C_17  and  O_19
REMARK    8  A    between atoms: C_21  and  C_22
REMARK    9  A    between atoms: C_21  and  C_23
REMARK   10  A    between atoms: C_23  and  O_24
REMARK   11  A    between atoms: C_25  and  O_27
REMARK   12  A    between atoms: C_28  and  O_30
REMARK   13  A    between atoms: C_32  and  C_33
REMARK                            x       y       z     vdW  Elec       q    Type
REMARK                         _______ _______ _______ _____ _____    ______ ____
ROOT
ATOM      1  C   LIG A   1      -0.786   5.312 132.592  0.00  0.00    +0.011 C 
ATOM      2  C   LIG A   1      -2.226   5.848 132.728  0.00  0.00    -0.034 C 
ATOM      3  C   LIG A   1      -2.502   6.081 134.227  0.00  0.00    +0.011 C 
ATOM      4  C   LIG A   1      -2.362   7.191 131.984  0.00  0.00    +0.007 C 
ATOM      5  C   LIG A   1      -2.396   7.045 130.461  0.00  0.00    +0.019 C 
ATOM      6  C   LIG A   1      -3.497   6.075 129.977  0.00  0.00    +0.074 C 
ATOM      7  C   LIG A   1      -3.351   5.866 128.452  0.00  0.00    +0.019 C 
ATOM      8  C   LIG A   1      -4.443   4.940 127.910  0.00  0.00    +0.012 C 
ATOM      9  C   LIG A   1      -4.548   3.542 128.595  0.00  0.00    -0.005 C 
ATOM     10  C   LIG A   1      -3.315   2.744 128.041  0.00  0.00    +0.016 C 
ATOM     11  C   LIG A   1      -5.985   2.789 128.238  0.00  0.00    -0.017 C 
ATOM     12  C   LIG A   1      -5.717   1.626 127.211  0.00  0.00    +0.012 C 
ATOM     13  C   LIG A   1      -7.018   3.656 127.502  0.00  0.00    +0.039 C 
ATOM     14  C   LIG A   1      -7.808   4.641 128.349  0.00  0.00    +0.119 C 
ATOM     15  C   LIG A   1      -8.749   3.933 129.355  0.00  0.00    +0.034 C 
ATOM     16  C   LIG A   1      -9.714   4.968 130.159  0.00  0.00    +0.025 C 
ATOM     17  C   LIG A   1     -11.008   4.248 130.635  0.00  0.00    +0.016 C 
ATOM     18  C   LIG A   1      -8.945   5.580 131.361  0.00  0.00    +0.151 C 
ATOM     19  C   LIG A   1      -8.371   4.514 132.286  0.00  0.00    +0.144 C 
ATOM     20  C   LIG A   1      -7.365   3.671 131.520  0.00  0.00    +0.041 C 
ATOM     21  C   LIG A   1      -7.902   2.929 130.266  0.00  0.00    -0.020 C 
ATOM     22  C   LIG A   1      -8.841   1.787 130.772  0.00  0.00    +0.012 C 
ATOM     23  C   LIG A   1      -6.713   2.132 129.476  0.00  0.00    +0.006 C 
ATOM     24  C   LIG A   1      -5.643   1.528 130.409  0.00  0.00    +0.031 C 
ATOM     25  C   LIG A   1      -4.693   2.580 130.883  0.00  0.00    -0.026 C 
ATOM     26  C   LIG A   1      -4.259   3.596 130.109  0.00  0.00    -0.063 C 
ATOM     27  C   LIG A   1      -3.308   4.685 130.652  0.00  0.00    +0.033 C 
ATOM     28  C   LIG A   1      -3.234   4.800 132.197  0.00  0.00    +0.015 C 
ENDROOT
BRANCH   6  29
ATOM     29  C   LIG A   1      -4.843   6.745 130.300  0.00  0.00    +0.311 C 
ATOM     30  O   LIG A   1      -5.698   6.367 131.075  0.00  0.00    -0.250 OA
BRANCH  29  31
ATOM     31  O   LIG A   1      -5.008   7.945 129.700  0.00  0.00    -0.480 OA
ATOM     32  H   LIG A   1      -5.220   7.710 128.771  0.00  0.00    +0.295 HD
ENDBRANCH  29  31
ENDBRANCH   6  29
BRANCH  14  33
ATOM     33  O   LIG A   1      -8.575   5.372 127.389  0.00  0.00    -0.392 OA
ATOM     34  H   LIG A   1      -7.991   6.018 126.954  0.00  0.00    +0.210 HD
ENDBRANCH  14  33
BRANCH  18  35
ATOM     35  O   LIG A   1      -9.773   6.462 132.136  0.00  0.00    -0.389 OA
ATOM     36  H   LIG A   1     -10.150   5.898 132.840  0.00  0.00    +0.210 HD
ENDBRANCH  18  35
BRANCH  19  37
ATOM     37  O   LIG A   1      -7.702   5.150 133.382  0.00  0.00    -0.389 OA
ATOM     38  H   LIG A   1      -8.183   5.976 133.564  0.00  0.00    +0.210 HD
ENDBRANCH  19  37
BRANCH  16  39
ATOM     39  C   LIG A   1     -10.221   6.162 129.280  0.00  0.00    +0.165 C 
BRANCH  39  40
ATOM     40  O   LIG A   1      -9.485   7.374 129.473  0.00  0.00    -0.394 OA
ATOM     41  H   LIG A   1      -9.093   7.600 128.603  0.00  0.00    +0.209 HD
ENDBRANCH  39  40
ENDBRANCH  16  39
TORSDOF 7
ENDMDL
MODEL 3
REMARK VINA RESULT:      -8.2      2.620      6.371
REMARK  Name = NuBBE_1175
REMARK  13 active torsions:
REMARK  status: ('A' for Active; 'I' for Inactive)
REMARK    1  A    between atoms: C_1  and  C_2
REMARK    2  A    between atoms: C_2  and  C_3
REMARK    3  A    between atoms: C_6  and  C_7
REMARK    4  A    between atoms: C_7  and  O_8
REMARK    5  A    between atoms: C_12  and  C_13
REMARK    6  A    between atoms: C_14  and  C_15
REMARK    7  A    between atoms: C_17  and  O_19
REMARK    8  A    between atoms: C_21  and  C_22
REMARK    9  A    between atoms: C_21  and  C_23
REMARK   10  A    between atoms: C_23  and  O_24
REMARK   11  A    between atoms: C_25  and  O_27
REMARK   12  A    between atoms: C_28  and  O_30
REMARK   13  A    between atoms: C_32  and  C_33
REMARK                            x       y       z     vdW  Elec       q    Type
REMARK                         _______ _______ _______ _____ _____    ______ ____
ROOT
ATOM      1  C   LIG A   1     -11.343   5.079 130.300  0.00  0.00    +0.011 C 
ATOM      2  C   LIG A   1     -10.153   5.975 130.698  0.00  0.00    -0.034 C 
ATOM      3  C   LIG A   1     -10.345   7.345 130.016  0.00  0.00    +0.011 C 
ATOM      4  C   LIG A   1     -10.133   6.180 132.225  0.00  0.00    +0.007 C 
ATOM      5  C   LIG A   1      -9.662   4.947 133.001  0.00  0.00    +0.019 C 
ATOM      6  C   LIG A   1      -8.282   4.435 132.532  0.00  0.00    +0.074 C 
ATOM      7  C   LIG A   1      -7.966   3.104 133.252  0.00  0.00    +0.019 C 
ATOM      8  C   LIG A   1      -6.588   2.569 132.853  0.00  0.00    +0.012 C 
ATOM      9  C   LIG A   1      -6.353   2.373 131.323  0.00  0.00    -0.005 C 
ATOM     10  C   LIG A   1      -7.180   1.088 130.964  0.00  0.00    +0.016 C 
ATOM     11  C   LIG A   1      -4.742   2.193 130.965  0.00  0.00    -0.017 C 
ATOM     12  C   LIG A   1      -4.455   0.685 130.617  0.00  0.00    +0.012 C 
ATOM     13  C   LIG A   1      -3.775   2.460 132.130  0.00  0.00    +0.039 C 
ATOM     14  C   LIG A   1      -3.484   3.916 132.456  0.00  0.00    +0.119 C 
ATOM     15  C   LIG A   1      -2.709   4.631 131.321  0.00  0.00    +0.034 C 
ATOM     16  C   LIG A   1      -2.254   6.143 131.717  0.00  0.00    +0.025 C 
ATOM     17  C   LIG A   1      -1.005   6.568 130.895  0.00  0.00    +0.016 C 
ATOM     18  C   LIG A   1      -3.433   7.125 131.485  0.00  0.00    +0.151 C 
ATOM     19  C   LIG A   1      -3.974   7.057 130.062  0.00  0.00    +0.144 C 
ATOM     20  C   LIG A   1      -4.522   5.664 129.799  0.00  0.00    +0.041 C 
ATOM     21  C   LIG A   1      -3.517   4.490 129.948  0.00  0.00    -0.020 C 
ATOM     22  C   LIG A   1      -2.512   4.587 128.755  0.00  0.00    +0.012 C 
ATOM     23  C   LIG A   1      -4.239   3.040 129.730  0.00  0.00    +0.006 C 
ATOM     24  C   LIG A   1      -5.353   3.054 128.662  0.00  0.00    +0.031 C 
ATOM     25  C   LIG A   1      -6.608   3.655 129.208  0.00  0.00    -0.026 C 
ATOM     26  C   LIG A   1      -7.040   3.461 130.470  0.00  0.00    -0.063 C 
ATOM     27  C   LIG A   1      -8.322   4.134 131.006  0.00  0.00    +0.033 C 
ATOM     28  C   LIG A   1      -8.828   5.353 130.191  0.00  0.00    +0.015 C 
ENDROOT
BRANCH   6  29
ATOM     29  C   LIG A   1      -7.259   5.513 132.926  0.00  0.00    +0.311 C 
ATOM     30  O   LIG A   1      -6.665   6.281 132.196  0.00  0.00    -0.250 OA
BRANCH  29  31
ATOM     31  O   LIG A   1      -7.108   5.655 134.262  0.00  0.00    -0.480 OA
ATOM     32  H   LIG A   1      -6.231   6.085 134.350  0.00  0.00    +0.295 HD
ENDBRANCH  29  31
ENDBRANCH   6  29
BRANCH  14  33
ATOM     33  O   LIG A   1      -2.677   3.843 133.633  0.00  0.00    -0.392 OA
ATOM     34  H   LIG A   1      -3.230   4.072 134.401  0.00  0.00    +0.210 HD
ENDBRANCH  14  33
BRANCH  18  35
ATOM     35  O   LIG A   1      -3.064   8.485 131.771  0.00  0.00    -0.389 OA
ATOM     36  H   LIG A   1      -2.602   8.442 132.632  0.00  0.00    +0.210 HD
ENDBRANCH  18  35
BRANCH  19  37
ATOM     37  O   LIG A   1      -5.038   8.007 129.915  0.00  0.00    -0.389 OA
ATOM     38  H   LIG A   1      -4.638   8.890 129.994  0.00  0.00    +0.210 HD
ENDBRANCH  19  37
BRANCH  16  39
ATOM     39  C   LIG A   1      -1.817   6.292 133.215  0.00  0.00    +0.165 C 
BRANCH  39  40
ATOM     40  O   LIG A   1      -2.825   6.862 134.055  0.00  0.00    -0.394 OA
ATOM     41  H   LIG A   1      -2.575   7.801 134.189  0.00  0.00    +0.209 HD
ENDBRANCH  39  40
ENDBRANCH  16  39
TORSDOF 7
ENDMDL
MODEL 4
REMARK VINA RESULT:      -7.9      2.242      4.587
REMARK  Name = NuBBE_1175
REMARK  13 active torsions:
REMARK  status: ('A' for Active; 'I' for Inactive)
REMARK    1  A    between atoms: C_1  and  C_2
REMARK    2  A    between atoms: C_2  and  C_3
REMARK    3  A    between atoms: C_6  and  C_7
REMARK    4  A    between atoms: C_7  and  O_8
REMARK    5  A    between atoms: C_12  and  C_13
REMARK    6  A    between atoms: C_14  and  C_15
REMARK    7  A    between atoms: C_17  and  O_19
REMARK    8  A    between atoms: C_21  and  C_22
REMARK    9  A    between atoms: C_21  and  C_23
REMARK   10  A    between atoms: C_23  and  O_24
REMARK   11  A    between atoms: C_25  and  O_27
REMARK   12  A    between atoms: C_28  and  O_30
REMARK   13  A    between atoms: C_32  and  C_33
REMARK                            x       y       z     vdW  Elec       q    Type
REMARK                         _______ _______ _______ _____ _____    ______ ____
ROOT
ATOM      1  C   LIG A   1      -5.589  -2.870 128.707  0.00  0.00    +0.011 C 
ATOM      2  C   LIG A   1      -6.675  -1.777 128.645  0.00  0.00    -0.034 C 
ATOM      3  C   LIG A   1      -7.099  -1.617 127.171  0.00  0.00    +0.011 C 
ATOM      4  C   LIG A   1      -7.903  -2.203 129.472  0.00  0.00    +0.007 C 
ATOM      5  C   LIG A   1      -7.683  -2.114 130.984  0.00  0.00    +0.019 C 
ATOM      6  C   LIG A   1      -7.217  -0.713 131.440  0.00  0.00    +0.074 C 
ATOM      7  C   LIG A   1      -6.866  -0.763 132.944  0.00  0.00    +0.019 C 
ATOM      8  C   LIG A   1      -6.433   0.612 133.460  0.00  0.00    +0.012 C 
ATOM      9  C   LIG A   1      -5.249   1.282 132.696  0.00  0.00    -0.005 C 
ATOM     10  C   LIG A   1      -3.982   0.483 133.165  0.00  0.00    +0.016 C 
ATOM     11  C   LIG A   1      -5.127   2.900 133.048  0.00  0.00    -0.017 C 
ATOM     12  C   LIG A   1      -3.891   3.131 133.994  0.00  0.00    +0.012 C 
ATOM     13  C   LIG A   1      -6.290   3.486 133.863  0.00  0.00    +0.039 C 
ATOM     14  C   LIG A   1      -7.566   3.805 133.101  0.00  0.00    +0.119 C 
ATOM     15  C   LIG A   1      -7.373   4.954 132.081  0.00  0.00    +0.034 C 
ATOM     16  C   LIG A   1      -8.763   5.412 131.368  0.00  0.00    +0.025 C 
ATOM     17  C   LIG A   1      -8.669   6.887 130.888  0.00  0.00    +0.016 C 
ATOM     18  C   LIG A   1      -9.086   4.461 130.185  0.00  0.00    +0.151 C 
ATOM     19  C   LIG A   1      -7.943   4.376 129.181  0.00  0.00    +0.144 C 
ATOM     20  C   LIG A   1      -6.713   3.802 129.866  0.00  0.00    +0.041 C 
ATOM     21  C   LIG A   1      -6.173   4.594 131.087  0.00  0.00    -0.020 C 
ATOM     22  C   LIG A   1      -5.551   5.920 130.541  0.00  0.00    +0.012 C 
ATOM     23  C   LIG A   1      -4.909   3.835 131.794  0.00  0.00    +0.006 C 
ATOM     24  C   LIG A   1      -3.984   3.108 130.795  0.00  0.00    +0.031 C 
ATOM     25  C   LIG A   1      -4.585   1.810 130.360  0.00  0.00    -0.026 C 
ATOM     26  C   LIG A   1      -5.281   0.998 131.180  0.00  0.00    -0.063 C 
ATOM     27  C   LIG A   1      -5.920  -0.315 130.677  0.00  0.00    +0.033 C 
ATOM     28  C   LIG A   1      -6.097  -0.428 129.140  0.00  0.00    +0.015 C 
ENDROOT
BRANCH   6  29
ATOM     29  C   LIG A   1      -8.398   0.241 131.196  0.00  0.00    +0.311 C 
ATOM     30  O   LIG A   1      -8.507   1.091 130.337  0.00  0.00    -0.250 OA
BRANCH  29  31
ATOM     31  O   LIG A   1      -9.461   0.001 131.996  0.00  0.00    -0.480 OA
ATOM     32  H   LIG A   1      -9.487  -0.978 132.058  0.00  0.00    +0.295 HD
ENDBRANCH  29  31
ENDBRANCH   6  29
BRANCH  14  33
ATOM     33  O   LIG A   1      -8.480   4.203 134.124  0.00  0.00    -0.392 OA
ATOM     34  H   LIG A   1      -7.970   4.432 134.922  0.00  0.00    +0.210 HD
ENDBRANCH  14  33
BRANCH  18  35
ATOM     35  O   LIG A   1     -10.279   4.856 129.488  0.00  0.00    -0.389 OA
ATOM     36  H   LIG A   1     -10.609   5.635 129.979  0.00  0.00    +0.210 HD
ENDBRANCH  18  35
BRANCH  19  37
ATOM     37  O   LIG A   1      -8.321   3.506 128.106  0.00  0.00    -0.389 OA
ATOM     38  H   LIG A   1      -7.668   2.785 128.085  0.00  0.00    +0.210 HD
ENDBRANCH  19  37
BRANCH  16  39
ATOM     39  C   LIG A   1      -9.999   5.384 132.332  0.00  0.00    +0.165 C 
BRANCH  39  40
ATOM     40  O   LIG A   1     -10.072   6.512 133.209  0.00  0.00    -0.394 OA
ATOM     41  H   LIG A   1      -9.697   6.219 134.067  0.00  0.00    +0.209 HD
ENDBRANCH  39  40
ENDBRANCH  16  39
TORSDOF 7
ENDMDL
MODEL 5
REMARK VINA RESULT:      -7.7      2.485      5.198
REMARK  Name = NuBBE_1175
REMARK  13 active torsions:
REMARK  status: ('A' for Active; 'I' for Inactive)
REMARK    1  A    between atoms: C_1  and  C_2
REMARK    2  A    between atoms: C_2  and  C_3
REMARK    3  A    between atoms: C_6  and  C_7
REMARK    4  A    between atoms: C_7  and  O_8
REMARK    5  A    between atoms: C_12  and  C_13
REMARK    6  A    between atoms: C_14  and  C_15
REMARK    7  A    between atoms: C_17  and  O_19
REMARK    8  A    between atoms: C_21  and  C_22
REMARK    9  A    between atoms: C_21  and  C_23
REMARK   10  A    between atoms: C_23  and  O_24
REMARK   11  A    between atoms: C_25  and  O_27
REMARK   12  A    between atoms: C_28  and  O_30
REMARK   13  A    between atoms: C_32  and  C_33
REMARK                            x       y       z     vdW  Elec       q    Type
REMARK                         _______ _______ _______ _____ _____    ______ ____
ROOT
ATOM      1  C   LIG A   1      -8.241  -1.795 129.992  0.00  0.00    +0.011 C 
ATOM      2  C   LIG A   1      -6.997  -0.965 130.366  0.00  0.00    -0.034 C 
ATOM      3  C   LIG A   1      -6.033  -1.884 131.143  0.00  0.00    +0.011 C 
ATOM      4  C   LIG A   1      -6.289  -0.469 129.090  0.00  0.00    +0.007 C 
ATOM      5  C   LIG A   1      -7.028   0.671 128.385  0.00  0.00    +0.019 C 
ATOM      6  C   LIG A   1      -7.307   1.871 129.318  0.00  0.00    +0.074 C 
ATOM      7  C   LIG A   1      -8.191   2.896 128.572  0.00  0.00    +0.019 C 
ATOM      8  C   LIG A   1      -8.468   4.127 129.439  0.00  0.00    +0.012 C 
ATOM      9  C   LIG A   1      -9.105   3.845 130.835  0.00  0.00    -0.005 C 
ATOM     10  C   LIG A   1     -10.599   3.484 130.515  0.00  0.00    +0.016 C 
ATOM     11  C   LIG A   1      -8.987   5.160 131.843  0.00  0.00    -0.017 C 
ATOM     12  C   LIG A   1     -10.401   5.838 131.975  0.00  0.00    +0.012 C 
ATOM     13  C   LIG A   1      -8.110   6.310 131.324  0.00  0.00    +0.039 C 
ATOM     14  C   LIG A   1      -6.605   6.137 131.463  0.00  0.00    +0.119 C 
ATOM     15  C   LIG A   1      -6.148   6.123 132.943  0.00  0.00    +0.034 C 
ATOM     16  C   LIG A   1      -4.528   6.095 133.107  0.00  0.00    +0.025 C 
ATOM     17  C   LIG A   1      -4.109   6.707 134.473  0.00  0.00    +0.016 C 
ATOM     18  C   LIG A   1      -4.010   4.639 132.967  0.00  0.00    +0.151 C 
ATOM     19  C   LIG A   1      -4.688   3.686 133.942  0.00  0.00    +0.144 C 
ATOM     20  C   LIG A   1      -6.178   3.638 133.645  0.00  0.00    +0.041 C 
ATOM     21  C   LIG A   1      -6.942   4.987 133.739  0.00  0.00    -0.020 C 
ATOM     22  C   LIG A   1      -7.007   5.378 135.251  0.00  0.00    +0.012 C 
ATOM     23  C   LIG A   1      -8.512   4.828 133.312  0.00  0.00    +0.006 C 
ATOM     24  C   LIG A   1      -9.138   3.482 133.736  0.00  0.00    +0.031 C 
ATOM     25  C   LIG A   1      -8.722   2.385 132.810  0.00  0.00    -0.026 C 
ATOM     26  C   LIG A   1      -8.577   2.546 131.479  0.00  0.00    -0.063 C 
ATOM     27  C   LIG A   1      -8.106   1.394 130.565  0.00  0.00    +0.033 C 
ATOM     28  C   LIG A   1      -7.402   0.214 131.285  0.00  0.00    +0.015 C 
ENDROOT
BRANCH   6  29
ATOM     29  C   LIG A   1      -5.939   2.489 129.656  0.00  0.00    +0.311 C 
ATOM     30  O   LIG A   1      -5.341   2.447 130.712  0.00  0.00    -0.250 OA
BRANCH  29  31
ATOM     31  O   LIG A   1      -5.322   3.050 128.593  0.00  0.00    -0.480 OA
ATOM     32  H   LIG A   1      -6.009   3.035 127.893  0.00  0.00    +0.295 HD
ENDBRANCH  29  31
ENDBRANCH   6  29
BRANCH  14  33
ATOM     33  O   LIG A   1      -6.071   7.282 130.794  0.00  0.00    -0.392 OA
ATOM     34  H   LIG A   1      -5.469   7.743 131.403  0.00  0.00    +0.210 HD
ENDBRANCH  14  33
BRANCH  18  35
ATOM     35  O   LIG A   1      -2.588   4.555 133.157  0.00  0.00    -0.389 OA
ATOM     36  H   LIG A   1      -2.224   5.315 132.660  0.00  0.00    +0.210 HD
ENDBRANCH  18  35
BRANCH  19  37
ATOM     37  O   LIG A   1      -4.142   2.371 133.776  0.00  0.00    -0.389 OA
ATOM     38  H   LIG A   1      -4.321   2.106 132.857  0.00  0.00    +0.210 HD
ENDBRANCH  19  37
BRANCH  16  39
ATOM     39  C   LIG A   1      -3.777   6.957 132.035  0.00  0.00    +0.165 C 
BRANCH  39  40
ATOM     40  O   LIG A   1      -3.227   6.190 130.960  0.00  0.00    -0.394 OA
ATOM     41  H   LIG A   1      -2.630   5.528 131.370  0.00  0.00    +0.209 HD
ENDBRANCH  39  40
ENDBRANCH  16  39
TORSDOF 7
ENDMDL
MODEL 6
REMARK VINA RESULT:      -7.4      2.915      5.862
REMARK  Name = NuBBE_1175
REMARK  13 active torsions:
REMARK  status: ('A' for Active; 'I' for Inactive)
REMARK    1  A    between atoms: C_1  and  C_2
REMARK    2  A    between atoms: C_2  and  C_3
REMARK    3  A    between atoms: C_6  and  C_7
REMARK    4  A    between atoms: C_7  and  O_8
REMARK    5  A    between atoms: C_12  and  C_13
REMARK    6  A    between atoms: C_14  and  C_15
REMARK    7  A    between atoms: C_17  and  O_19
REMARK    8  A    between atoms: C_21  and  C_22
REMARK    9  A    between atoms: C_21  and  C_23
REMARK   10  A    between atoms: C_23  and  O_24
REMARK   11  A    between atoms: C_25  and  O_27
REMARK   12  A    between atoms: C_28  and  O_30
REMARK   13  A    between atoms: C_32  and  C_33
REMARK                            x       y       z     vdW  Elec       q    Type
REMARK                         _______ _______ _______ _____ _____    ______ ____
ROOT
ATOM      1  C   LIG A   1      -3.912   8.193 129.956  0.00  0.00    +0.011 C 
ATOM      2  C   LIG A   1      -3.502   6.722 130.172  0.00  0.00    -0.034 C 
ATOM      3  C   LIG A   1      -2.247   6.453 129.318  0.00  0.00    +0.011 C 
ATOM      4  C   LIG A   1      -3.156   6.482 131.654  0.00  0.00    +0.007 C 
ATOM      5  C   LIG A   1      -4.382   6.434 132.568  0.00  0.00    +0.019 C 
ATOM      6  C   LIG A   1      -5.431   5.396 132.110  0.00  0.00    +0.074 C 
ATOM      7  C   LIG A   1      -6.694   5.532 132.990  0.00  0.00    +0.019 C 
ATOM      8  C   LIG A   1      -7.756   4.499 132.604  0.00  0.00    +0.012 C 
ATOM      9  C   LIG A   1      -8.192   4.500 131.106  0.00  0.00    -0.005 C 
ATOM     10  C   LIG A   1      -9.094   5.778 130.966  0.00  0.00    +0.016 C 
ATOM     11  C   LIG A   1      -9.012   3.114 130.702  0.00  0.00    -0.017 C 
ATOM     12  C   LIG A   1     -10.543   3.445 130.551  0.00  0.00    +0.012 C 
ATOM     13  C   LIG A   1      -9.010   2.012 131.773  0.00  0.00    +0.039 C 
ATOM     14  C   LIG A   1      -7.749   1.169 131.882  0.00  0.00    +0.119 C 
ATOM     15  C   LIG A   1      -7.513   0.295 130.625  0.00  0.00    +0.034 C 
ATOM     16  C   LIG A   1      -6.257  -0.727 130.788  0.00  0.00    +0.025 C 
ATOM     17  C   LIG A   1      -6.433  -1.960 129.858  0.00  0.00    +0.016 C 
ATOM     18  C   LIG A   1      -4.930   0.017 130.479  0.00  0.00    +0.151 C 
ATOM     19  C   LIG A   1      -4.941   0.677 129.106  0.00  0.00    +0.144 C 
ATOM     20  C   LIG A   1      -6.038   1.728 129.061  0.00  0.00    +0.041 C 
ATOM     21  C   LIG A   1      -7.483   1.224 129.324  0.00  0.00    -0.020 C 
ATOM     22  C   LIG A   1      -7.909   0.374 128.083  0.00  0.00    +0.012 C 
ATOM     23  C   LIG A   1      -8.562   2.452 129.340  0.00  0.00    +0.006 C 
ATOM     24  C   LIG A   1      -8.239   3.576 128.333  0.00  0.00    +0.031 C 
ATOM     25  C   LIG A   1      -7.149   4.459 128.850  0.00  0.00    -0.026 C 
ATOM     26  C   LIG A   1      -7.024   4.809 130.146  0.00  0.00    -0.063 C 
ATOM     27  C   LIG A   1      -5.858   5.691 130.643  0.00  0.00    +0.033 C 
ATOM     28  C   LIG A   1      -4.634   5.780 129.693  0.00  0.00    +0.015 C 
ENDROOT
BRANCH   6  29
ATOM     29  C   LIG A   1      -4.789   4.012 132.304  0.00  0.00    +0.311 C 
ATOM     30  O   LIG A   1      -4.381   3.251 131.450  0.00  0.00    -0.250 OA
BRANCH  29  31
ATOM     31  O   LIG A   1      -4.585   3.687 133.600  0.00  0.00    -0.480 OA
ATOM     32  H   LIG A   1      -3.992   4.398 133.925  0.00  0.00    +0.295 HD
ENDBRANCH  29  31
ENDBRANCH   6  29
BRANCH  14  33
ATOM     33  O   LIG A   1      -7.996   0.339 133.019  0.00  0.00    -0.392 OA
ATOM     34  H   LIG A   1      -8.359   0.893 133.732  0.00  0.00    +0.210 HD
ENDBRANCH  14  33
BRANCH  18  35
ATOM     35  O   LIG A   1      -3.792  -0.858 130.558  0.00  0.00    -0.389 OA
ATOM     36  H   LIG A   1      -4.058  -1.557 131.190  0.00  0.00    +0.210 HD
ENDBRANCH  18  35
BRANCH  19  37
ATOM     37  O   LIG A   1      -3.679   1.318 128.879  0.00  0.00    -0.389 OA
ATOM     38  H   LIG A   1      -3.181   1.262 129.713  0.00  0.00    +0.210 HD
ENDBRANCH  19  37
BRANCH  16  39
ATOM     39  C   LIG A   1      -6.123  -1.328 132.229  0.00  0.00    +0.165 C 
BRANCH  39  40
ATOM     40  O   LIG A   1      -5.127  -0.688 133.032  0.00  0.00    -0.394 OA
ATOM     41  H   LIG A   1      -5.157  -1.123 133.909  0.00  0.00    +0.209 HD
ENDBRANCH  39  40
ENDBRANCH  16  39
TORSDOF 7
ENDMDL
MODEL 7
REMARK VINA RESULT:      -7.3      3.407      6.965
REMARK  Name = NuBBE_1175
REMARK  13 active torsions:
REMARK  status: ('A' for Active; 'I' for Inactive)
REMARK    1  A    between atoms: C_1  and  C_2
REMARK    2  A    between atoms: C_2  and  C_3
REMARK    3  A    between atoms: C_6  and  C_7
REMARK    4  A    between atoms: C_7  and  O_8
REMARK    5  A    between atoms: C_12  and  C_13
REMARK    6  A    between atoms: C_14  and  C_15
REMARK    7  A    between atoms: C_17  and  O_19
REMARK    8  A    between atoms: C_21  and  C_22
REMARK    9  A    between atoms: C_21  and  C_23
REMARK   10  A    between atoms: C_23  and  O_24
REMARK   11  A    between atoms: C_25  and  O_27
REMARK   12  A    between atoms: C_28  and  O_30
REMARK   13  A    between atoms: C_32  and  C_33
REMARK                            x       y       z     vdW  Elec       q    Type
REMARK                         _______ _______ _______ _____ _____    ______ ____
ROOT
ATOM      1  C   LIG A   1      -3.756  -3.390 131.844  0.00  0.00    +0.011 C 
ATOM      2  C   LIG A   1      -4.280  -3.474 130.396  0.00  0.00    -0.034 C 
ATOM      3  C   LIG A   1      -3.253  -4.273 129.569  0.00  0.00    +0.011 C 
ATOM      4  C   LIG A   1      -5.629  -4.219 130.366  0.00  0.00    +0.007 C 
ATOM      5  C   LIG A   1      -6.798  -3.389 130.903  0.00  0.00    +0.019 C 
ATOM      6  C   LIG A   1      -6.945  -2.027 130.187  0.00  0.00    +0.074 C 
ATOM      7  C   LIG A   1      -8.037  -1.198 130.900  0.00  0.00    +0.019 C 
ATOM      8  C   LIG A   1      -8.252   0.150 130.207  0.00  0.00    +0.012 C 
ATOM      9  C   LIG A   1      -6.982   1.040 130.043  0.00  0.00    -0.005 C 
ATOM     10  C   LIG A   1      -6.708   1.596 131.486  0.00  0.00    +0.016 C 
ATOM     11  C   LIG A   1      -7.222   2.260 128.943  0.00  0.00    -0.017 C 
ATOM     12  C   LIG A   1      -7.375   3.626 129.711  0.00  0.00    +0.012 C 
ATOM     13  C   LIG A   1      -8.531   2.176 128.142  0.00  0.00    +0.039 C 
ATOM     14  C   LIG A   1      -8.558   1.197 126.979  0.00  0.00    +0.119 C 
ATOM     15  C   LIG A   1      -7.594   1.610 125.839  0.00  0.00    +0.034 C 
ATOM     16  C   LIG A   1      -7.725   0.660 124.523  0.00  0.00    +0.025 C 
ATOM     17  C   LIG A   1      -7.273   1.429 123.250  0.00  0.00    +0.016 C 
ATOM     18  C   LIG A   1      -6.886  -0.631 124.720  0.00  0.00    +0.151 C 
ATOM     19  C   LIG A   1      -5.430  -0.331 125.053  0.00  0.00    +0.144 C 
ATOM     20  C   LIG A   1      -5.360   0.427 126.369  0.00  0.00    +0.041 C 
ATOM     21  C   LIG A   1      -6.116   1.783 126.422  0.00  0.00    -0.020 C 
ATOM     22  C   LIG A   1      -5.329   2.787 125.519  0.00  0.00    +0.012 C 
ATOM     23  C   LIG A   1      -6.046   2.460 127.908  0.00  0.00    +0.006 C 
ATOM     24  C   LIG A   1      -4.707   2.221 128.637  0.00  0.00    +0.031 C 
ATOM     25  C   LIG A   1      -4.649   0.841 129.208  0.00  0.00    -0.026 C 
ATOM     26  C   LIG A   1      -5.709   0.215 129.756  0.00  0.00    -0.063 C 
ATOM     27  C   LIG A   1      -5.614  -1.228 130.297  0.00  0.00    +0.033 C 
ATOM     28  C   LIG A   1      -4.402  -2.054 129.792  0.00  0.00    +0.015 C 
ENDROOT
BRANCH   6  29
ATOM     29  C   LIG A   1      -7.365  -2.338 128.741  0.00  0.00    +0.311 C 
ATOM     30  O   LIG A   1      -6.722  -2.173 127.724  0.00  0.00    -0.250 OA
BRANCH  29  31
ATOM     31  O   LIG A   1      -8.563  -2.958 128.646  0.00  0.00    -0.480 OA
ATOM     32  H   LIG A   1      -9.179  -2.233 128.407  0.00  0.00    +0.295 HD
ENDBRANCH  29  31
ENDBRANCH   6  29
BRANCH  14  33
ATOM     33  O   LIG A   1      -9.911   1.252 126.524  0.00  0.00    -0.392 OA
ATOM     34  H   LIG A   1      -9.912   1.210 125.551  0.00  0.00    +0.210 HD
ENDBRANCH  14  33
BRANCH  18  35
ATOM     35  O   LIG A   1      -6.926  -1.480 123.561  0.00  0.00    -0.389 OA
ATOM     36  H   LIG A   1      -6.740  -2.378 123.903  0.00  0.00    +0.210 HD
ENDBRANCH  18  35
BRANCH  19  37
ATOM     37  O   LIG A   1      -4.713  -1.565 125.193  0.00  0.00    -0.389 OA
ATOM     38  H   LIG A   1      -3.947  -1.381 125.764  0.00  0.00    +0.210 HD
ENDBRANCH  19  37
BRANCH  16  39
ATOM     39  C   LIG A   1      -9.195   0.212 124.218  0.00  0.00    +0.165 C 
BRANCH  39  40
ATOM     40  O   LIG A   1      -9.487  -1.128 124.627  0.00  0.00    -0.394 OA
ATOM     41  H   LIG A   1     -10.210  -1.065 125.285  0.00  0.00    +0.209 HD
ENDBRANCH  39  40
ENDBRANCH  16  39
TORSDOF 7
ENDMDL
MODEL 8
REMARK VINA RESULT:      -7.2      2.329      5.489
REMARK  Name = NuBBE_1175
REMARK  13 active torsions:
REMARK  status: ('A' for Active; 'I' for Inactive)
REMARK    1  A    between atoms: C_1  and  C_2
REMARK    2  A    between atoms: C_2  and  C_3
REMARK    3  A    between atoms: C_6  and  C_7
REMARK    4  A    between atoms: C_7  and  O_8
REMARK    5  A    between atoms: C_12  and  C_13
REMARK    6  A    between atoms: C_14  and  C_15
REMARK    7  A    between atoms: C_17  and  O_19
REMARK    8  A    between atoms: C_21  and  C_22
REMARK    9  A    between atoms: C_21  and  C_23
REMARK   10  A    between atoms: C_23  and  O_24
REMARK   11  A    between atoms: C_25  and  O_27
REMARK   12  A    between atoms: C_28  and  O_30
REMARK   13  A    between atoms: C_32  and  C_33
REMARK                            x       y       z     vdW  Elec       q    Type
REMARK                         _______ _______ _______ _____ _____    ______ ____
ROOT
ATOM      1  C   LIG A   1      -4.374  -3.548 131.381  0.00  0.00    +0.011 C 
ATOM      2  C   LIG A   1      -4.681  -2.889 130.021  0.00  0.00    -0.034 C 
ATOM      3  C   LIG A   1      -3.673  -3.440 128.992  0.00  0.00    +0.011 C 
ATOM      4  C   LIG A   1      -6.106  -3.256 129.565  0.00  0.00    +0.007 C 
ATOM      5  C   LIG A   1      -7.204  -2.524 130.342  0.00  0.00    +0.019 C 
ATOM      6  C   LIG A   1      -7.034  -0.988 130.314  0.00  0.00    +0.074 C 
ATOM      7  C   LIG A   1      -8.083  -0.348 131.250  0.00  0.00    +0.019 C 
ATOM      8  C   LIG A   1      -7.986   1.180 131.233  0.00  0.00    +0.012 C 
ATOM      9  C   LIG A   1      -6.586   1.775 131.576  0.00  0.00    -0.005 C 
ATOM     10  C   LIG A   1      -6.451   1.583 133.128  0.00  0.00    +0.016 C 
ATOM     11  C   LIG A   1      -6.471   3.373 131.136  0.00  0.00    -0.017 C 
ATOM     12  C   LIG A   1      -6.529   4.270 132.428  0.00  0.00    +0.012 C 
ATOM     13  C   LIG A   1      -7.642   3.911 130.299  0.00  0.00    +0.039 C 
ATOM     14  C   LIG A   1      -7.641   3.561 128.820  0.00  0.00    +0.119 C 
ATOM     15  C   LIG A   1      -6.465   4.222 128.058  0.00  0.00    +0.034 C 
ATOM     16  C   LIG A   1      -6.538   3.985 126.449  0.00  0.00    +0.025 C 
ATOM     17  C   LIG A   1      -5.788   5.120 125.697  0.00  0.00    +0.016 C 
ATOM     18  C   LIG A   1      -5.942   2.596 126.094  0.00  0.00    +0.151 C 
ATOM     19  C   LIG A   1      -4.525   2.420 126.623  0.00  0.00    +0.144 C 
ATOM     20  C   LIG A   1      -4.540   2.502 128.141  0.00  0.00    +0.041 C 
ATOM     21  C   LIG A   1      -5.082   3.822 128.753  0.00  0.00    -0.020 C 
ATOM     22  C   LIG A   1      -4.026   4.936 128.460  0.00  0.00    +0.012 C 
ATOM     23  C   LIG A   1      -5.136   3.758 130.386  0.00  0.00    +0.006 C 
ATOM     24  C   LIG A   1      -3.973   2.962 131.015  0.00  0.00    +0.031 C 
ATOM     25  C   LIG A   1      -4.210   1.491 130.899  0.00  0.00    -0.026 C 
ATOM     26  C   LIG A   1      -5.424   0.918 131.031  0.00  0.00    -0.063 C 
ATOM     27  C   LIG A   1      -5.630  -0.603 130.864  0.00  0.00    +0.033 C 
ATOM     28  C   LIG A   1      -4.494  -1.355 130.121  0.00  0.00    +0.015 C 
ENDROOT
BRANCH   6  29
ATOM     29  C   LIG A   1      -7.274  -0.549 128.860  0.00  0.00    +0.311 C 
ATOM     30  O   LIG A   1      -6.511   0.041 128.122  0.00  0.00    -0.250 OA
BRANCH  29  31
ATOM     31  O   LIG A   1      -8.451  -0.978 128.351  0.00  0.00    -0.480 OA
ATOM     32  H   LIG A   1      -8.494  -1.916 128.633  0.00  0.00    +0.295 HD
ENDBRANCH  29  31
ENDBRANCH   6  29
BRANCH  14  33
ATOM     33  O   LIG A   1      -8.886   4.080 128.349  0.00  0.00    -0.392 OA
ATOM     34  H   LIG A   1      -8.927   3.959 127.384  0.00  0.00    +0.210 HD
ENDBRANCH  14  33
BRANCH  18  35
ATOM     35  O   LIG A   1      -5.935   2.360 124.676  0.00  0.00    -0.389 OA
ATOM     36  H   LIG A   1      -5.852   3.249 124.276  0.00  0.00    +0.210 HD
ENDBRANCH  18  35
BRANCH  19  37
ATOM     37  O   LIG A   1      -4.032   1.131 126.236  0.00  0.00    -0.389 OA
ATOM     38  H   LIG A   1      -3.061   1.181 126.264  0.00  0.00    +0.210 HD
ENDBRANCH  19  37
BRANCH  16  39
ATOM     39  C   LIG A   1      -7.996   4.021 125.876  0.00  0.00    +0.165 C 
BRANCH  39  40
ATOM     40  O   LIG A   1      -8.529   5.342 125.737  0.00  0.00    -0.394 OA
ATOM     41  H   LIG A   1      -7.864   5.949 126.125  0.00  0.00    +0.209 HD
ENDBRANCH  39  40
ENDBRANCH  16  39
TORSDOF 7
ENDMDL
MODEL 9
REMARK VINA RESULT:      -7.2      3.169      5.847
REMARK  Name = NuBBE_1175
REMARK  13 active torsions:
REMARK  status: ('A' for Active; 'I' for Inactive)
REMARK    1  A    between atoms: C_1  and  C_2
REMARK    2  A    between atoms: C_2  and  C_3
REMARK    3  A    between atoms: C_6  and  C_7
REMARK    4  A    between atoms: C_7  and  O_8
REMARK    5  A    between atoms: C_12  and  C_13
REMARK    6  A    between atoms: C_14  and  C_15
REMARK    7  A    between atoms: C_17  and  O_19
REMARK    8  A    between atoms: C_21  and  C_22
REMARK    9  A    between atoms: C_21  and  C_23
REMARK   10  A    between atoms: C_23  and  O_24
REMARK   11  A    between atoms: C_25  and  O_27
REMARK   12  A    between atoms: C_28  and  O_30
REMARK   13  A    between atoms: C_32  and  C_33
REMARK                            x       y       z     vdW  Elec       q    Type
REMARK                         _______ _______ _______ _____ _____    ______ ____
ROOT
ATOM      1  C   LIG A   1      -8.022  -3.404 129.187  0.00  0.00    +0.011 C 
ATOM      2  C   LIG A   1      -7.000  -2.820 130.184  0.00  0.00    -0.034 C 
ATOM      3  C   LIG A   1      -6.844  -3.826 131.342  0.00  0.00    +0.011 C 
ATOM      4  C   LIG A   1      -5.633  -2.640 129.495  0.00  0.00    +0.007 C 
ATOM      5  C   LIG A   1      -5.590  -1.459 128.522  0.00  0.00    +0.019 C 
ATOM      6  C   LIG A   1      -6.015  -0.126 129.179  0.00  0.00    +0.074 C 
ATOM      7  C   LIG A   1      -6.097   0.969 128.092  0.00  0.00    +0.019 C 
ATOM      8  C   LIG A   1      -6.479   2.324 128.694  0.00  0.00    +0.012 C 
ATOM      9  C   LIG A   1      -7.798   2.350 129.525  0.00  0.00    -0.005 C 
ATOM     10  C   LIG A   1      -8.938   2.281 128.447  0.00  0.00    +0.016 C 
ATOM     11  C   LIG A   1      -7.911   3.718 130.459  0.00  0.00    -0.017 C 
ATOM     12  C   LIG A   1      -8.970   4.693 129.823  0.00  0.00    +0.012 C 
ATOM     13  C   LIG A   1      -6.643   4.586 130.511  0.00  0.00    +0.039 C 
ATOM     14  C   LIG A   1      -5.531   4.114 131.433  0.00  0.00    +0.119 C 
ATOM     15  C   LIG A   1      -5.936   4.176 132.927  0.00  0.00    +0.034 C 
ATOM     16  C   LIG A   1      -4.707   3.823 133.934  0.00  0.00    +0.025 C 
ATOM     17  C   LIG A   1      -4.932   4.487 135.322  0.00  0.00    +0.016 C 
ATOM     18  C   LIG A   1      -4.564   2.283 134.071  0.00  0.00    +0.151 C 
ATOM     19  C   LIG A   1      -5.861   1.618 134.514  0.00  0.00    +0.144 C 
ATOM     20  C   LIG A   1      -6.933   1.854 133.463  0.00  0.00    +0.041 C 
ATOM     21  C   LIG A   1      -7.277   3.336 133.154  0.00  0.00    -0.020 C 
ATOM     22  C   LIG A   1      -8.028   3.907 134.401  0.00  0.00    +0.012 C 
ATOM     23  C   LIG A   1      -8.374   3.467 131.948  0.00  0.00    +0.006 C 
ATOM     24  C   LIG A   1      -9.434   2.345 131.948  0.00  0.00    +0.031 C 
ATOM     25  C   LIG A   1      -8.876   1.084 131.373  0.00  0.00    -0.026 C 
ATOM     26  C   LIG A   1      -8.021   1.053 130.331  0.00  0.00    -0.063 C 
ATOM     27  C   LIG A   1      -7.437  -0.272 129.794  0.00  0.00    +0.033 C 
ATOM     28  C   LIG A   1      -7.527  -1.483 130.760  0.00  0.00    +0.015 C 
ENDROOT
BRANCH   6  29
ATOM     29  C   LIG A   1      -4.926   0.221 130.208  0.00  0.00    +0.311 C 
ATOM     30  O   LIG A   1      -4.994   0.155 131.419  0.00  0.00    -0.250 OA
BRANCH  29  31
ATOM     31  O   LIG A   1      -3.736   0.538 129.651  0.00  0.00    -0.480 OA
ATOM     32  H   LIG A   1      -3.150   0.680 130.424  0.00  0.00    +0.295 HD
ENDBRANCH  29  31
ENDBRANCH   6  29
BRANCH  14  33
ATOM     33  O   LIG A   1      -4.466   5.031 131.174  0.00  0.00    -0.392 OA
ATOM     34  H   LIG A   1      -3.903   4.661 130.471  0.00  0.00    +0.210 HD
ENDBRANCH  14  33
BRANCH  18  35
ATOM     35  O   LIG A   1      -3.523   1.920 134.994  0.00  0.00    -0.389 OA
ATOM     36  H   LIG A   1      -2.805   2.563 134.826  0.00  0.00    +0.210 HD
ENDBRANCH  18  35
BRANCH  19  37
ATOM     37  O   LIG A   1      -5.647   0.206 134.646  0.00  0.00    -0.389 OA
ATOM     38  H   LIG A   1      -6.317  -0.122 135.270  0.00  0.00    +0.210 HD
ENDBRANCH  19  37
BRANCH  16  39
ATOM     39  C   LIG A   1      -3.322   4.373 133.448  0.00  0.00    +0.165 C 
BRANCH  39  40
ATOM     40  O   LIG A   1      -2.478   3.375 132.865  0.00  0.00    -0.394 OA
ATOM     41  H   LIG A   1      -2.909   3.102 132.029  0.00  0.00    +0.209 HD
ENDBRANCH  39  40
ENDBRANCH  16  39
TORSDOF 7
ENDMDL
