MODEL 1
REMARK VINA RESULT:      -7.5      0.000      0.000
REMARK  Name = NuBBE_413
REMARK  17 active torsions:
REMARK  status: ('A' for Active; 'I' for Inactive)
REMARK    1  A    between atoms: C_1  and  O_2
REMARK    2  A    between atoms: O_2  and  C_3
REMARK    3  A    between atoms: C_5  and  C_6
REMARK    4  A    between atoms: C_6  and  C_7
REMARK    5  A    between atoms: C_7  and  C_8
REMARK    6  A    between atoms: C_8  and  O_9
REMARK    7  A    between atoms: O_9  and  C_10
REMARK    8  A    between atoms: C_13  and  C_21
REMARK    9  A    between atoms: C_15  and  O_20
REMARK   10  A    between atoms: C_17  and  O_19
REMARK   11  A    between atoms: C_21  and  O_22
REMARK   12  A    between atoms: C_23  and  O_25
REMARK   13  A    between atoms: C_30  and  C_31
REMARK   14  A    between atoms: C_33  and  O_34
REMARK   15  A    between atoms: O_34  and  C_35
REMARK   16  A    between atoms: C_36  and  O_39
REMARK   17  A    between atoms: O_39  and  C_40
REMARK                            x       y       z     vdW  Elec       q    Type
REMARK                         _______ _______ _______ _____ _____    ______ ____
ROOT
ATOM      1  C   LIG A   1      -5.806   4.207 123.414  0.00  0.00    +0.163 A 
ATOM      2  C   LIG A   1      -6.852   3.558 122.733  0.00  0.00    +0.053 A 
ATOM      3  C   LIG A   1      -7.922   2.967 123.428  0.00  0.00    -0.043 A 
ATOM      4  C   LIG A   1      -7.944   2.968 124.833  0.00  0.00    +0.015 A 
ATOM      5  C   LIG A   1      -6.873   3.566 125.534  0.00  0.00    +0.025 A 
ATOM      6  C   LIG A   1      -5.857   4.154 124.809  0.00  0.00    +0.177 A 
ATOM      7  O   LIG A   1      -4.927   4.676 125.666  0.00  0.00    -0.451 OA
ATOM      8  C   LIG A   1      -5.321   4.417 126.939  0.00  0.00    +0.137 A 
ATOM      9  C   LIG A   1      -6.533   3.741 126.909  0.00  0.00    +0.058 A 
ENDROOT
BRANCH   8  10
ATOM     10  C   LIG A   1      -4.426   4.865 127.983  0.00  0.00    +0.021 A 
ATOM     11  C   LIG A   1      -4.513   4.360 129.282  0.00  0.00    +0.061 A 
ATOM     12  C   LIG A   1      -3.616   4.748 130.287  0.00  0.00    +0.162 A 
ATOM     13  C   LIG A   1      -2.623   5.704 130.008  0.00  0.00    +0.162 A 
ATOM     14  C   LIG A   1      -2.537   6.219 128.707  0.00  0.00    +0.050 A 
ATOM     15  C   LIG A   1      -3.419   5.806 127.706  0.00  0.00    +0.015 A 
BRANCH  12  16
ATOM     16  O   LIG A   1      -3.875   4.142 131.487  0.00  0.00    -0.491 OA
ATOM     17  C   LIG A   1      -5.108   4.392 132.147  0.00  0.00    +0.277 C 
ENDBRANCH  12  16
BRANCH  13  18
ATOM     18  O   LIG A   1      -1.806   6.100 131.030  0.00  0.00    -0.491 OA
ATOM     19  C   LIG A   1      -2.210   7.200 131.835  0.00  0.00    +0.277 C 
ENDBRANCH  13  18
ENDBRANCH   8  10
BRANCH   1  21
ATOM     20  C   LIG A   1      -4.947   4.525 121.241  0.00  0.00    +0.277 C 
ATOM     21  O   LIG A   1      -4.813   4.780 122.640  0.00  0.00    -0.491 OA
ENDBRANCH   1  21
BRANCH   3  22
ATOM     22  C   LIG A   1      -9.054   2.324 122.654  0.00  0.00    +0.037 C 
BRANCH  22  23
ATOM     23  C   LIG A   1      -9.861   1.319 123.477  0.00  0.00    +0.033 C 
BRANCH  23  24
ATOM     24  C   LIG A   1      -9.911  -0.033 122.769  0.00  0.00    +0.163 C 
BRANCH  24  25
ATOM     25  O   LIG A   1      -9.444  -1.055 123.652  0.00  0.00    -0.349 OA
BRANCH  25  26
ATOM     26  C   LIG A   1      -8.468  -1.907 123.049  0.00  0.00    +0.282 C 
ATOM     27  O   LIG A   1      -8.446  -3.212 123.641  0.00  0.00    -0.341 OA
ATOM     28  C   LIG A   1      -7.863  -3.315 124.955  0.00  0.00    +0.178 C 
ATOM     29  C   LIG A   1      -6.490  -2.628 125.074  0.00  0.00    +0.177 C 
ATOM     30  C   LIG A   1      -6.503  -1.207 124.500  0.00  0.00    +0.179 C 
ATOM     31  C   LIG A   1      -7.078  -1.230 123.072  0.00  0.00    +0.201 C 
BRANCH  30  32
ATOM     32  O   LIG A   1      -7.220  -0.345 125.382  0.00  0.00    -0.386 OA
ATOM     33  H   LIG A   1      -8.102  -0.185 125.000  0.00  0.00    +0.210 HD
ENDBRANCH  30  32
BRANCH  29  34
ATOM     34  O   LIG A   1      -5.522  -3.398 124.330  0.00  0.00    -0.387 OA
ATOM     35  H   LIG A   1      -5.615  -3.145 123.393  0.00  0.00    +0.210 HD
ENDBRANCH  29  34
BRANCH  31  36
ATOM     36  O   LIG A   1      -6.173  -1.908 122.181  0.00  0.00    -0.384 OA
ATOM     37  H   LIG A   1      -5.861  -2.713 122.650  0.00  0.00    +0.210 HD
ENDBRANCH  31  36
BRANCH  28  38
ATOM     38  C   LIG A   1      -8.851  -2.909 126.058  0.00  0.00    +0.190 C 
BRANCH  38  39
ATOM     39  O   LIG A   1     -10.193  -3.052 125.577  0.00  0.00    -0.392 OA
ATOM     40  H   LIG A   1     -10.124  -3.229 124.623  0.00  0.00    +0.209 HD
ENDBRANCH  38  39
ENDBRANCH  28  38
ENDBRANCH  25  26
ENDBRANCH  24  25
ENDBRANCH  23  24
ENDBRANCH  22  23
ENDBRANCH   3  22
TORSDOF 14
ENDMDL
MODEL 2
REMARK VINA RESULT:      -7.4      7.704     13.126
REMARK  Name = NuBBE_413
REMARK  17 active torsions:
REMARK  status: ('A' for Active; 'I' for Inactive)
REMARK    1  A    between atoms: C_1  and  O_2
REMARK    2  A    between atoms: O_2  and  C_3
REMARK    3  A    between atoms: C_5  and  C_6
REMARK    4  A    between atoms: C_6  and  C_7
REMARK    5  A    between atoms: C_7  and  C_8
REMARK    6  A    between atoms: C_8  and  O_9
REMARK    7  A    between atoms: O_9  and  C_10
REMARK    8  A    between atoms: C_13  and  C_21
REMARK    9  A    between atoms: C_15  and  O_20
REMARK   10  A    between atoms: C_17  and  O_19
REMARK   11  A    between atoms: C_21  and  O_22
REMARK   12  A    between atoms: C_23  and  O_25
REMARK   13  A    between atoms: C_30  and  C_31
REMARK   14  A    between atoms: C_33  and  O_34
REMARK   15  A    between atoms: O_34  and  C_35
REMARK   16  A    between atoms: C_36  and  O_39
REMARK   17  A    between atoms: O_39  and  C_40
REMARK                            x       y       z     vdW  Elec       q    Type
REMARK                         _______ _______ _______ _____ _____    ______ ____
ROOT
ATOM      1  C   LIG A   1      -4.227   7.192 130.179  0.00  0.00    +0.163 A 
ATOM      2  C   LIG A   1      -3.041   6.958 130.898  0.00  0.00    +0.053 A 
ATOM      3  C   LIG A   1      -3.064   6.385 132.181  0.00  0.00    -0.043 A 
ATOM      4  C   LIG A   1      -4.288   6.077 132.800  0.00  0.00    +0.015 A 
ATOM      5  C   LIG A   1      -5.491   6.358 132.114  0.00  0.00    +0.025 A 
ATOM      6  C   LIG A   1      -5.417   6.899 130.848  0.00  0.00    +0.177 A 
ATOM      7  O   LIG A   1      -6.681   7.090 130.358  0.00  0.00    -0.451 OA
ATOM      8  C   LIG A   1      -7.573   6.694 131.301  0.00  0.00    +0.137 A 
ATOM      9  C   LIG A   1      -6.881   6.218 132.407  0.00  0.00    +0.058 A 
ENDROOT
BRANCH   8  10
ATOM     10  C   LIG A   1      -8.969   6.866 130.966  0.00  0.00    +0.021 A 
ATOM     11  C   LIG A   1      -9.363   7.622 129.860  0.00  0.00    +0.061 A 
ATOM     12  C   LIG A   1     -10.711   7.750 129.496  0.00  0.00    +0.162 A 
ATOM     13  C   LIG A   1     -11.709   7.144 130.281  0.00  0.00    +0.162 A 
ATOM     14  C   LIG A   1     -11.317   6.391 131.396  0.00  0.00    +0.050 A 
ATOM     15  C   LIG A   1      -9.970   6.248 131.735  0.00  0.00    +0.015 A 
BRANCH  12  16
ATOM     16  O   LIG A   1     -10.886   8.534 128.387  0.00  0.00    -0.491 OA
ATOM     17  C   LIG A   1     -10.694   7.973 127.096  0.00  0.00    +0.277 C 
ENDBRANCH  12  16
BRANCH  13  18
ATOM     18  O   LIG A   1     -13.015   7.343 129.928  0.00  0.00    -0.491 OA
ATOM     19  C   LIG A   1     -13.507   6.708 128.756  0.00  0.00    +0.277 C 
ENDBRANCH  13  18
ENDBRANCH   8  10
BRANCH   1  21
ATOM     20  C   LIG A   1      -3.069   7.136 128.125  0.00  0.00    +0.277 C 
ATOM     21  O   LIG A   1      -4.097   7.737 128.913  0.00  0.00    -0.491 OA
ENDBRANCH   1  21
BRANCH   3  22
ATOM     22  C   LIG A   1      -1.761   6.101 132.900  0.00  0.00    +0.037 C 
BRANCH  22  23
ATOM     23  C   LIG A   1      -0.704   7.188 132.695  0.00  0.00    +0.033 C 
BRANCH  23  24
ATOM     24  C   LIG A   1      -0.891   8.312 133.712  0.00  0.00    +0.163 C 
BRANCH  24  25
ATOM     25  O   LIG A   1      -0.473   9.551 133.138  0.00  0.00    -0.349 OA
BRANCH  25  26
ATOM     26  C   LIG A   1       0.336  10.329 134.024  0.00  0.00    +0.282 C 
ATOM     27  O   LIG A   1      -0.433  10.936 135.070  0.00  0.00    -0.341 OA
ATOM     28  C   LIG A   1      -1.264  12.053 134.696  0.00  0.00    +0.178 C 
ATOM     29  C   LIG A   1      -0.525  13.116 133.860  0.00  0.00    +0.177 C 
ATOM     30  C   LIG A   1       0.258  12.496 132.698  0.00  0.00    +0.179 C 
ATOM     31  C   LIG A   1       1.161  11.366 133.226  0.00  0.00    +0.201 C 
BRANCH  30  32
ATOM     32  O   LIG A   1      -0.652  12.063 131.688  0.00  0.00    -0.386 OA
ATOM     33  H   LIG A   1      -1.545  12.032 132.077  0.00  0.00    +0.210 HD
ENDBRANCH  30  32
BRANCH  29  34
ATOM     34  O   LIG A   1       0.415  13.802 134.712  0.00  0.00    -0.387 OA
ATOM     35  H   LIG A   1      -0.095  14.436 135.250  0.00  0.00    +0.210 HD
ENDBRANCH  29  34
BRANCH  31  36
ATOM     36  O   LIG A   1       2.213  11.910 134.044  0.00  0.00    -0.384 OA
ATOM     37  H   LIG A   1       2.991  11.320 133.937  0.00  0.00    +0.210 HD
ENDBRANCH  31  36
BRANCH  28  38
ATOM     38  C   LIG A   1      -2.594  11.601 134.078  0.00  0.00    +0.190 C 
BRANCH  38  39
ATOM     39  O   LIG A   1      -3.091  12.622 133.206  0.00  0.00    -0.392 OA
ATOM     40  H   LIG A   1      -3.539  12.163 132.474  0.00  0.00    +0.209 HD
ENDBRANCH  38  39
ENDBRANCH  28  38
ENDBRANCH  25  26
ENDBRANCH  24  25
ENDBRANCH  23  24
ENDBRANCH  22  23
ENDBRANCH   3  22
TORSDOF 14
ENDMDL
MODEL 3
REMARK VINA RESULT:      -7.4      3.474      8.716
REMARK  Name = NuBBE_413
REMARK  17 active torsions:
REMARK  status: ('A' for Active; 'I' for Inactive)
REMARK    1  A    between atoms: C_1  and  O_2
REMARK    2  A    between atoms: O_2  and  C_3
REMARK    3  A    between atoms: C_5  and  C_6
REMARK    4  A    between atoms: C_6  and  C_7
REMARK    5  A    between atoms: C_7  and  C_8
REMARK    6  A    between atoms: C_8  and  O_9
REMARK    7  A    between atoms: O_9  and  C_10
REMARK    8  A    between atoms: C_13  and  C_21
REMARK    9  A    between atoms: C_15  and  O_20
REMARK   10  A    between atoms: C_17  and  O_19
REMARK   11  A    between atoms: C_21  and  O_22
REMARK   12  A    between atoms: C_23  and  O_25
REMARK   13  A    between atoms: C_30  and  C_31
REMARK   14  A    between atoms: C_33  and  O_34
REMARK   15  A    between atoms: O_34  and  C_35
REMARK   16  A    between atoms: C_36  and  O_39
REMARK   17  A    between atoms: O_39  and  C_40
REMARK                            x       y       z     vdW  Elec       q    Type
REMARK                         _______ _______ _______ _____ _____    ______ ____
ROOT
ATOM      1  C   LIG A   1      -4.309   5.330 127.886  0.00  0.00    +0.163 A 
ATOM      2  C   LIG A   1      -4.056   4.839 129.180  0.00  0.00    +0.053 A 
ATOM      3  C   LIG A   1      -4.184   3.472 129.482  0.00  0.00    -0.043 A 
ATOM      4  C   LIG A   1      -4.620   2.565 128.501  0.00  0.00    +0.015 A 
ATOM      5  C   LIG A   1      -4.932   3.051 127.211  0.00  0.00    +0.025 A 
ATOM      6  C   LIG A   1      -4.769   4.396 126.956  0.00  0.00    +0.177 A 
ATOM      7  O   LIG A   1      -5.118   4.661 125.659  0.00  0.00    -0.451 OA
ATOM      8  C   LIG A   1      -5.521   3.503 125.077  0.00  0.00    +0.137 A 
ATOM      9  C   LIG A   1      -5.412   2.470 125.998  0.00  0.00    +0.058 A 
ENDROOT
BRANCH   8  10
ATOM     10  C   LIG A   1      -5.970   3.606 123.705  0.00  0.00    +0.021 A 
ATOM     11  C   LIG A   1      -7.235   3.160 123.319  0.00  0.00    +0.061 A 
ATOM     12  C   LIG A   1      -7.698   3.304 122.004  0.00  0.00    +0.162 A 
ATOM     13  C   LIG A   1      -6.863   3.871 121.024  0.00  0.00    +0.162 A 
ATOM     14  C   LIG A   1      -5.589   4.313 121.407  0.00  0.00    +0.050 A 
ATOM     15  C   LIG A   1      -5.147   4.189 122.726  0.00  0.00    +0.015 A 
BRANCH  12  16
ATOM     16  O   LIG A   1      -8.960   2.800 121.830  0.00  0.00    -0.491 OA
ATOM     17  C   LIG A   1      -9.461   1.837 122.747  0.00  0.00    +0.277 C 
ENDBRANCH  12  16
BRANCH  13  18
ATOM     18  O   LIG A   1      -7.329   3.939 119.741  0.00  0.00    -0.491 OA
ATOM     19  C   LIG A   1      -6.735   4.872 118.850  0.00  0.00    +0.277 C 
ENDBRANCH  13  18
ENDBRANCH   8  10
BRANCH   1  21
ATOM     20  C   LIG A   1      -3.162   7.281 128.549  0.00  0.00    +0.277 C 
ATOM     21  O   LIG A   1      -4.131   6.687 127.684  0.00  0.00    -0.491 OA
ENDBRANCH   1  21
BRANCH   3  22
ATOM     22  C   LIG A   1      -3.852   2.978 130.875  0.00  0.00    +0.037 C 
BRANCH  22  23
ATOM     23  C   LIG A   1      -5.012   2.250 131.555  0.00  0.00    +0.033 C 
BRANCH  23  24
ATOM     24  C   LIG A   1      -5.590   3.103 132.682  0.00  0.00    +0.163 C 
BRANCH  24  25
ATOM     25  O   LIG A   1      -7.006   3.208 132.527  0.00  0.00    -0.349 OA
BRANCH  25  26
ATOM     26  C   LIG A   1      -7.411   3.289 131.159  0.00  0.00    +0.282 C 
ATOM     27  O   LIG A   1      -7.585   4.642 130.722  0.00  0.00    -0.341 OA
ATOM     28  C   LIG A   1      -8.755   5.332 131.207  0.00  0.00    +0.178 C 
ATOM     29  C   LIG A   1     -10.056   4.524 131.045  0.00  0.00    +0.177 C 
ATOM     30  C   LIG A   1      -9.912   3.088 131.560  0.00  0.00    +0.179 C 
ATOM     31  C   LIG A   1      -8.676   2.430 130.922  0.00  0.00    +0.201 C 
BRANCH  30  32
ATOM     32  O   LIG A   1      -9.873   3.096 132.987  0.00  0.00    -0.386 OA
ATOM     33  H   LIG A   1      -9.468   2.262 133.284  0.00  0.00    +0.210 HD
ENDBRANCH  30  32
BRANCH  29  34
ATOM     34  O   LIG A   1     -10.389   4.461 129.643  0.00  0.00    -0.387 OA
ATOM     35  H   LIG A   1      -9.581   4.191 129.168  0.00  0.00    +0.210 HD
ENDBRANCH  29  34
BRANCH  31  36
ATOM     36  O   LIG A   1      -8.890   2.226 129.514  0.00  0.00    -0.384 OA
ATOM     37  H   LIG A   1      -8.232   2.784 129.042  0.00  0.00    +0.210 HD
ENDBRANCH  31  36
BRANCH  28  38
ATOM     38  C   LIG A   1      -8.549   5.890 132.623  0.00  0.00    +0.190 C 
BRANCH  38  39
ATOM     39  O   LIG A   1      -9.819   6.206 133.204  0.00  0.00    -0.392 OA
ATOM     40  H   LIG A   1     -10.235   5.355 133.432  0.00  0.00    +0.209 HD
ENDBRANCH  38  39
ENDBRANCH  28  38
ENDBRANCH  25  26
ENDBRANCH  24  25
ENDBRANCH  23  24
ENDBRANCH  22  23
ENDBRANCH   3  22
TORSDOF 14
ENDMDL
MODEL 4
REMARK VINA RESULT:      -7.4      5.022      8.683
REMARK  Name = NuBBE_413
REMARK  17 active torsions:
REMARK  status: ('A' for Active; 'I' for Inactive)
REMARK    1  A    between atoms: C_1  and  O_2
REMARK    2  A    between atoms: O_2  and  C_3
REMARK    3  A    between atoms: C_5  and  C_6
REMARK    4  A    between atoms: C_6  and  C_7
REMARK    5  A    between atoms: C_7  and  C_8
REMARK    6  A    between atoms: C_8  and  O_9
REMARK    7  A    between atoms: O_9  and  C_10
REMARK    8  A    between atoms: C_13  and  C_21
REMARK    9  A    between atoms: C_15  and  O_20
REMARK   10  A    between atoms: C_17  and  O_19
REMARK   11  A    between atoms: C_21  and  O_22
REMARK   12  A    between atoms: C_23  and  O_25
REMARK   13  A    between atoms: C_30  and  C_31
REMARK   14  A    between atoms: C_33  and  O_34
REMARK   15  A    between atoms: O_34  and  C_35
REMARK   16  A    between atoms: C_36  and  O_39
REMARK   17  A    between atoms: O_39  and  C_40
REMARK                            x       y       z     vdW  Elec       q    Type
REMARK                         _______ _______ _______ _____ _____    ______ ____
ROOT
ATOM      1  C   LIG A   1      -8.707   2.169 129.356  0.00  0.00    +0.163 A 
ATOM      2  C   LIG A   1      -7.754   1.345 129.982  0.00  0.00    +0.053 A 
ATOM      3  C   LIG A   1      -7.257   1.644 131.263  0.00  0.00    -0.043 A 
ATOM      4  C   LIG A   1      -7.667   2.810 131.930  0.00  0.00    +0.015 A 
ATOM      5  C   LIG A   1      -8.581   3.678 131.292  0.00  0.00    +0.025 A 
ATOM      6  C   LIG A   1      -9.059   3.332 130.045  0.00  0.00    +0.177 A 
ATOM      7  O   LIG A   1      -9.927   4.293 129.605  0.00  0.00    -0.451 OA
ATOM      8  C   LIG A   1     -10.004   5.268 130.547  0.00  0.00    +0.137 A 
ATOM      9  C   LIG A   1      -9.194   4.925 131.621  0.00  0.00    +0.058 A 
ENDROOT
BRANCH   8  10
ATOM     10  C   LIG A   1     -10.853   6.394 130.226  0.00  0.00    +0.021 A 
ATOM     11  C   LIG A   1     -10.740   7.066 129.007  0.00  0.00    +0.061 A 
ATOM     12  C   LIG A   1     -11.594   8.124 128.666  0.00  0.00    +0.162 A 
ATOM     13  C   LIG A   1     -12.568   8.562 129.581  0.00  0.00    +0.162 A 
ATOM     14  C   LIG A   1     -12.680   7.894 130.809  0.00  0.00    +0.050 A 
ATOM     15  C   LIG A   1     -11.841   6.824 131.129  0.00  0.00    +0.015 A 
BRANCH  12  16
ATOM     16  O   LIG A   1     -11.316   8.649 127.432  0.00  0.00    -0.491 OA
ATOM     17  C   LIG A   1     -11.012   7.777 126.352  0.00  0.00    +0.277 C 
ENDBRANCH  12  16
BRANCH  13  18
ATOM     18  O   LIG A   1     -13.341   9.635 129.235  0.00  0.00    -0.491 OA
ATOM     19  C   LIG A   1     -13.371  10.759 130.103  0.00  0.00    +0.277 C 
ENDBRANCH  13  18
ENDBRANCH   8  10
BRANCH   1  21
ATOM     20  C   LIG A   1      -8.229   0.955 127.392  0.00  0.00    +0.277 C 
ATOM     21  O   LIG A   1      -9.153   1.776 128.107  0.00  0.00    -0.491 OA
ENDBRANCH   1  21
BRANCH   3  22
ATOM     22  C   LIG A   1      -6.270   0.702 131.922  0.00  0.00    +0.037 C 
BRANCH  22  23
ATOM     23  C   LIG A   1      -4.911   0.656 131.223  0.00  0.00    +0.033 C 
BRANCH  23  24
ATOM     24  C   LIG A   1      -4.266   2.039 131.220  0.00  0.00    +0.163 C 
BRANCH  24  25
ATOM     25  O   LIG A   1      -3.868   2.379 129.890  0.00  0.00    -0.349 OA
BRANCH  25  26
ATOM     26  C   LIG A   1      -4.913   3.002 129.139  0.00  0.00    +0.282 C 
ATOM     27  O   LIG A   1      -4.738   2.839 127.726  0.00  0.00    -0.341 OA
ATOM     28  C   LIG A   1      -3.698   3.624 127.109  0.00  0.00    +0.178 C 
ATOM     29  C   LIG A   1      -3.742   5.115 127.496  0.00  0.00    +0.177 C 
ATOM     30  C   LIG A   1      -3.870   5.315 129.010  0.00  0.00    +0.179 C 
ATOM     31  C   LIG A   1      -5.052   4.488 129.544  0.00  0.00    +0.201 C 
BRANCH  30  32
ATOM     32  O   LIG A   1      -2.629   4.996 129.638  0.00  0.00    -0.386 OA
ATOM     33  H   LIG A   1      -2.808   4.782 130.572  0.00  0.00    +0.210 HD
ENDBRANCH  30  32
BRANCH  29  34
ATOM     34  O   LIG A   1      -4.891   5.721 126.869  0.00  0.00    -0.387 OA
ATOM     35  H   LIG A   1      -5.661   5.531 127.439  0.00  0.00    +0.210 HD
ENDBRANCH  29  34
BRANCH  31  36
ATOM     36  O   LIG A   1      -6.297   5.027 129.061  0.00  0.00    -0.384 OA
ATOM     37  H   LIG A   1      -6.636   5.632 129.757  0.00  0.00    +0.210 HD
ENDBRANCH  31  36
BRANCH  28  38
ATOM     38  C   LIG A   1      -2.313   2.985 127.283  0.00  0.00    +0.190 C 
BRANCH  38  39
ATOM     39  O   LIG A   1      -1.375   3.623 126.409  0.00  0.00    -0.392 OA
ATOM     40  H   LIG A   1      -0.908   2.910 125.940  0.00  0.00    +0.209 HD
ENDBRANCH  38  39
ENDBRANCH  28  38
ENDBRANCH  25  26
ENDBRANCH  24  25
ENDBRANCH  23  24
ENDBRANCH  22  23
ENDBRANCH   3  22
TORSDOF 14
ENDMDL
MODEL 5
REMARK VINA RESULT:      -7.3      5.400      7.972
REMARK  Name = NuBBE_413
REMARK  17 active torsions:
REMARK  status: ('A' for Active; 'I' for Inactive)
REMARK    1  A    between atoms: C_1  and  O_2
REMARK    2  A    between atoms: O_2  and  C_3
REMARK    3  A    between atoms: C_5  and  C_6
REMARK    4  A    between atoms: C_6  and  C_7
REMARK    5  A    between atoms: C_7  and  C_8
REMARK    6  A    between atoms: C_8  and  O_9
REMARK    7  A    between atoms: O_9  and  C_10
REMARK    8  A    between atoms: C_13  and  C_21
REMARK    9  A    between atoms: C_15  and  O_20
REMARK   10  A    between atoms: C_17  and  O_19
REMARK   11  A    between atoms: C_21  and  O_22
REMARK   12  A    between atoms: C_23  and  O_25
REMARK   13  A    between atoms: C_30  and  C_31
REMARK   14  A    between atoms: C_33  and  O_34
REMARK   15  A    between atoms: O_34  and  C_35
REMARK   16  A    between atoms: C_36  and  O_39
REMARK   17  A    between atoms: O_39  and  C_40
REMARK                            x       y       z     vdW  Elec       q    Type
REMARK                         _______ _______ _______ _____ _____    ______ ____
ROOT
ATOM      1  C   LIG A   1      -8.198   3.481 132.813  0.00  0.00    +0.163 A 
ATOM      2  C   LIG A   1      -7.925   2.107 132.941  0.00  0.00    +0.053 A 
ATOM      3  C   LIG A   1      -8.598   1.151 132.161  0.00  0.00    -0.043 A 
ATOM      4  C   LIG A   1      -9.604   1.548 131.263  0.00  0.00    +0.015 A 
ATOM      5  C   LIG A   1      -9.930   2.919 131.162  0.00  0.00    +0.025 A 
ATOM      6  C   LIG A   1      -9.226   3.822 131.931  0.00  0.00    +0.177 A 
ATOM      7  O   LIG A   1      -9.686   5.087 131.686  0.00  0.00    -0.451 OA
ATOM      8  C   LIG A   1     -10.692   5.011 130.778  0.00  0.00    +0.137 A 
ATOM      9  C   LIG A   1     -10.873   3.684 130.412  0.00  0.00    +0.058 A 
ENDROOT
BRANCH   8  10
ATOM     10  C   LIG A   1     -11.329   6.263 130.431  0.00  0.00    +0.021 A 
ATOM     11  C   LIG A   1     -11.204   6.813 129.154  0.00  0.00    +0.061 A 
ATOM     12  C   LIG A   1     -11.861   7.997 128.792  0.00  0.00    +0.162 A 
ATOM     13  C   LIG A   1     -12.637   8.685 129.742  0.00  0.00    +0.162 A 
ATOM     14  C   LIG A   1     -12.759   8.140 131.028  0.00  0.00    +0.050 A 
ATOM     15  C   LIG A   1     -12.122   6.945 131.370  0.00  0.00    +0.015 A 
BRANCH  12  16
ATOM     16  O   LIG A   1     -11.605   8.369 127.499  0.00  0.00    -0.491 OA
ATOM     17  C   LIG A   1     -10.809   7.529 126.674  0.00  0.00    +0.277 C 
ENDBRANCH  12  16
BRANCH  13  18
ATOM     18  O   LIG A   1     -13.212   9.868 129.368  0.00  0.00    -0.491 OA
ATOM     19  C   LIG A   1     -13.417  10.867 130.357  0.00  0.00    +0.277 C 
ENDBRANCH  13  18
ENDBRANCH   8  10
BRANCH   1  21
ATOM     20  C   LIG A   1      -8.084   4.651 134.857  0.00  0.00    +0.277 C 
ATOM     21  O   LIG A   1      -7.464   4.345 133.607  0.00  0.00    -0.491 OA
ENDBRANCH   1  21
BRANCH   3  22
ATOM     22  C   LIG A   1      -8.237  -0.314 132.294  0.00  0.00    +0.037 C 
BRANCH  22  23
ATOM     23  C   LIG A   1      -7.241  -0.794 131.238  0.00  0.00    +0.033 C 
BRANCH  23  24
ATOM     24  C   LIG A   1      -7.916  -1.761 130.268  0.00  0.00    +0.163 C 
BRANCH  24  25
ATOM     25  O   LIG A   1      -7.661  -1.349 128.924  0.00  0.00    -0.349 OA
BRANCH  25  26
ATOM     26  C   LIG A   1      -7.433  -2.448 128.039  0.00  0.00    +0.282 C 
ATOM     27  O   LIG A   1      -6.111  -2.437 127.488  0.00  0.00    -0.341 OA
ATOM     28  C   LIG A   1      -5.841  -1.445 126.477  0.00  0.00    +0.178 C 
ATOM     29  C   LIG A   1      -6.907  -1.393 125.366  0.00  0.00    +0.177 C 
ATOM     30  C   LIG A   1      -8.330  -1.345 125.933  0.00  0.00    +0.179 C 
ATOM     31  C   LIG A   1      -8.524  -2.489 126.944  0.00  0.00    +0.201 C 
BRANCH  30  32
ATOM     32  O   LIG A   1      -8.577  -0.054 126.489  0.00  0.00    -0.386 OA
ATOM     33  H   LIG A   1      -9.443   0.254 126.169  0.00  0.00    +0.210 HD
ENDBRANCH  30  32
BRANCH  29  34
ATOM     34  O   LIG A   1      -6.791  -2.583 124.559  0.00  0.00    -0.387 OA
ATOM     35  H   LIG A   1      -7.693  -2.829 124.281  0.00  0.00    +0.210 HD
ENDBRANCH  29  34
BRANCH  31  36
ATOM     36  O   LIG A   1      -8.511  -3.760 126.268  0.00  0.00    -0.384 OA
ATOM     37  H   LIG A   1      -8.899  -3.613 125.377  0.00  0.00    +0.210 HD
ENDBRANCH  31  36
BRANCH  28  38
ATOM     38  C   LIG A   1      -5.521  -0.072 127.087  0.00  0.00    +0.190 C 
BRANCH  38  39
ATOM     39  O   LIG A   1      -4.866  -0.248 128.348  0.00  0.00    -0.392 OA
ATOM     40  H   LIG A   1      -3.982  -0.604 128.150  0.00  0.00    +0.209 HD
ENDBRANCH  38  39
ENDBRANCH  28  38
ENDBRANCH  25  26
ENDBRANCH  24  25
ENDBRANCH  23  24
ENDBRANCH  22  23
ENDBRANCH   3  22
TORSDOF 14
ENDMDL
MODEL 6
REMARK VINA RESULT:      -7.3      7.656     12.976
REMARK  Name = NuBBE_413
REMARK  17 active torsions:
REMARK  status: ('A' for Active; 'I' for Inactive)
REMARK    1  A    between atoms: C_1  and  O_2
REMARK    2  A    between atoms: O_2  and  C_3
REMARK    3  A    between atoms: C_5  and  C_6
REMARK    4  A    between atoms: C_6  and  C_7
REMARK    5  A    between atoms: C_7  and  C_8
REMARK    6  A    between atoms: C_8  and  O_9
REMARK    7  A    between atoms: O_9  and  C_10
REMARK    8  A    between atoms: C_13  and  C_21
REMARK    9  A    between atoms: C_15  and  O_20
REMARK   10  A    between atoms: C_17  and  O_19
REMARK   11  A    between atoms: C_21  and  O_22
REMARK   12  A    between atoms: C_23  and  O_25
REMARK   13  A    between atoms: C_30  and  C_31
REMARK   14  A    between atoms: C_33  and  O_34
REMARK   15  A    between atoms: O_34  and  C_35
REMARK   16  A    between atoms: C_36  and  O_39
REMARK   17  A    between atoms: O_39  and  C_40
REMARK                            x       y       z     vdW  Elec       q    Type
REMARK                         _______ _______ _______ _____ _____    ______ ____
ROOT
ATOM      1  C   LIG A   1      -3.716   6.829 130.086  0.00  0.00    +0.163 A 
ATOM      2  C   LIG A   1      -2.427   6.783 130.649  0.00  0.00    +0.053 A 
ATOM      3  C   LIG A   1      -2.230   6.431 131.996  0.00  0.00    -0.043 A 
ATOM      4  C   LIG A   1      -3.329   6.164 132.830  0.00  0.00    +0.015 A 
ATOM      5  C   LIG A   1      -4.633   6.262 132.294  0.00  0.00    +0.025 A 
ATOM      6  C   LIG A   1      -4.776   6.588 130.962  0.00  0.00    +0.177 A 
ATOM      7  O   LIG A   1      -6.106   6.627 130.641  0.00  0.00    -0.451 OA
ATOM      8  C   LIG A   1      -6.826   6.345 131.756  0.00  0.00    +0.137 A 
ATOM      9  C   LIG A   1      -5.955   6.098 132.808  0.00  0.00    +0.058 A 
ENDROOT
BRANCH   8  10
ATOM     10  C   LIG A   1      -8.265   6.384 131.609  0.00  0.00    +0.021 A 
ATOM     11  C   LIG A   1      -8.863   6.690 130.385  0.00  0.00    +0.061 A 
ATOM     12  C   LIG A   1     -10.254   6.676 130.219  0.00  0.00    +0.162 A 
ATOM     13  C   LIG A   1     -11.088   6.393 131.316  0.00  0.00    +0.162 A 
ATOM     14  C   LIG A   1     -10.492   6.093 132.549  0.00  0.00    +0.050 A 
ATOM     15  C   LIG A   1      -9.103   6.083 132.697  0.00  0.00    +0.015 A 
BRANCH  12  16
ATOM     16  O   LIG A   1     -10.638   7.008 128.947  0.00  0.00    -0.491 OA
ATOM     17  C   LIG A   1     -10.531   8.356 128.512  0.00  0.00    +0.277 C 
ENDBRANCH  12  16
BRANCH  13  18
ATOM     18  O   LIG A   1     -12.441   6.450 131.129  0.00  0.00    -0.491 OA
ATOM     19  C   LIG A   1     -13.111   7.677 131.380  0.00  0.00    +0.277 C 
ENDBRANCH  13  18
ENDBRANCH   8  10
BRANCH   1  21
ATOM     20  C   LIG A   1      -2.581   7.000 128.025  0.00  0.00    +0.277 C 
ATOM     21  O   LIG A   1      -3.804   7.162 128.746  0.00  0.00    -0.491 OA
ENDBRANCH   1  21
BRANCH   3  22
ATOM     22  C   LIG A   1      -0.822   6.342 132.548  0.00  0.00    +0.037 C 
BRANCH  22  23
ATOM     23  C   LIG A   1      -0.202   7.705 132.858  0.00  0.00    +0.033 C 
BRANCH  23  24
ATOM     24  C   LIG A   1      -0.640   8.189 134.238  0.00  0.00    +0.163 C 
BRANCH  24  25
ATOM     25  O   LIG A   1      -0.478   9.606 134.323  0.00  0.00    -0.349 OA
BRANCH  25  26
ATOM     26  C   LIG A   1      -0.767  10.274 133.093  0.00  0.00    +0.282 C 
ATOM     27  O   LIG A   1       0.110  11.381 132.856  0.00  0.00    -0.341 OA
ATOM     28  C   LIG A   1      -0.107  12.560 133.656  0.00  0.00    +0.178 C 
ATOM     29  C   LIG A   1      -1.578  13.015 133.694  0.00  0.00    +0.177 C 
ATOM     30  C   LIG A   1      -2.533  11.858 134.005  0.00  0.00    +0.179 C 
ATOM     31  C   LIG A   1      -2.257  10.687 133.045  0.00  0.00    +0.201 C 
BRANCH  30  32
ATOM     32  O   LIG A   1      -2.413  11.499 135.381  0.00  0.00    -0.386 OA
ATOM     33  H   LIG A   1      -1.631  11.951 135.746  0.00  0.00    +0.210 HD
ENDBRANCH  30  32
BRANCH  29  34
ATOM     34  O   LIG A   1      -1.931  13.546 132.400  0.00  0.00    -0.387 OA
ATOM     35  H   LIG A   1      -2.905  13.570 132.357  0.00  0.00    +0.210 HD
ENDBRANCH  29  34
BRANCH  31  36
ATOM     36  O   LIG A   1      -2.638  11.042 131.703  0.00  0.00    -0.384 OA
ATOM     37  H   LIG A   1      -2.008  10.591 131.099  0.00  0.00    +0.210 HD
ENDBRANCH  31  36
BRANCH  28  38
ATOM     38  C   LIG A   1       0.536  12.440 135.046  0.00  0.00    +0.190 C 
BRANCH  38  39
ATOM     39  O   LIG A   1      -0.099  13.351 135.950  0.00  0.00    -0.392 OA
ATOM     40  H   LIG A   1       0.429  13.338 136.767  0.00  0.00    +0.209 HD
ENDBRANCH  38  39
ENDBRANCH  28  38
ENDBRANCH  25  26
ENDBRANCH  24  25
ENDBRANCH  23  24
ENDBRANCH  22  23
ENDBRANCH   3  22
TORSDOF 14
ENDMDL
MODEL 7
REMARK VINA RESULT:      -7.3      4.970      6.768
REMARK  Name = NuBBE_413
REMARK  17 active torsions:
REMARK  status: ('A' for Active; 'I' for Inactive)
REMARK    1  A    between atoms: C_1  and  O_2
REMARK    2  A    between atoms: O_2  and  C_3
REMARK    3  A    between atoms: C_5  and  C_6
REMARK    4  A    between atoms: C_6  and  C_7
REMARK    5  A    between atoms: C_7  and  C_8
REMARK    6  A    between atoms: C_8  and  O_9
REMARK    7  A    between atoms: O_9  and  C_10
REMARK    8  A    between atoms: C_13  and  C_21
REMARK    9  A    between atoms: C_15  and  O_20
REMARK   10  A    between atoms: C_17  and  O_19
REMARK   11  A    between atoms: C_21  and  O_22
REMARK   12  A    between atoms: C_23  and  O_25
REMARK   13  A    between atoms: C_30  and  C_31
REMARK   14  A    between atoms: C_33  and  O_34
REMARK   15  A    between atoms: O_34  and  C_35
REMARK   16  A    between atoms: C_36  and  O_39
REMARK   17  A    between atoms: O_39  and  C_40
REMARK                            x       y       z     vdW  Elec       q    Type
REMARK                         _______ _______ _______ _____ _____    ______ ____
ROOT
ATOM      1  C   LIG A   1      -7.421   2.926 129.015  0.00  0.00    +0.163 A 
ATOM      2  C   LIG A   1      -7.001   1.669 129.489  0.00  0.00    +0.053 A 
ATOM      3  C   LIG A   1      -7.787   0.925 130.386  0.00  0.00    -0.043 A 
ATOM      4  C   LIG A   1      -8.997   1.447 130.872  0.00  0.00    +0.015 A 
ATOM      5  C   LIG A   1      -9.406   2.732 130.450  0.00  0.00    +0.025 A 
ATOM      6  C   LIG A   1      -8.614   3.415 129.552  0.00  0.00    +0.177 A 
ATOM      7  O   LIG A   1      -9.183   4.627 129.269  0.00  0.00    -0.451 OA
ATOM      8  C   LIG A   1     -10.328   4.744 129.988  0.00  0.00    +0.137 A 
ATOM      9  C   LIG A   1     -10.517   3.585 130.729  0.00  0.00    +0.058 A 
ENDROOT
BRANCH   8  10
ATOM     10  C   LIG A   1     -11.044   5.992 129.843  0.00  0.00    +0.021 A 
ATOM     11  C   LIG A   1     -10.878   6.798 128.715  0.00  0.00    +0.061 A 
ATOM     12  C   LIG A   1     -11.608   7.982 128.541  0.00  0.00    +0.162 A 
ATOM     13  C   LIG A   1     -12.504   8.407 129.539  0.00  0.00    +0.162 A 
ATOM     14  C   LIG A   1     -12.666   7.604 130.677  0.00  0.00    +0.050 A 
ATOM     15  C   LIG A   1     -11.954   6.412 130.828  0.00  0.00    +0.015 A 
BRANCH  12  16
ATOM     16  O   LIG A   1     -11.297   8.627 127.373  0.00  0.00    -0.491 OA
ATOM     17  C   LIG A   1     -10.965   7.866 126.220  0.00  0.00    +0.277 C 
ENDBRANCH  12  16
BRANCH  13  18
ATOM     18  O   LIG A   1     -13.151   9.598 129.359  0.00  0.00    -0.491 OA
ATOM     19  C   LIG A   1     -13.195  10.517 130.441  0.00  0.00    +0.277 C 
ENDBRANCH  13  18
ENDBRANCH   8  10
BRANCH   1  21
ATOM     20  C   LIG A   1      -7.023   3.481 126.758  0.00  0.00    +0.277 C 
ATOM     21  O   LIG A   1      -6.589   3.569 128.116  0.00  0.00    -0.491 OA
ENDBRANCH   1  21
BRANCH   3  22
ATOM     22  C   LIG A   1      -7.321  -0.446 130.830  0.00  0.00    +0.037 C 
BRANCH  22  23
ATOM     23  C   LIG A   1      -8.040  -1.593 130.118  0.00  0.00    +0.033 C 
BRANCH  23  24
ATOM     24  C   LIG A   1      -7.264  -2.017 128.874  0.00  0.00    +0.163 C 
BRANCH  24  25
ATOM     25  O   LIG A   1      -7.829  -1.391 127.720  0.00  0.00    -0.349 OA
BRANCH  25  26
ATOM     26  C   LIG A   1      -6.962  -1.433 126.584  0.00  0.00    +0.282 C 
ATOM     27  O   LIG A   1      -6.994  -0.215 125.831  0.00  0.00    -0.341 OA
ATOM     28  C   LIG A   1      -8.175   0.024 125.039  0.00  0.00    +0.178 C 
ATOM     29  C   LIG A   1      -8.586  -1.179 124.169  0.00  0.00    +0.177 C 
ATOM     30  C   LIG A   1      -8.616  -2.486 124.968  0.00  0.00    +0.179 C 
ATOM     31  C   LIG A   1      -7.281  -2.670 125.712  0.00  0.00    +0.201 C 
BRANCH  30  32
ATOM     32  O   LIG A   1      -9.749  -2.488 125.835  0.00  0.00    -0.386 OA
ATOM     33  H   LIG A   1     -10.469  -2.000 125.396  0.00  0.00    +0.210 HD
ENDBRANCH  30  32
BRANCH  29  34
ATOM     34  O   LIG A   1      -7.622  -1.331 123.106  0.00  0.00    -0.387 OA
ATOM     35  H   LIG A   1      -7.673  -0.527 122.557  0.00  0.00    +0.210 HD
ENDBRANCH  29  34
BRANCH  31  36
ATOM     36  O   LIG A   1      -6.216  -2.913 124.774  0.00  0.00    -0.384 OA
ATOM     37  H   LIG A   1      -5.446  -3.231 125.294  0.00  0.00    +0.210 HD
ENDBRANCH  31  36
BRANCH  28  38
ATOM     38  C   LIG A   1      -9.326   0.596 125.879  0.00  0.00    +0.190 C 
BRANCH  38  39
ATOM     39  O   LIG A   1     -10.459   0.841 125.038  0.00  0.00    -0.392 OA
ATOM     40  H   LIG A   1     -11.078   0.106 125.192  0.00  0.00    +0.209 HD
ENDBRANCH  38  39
ENDBRANCH  28  38
ENDBRANCH  25  26
ENDBRANCH  24  25
ENDBRANCH  23  24
ENDBRANCH  22  23
ENDBRANCH   3  22
TORSDOF 14
ENDMDL
MODEL 8
REMARK VINA RESULT:      -7.3      5.450      8.705
REMARK  Name = NuBBE_413
REMARK  17 active torsions:
REMARK  status: ('A' for Active; 'I' for Inactive)
REMARK    1  A    between atoms: C_1  and  O_2
REMARK    2  A    between atoms: O_2  and  C_3
REMARK    3  A    between atoms: C_5  and  C_6
REMARK    4  A    between atoms: C_6  and  C_7
REMARK    5  A    between atoms: C_7  and  C_8
REMARK    6  A    between atoms: C_8  and  O_9
REMARK    7  A    between atoms: O_9  and  C_10
REMARK    8  A    between atoms: C_13  and  C_21
REMARK    9  A    between atoms: C_15  and  O_20
REMARK   10  A    between atoms: C_17  and  O_19
REMARK   11  A    between atoms: C_21  and  O_22
REMARK   12  A    between atoms: C_23  and  O_25
REMARK   13  A    between atoms: C_30  and  C_31
REMARK   14  A    between atoms: C_33  and  O_34
REMARK   15  A    between atoms: O_34  and  C_35
REMARK   16  A    between atoms: C_36  and  O_39
REMARK   17  A    between atoms: O_39  and  C_40
REMARK                            x       y       z     vdW  Elec       q    Type
REMARK                         _______ _______ _______ _____ _____    ______ ____
ROOT
ATOM      1  C   LIG A   1      -8.152   3.583 132.861  0.00  0.00    +0.163 A 
ATOM      2  C   LIG A   1      -7.844   2.216 132.991  0.00  0.00    +0.053 A 
ATOM      3  C   LIG A   1      -8.481   1.244 132.201  0.00  0.00    -0.043 A 
ATOM      4  C   LIG A   1      -9.485   1.614 131.291  0.00  0.00    +0.015 A 
ATOM      5  C   LIG A   1      -9.847   2.976 131.188  0.00  0.00    +0.025 A 
ATOM      6  C   LIG A   1      -9.177   3.897 131.967  0.00  0.00    +0.177 A 
ATOM      7  O   LIG A   1      -9.668   5.150 131.718  0.00  0.00    -0.451 OA
ATOM      8  C   LIG A   1     -10.660   5.048 130.797  0.00  0.00    +0.137 A 
ATOM      9  C   LIG A   1     -10.800   3.717 130.427  0.00  0.00    +0.058 A 
ENDROOT
BRANCH   8  10
ATOM     10  C   LIG A   1     -11.326   6.282 130.443  0.00  0.00    +0.021 A 
ATOM     11  C   LIG A   1     -11.173   6.855 129.179  0.00  0.00    +0.061 A 
ATOM     12  C   LIG A   1     -11.857   8.022 128.809  0.00  0.00    +0.162 A 
ATOM     13  C   LIG A   1     -12.690   8.670 129.739  0.00  0.00    +0.162 A 
ATOM     14  C   LIG A   1     -12.840   8.102 131.012  0.00  0.00    +0.050 A 
ATOM     15  C   LIG A   1     -12.175   6.925 131.361  0.00  0.00    +0.015 A 
BRANCH  12  16
ATOM     16  O   LIG A   1     -11.566   8.421 127.532  0.00  0.00    -0.491 OA
ATOM     17  C   LIG A   1     -10.760   7.592 126.706  0.00  0.00    +0.277 C 
ENDBRANCH  12  16
BRANCH  13  18
ATOM     18  O   LIG A   1     -13.290   9.838 129.360  0.00  0.00    -0.491 OA
ATOM     19  C   LIG A   1     -13.412  10.882 130.316  0.00  0.00    +0.277 C 
ENDBRANCH  13  18
ENDBRANCH   8  10
BRANCH   1  21
ATOM     20  C   LIG A   1      -8.057   4.693 134.940  0.00  0.00    +0.277 C 
ATOM     21  O   LIG A   1      -7.452   4.464 133.666  0.00  0.00    -0.491 OA
ENDBRANCH   1  21
BRANCH   3  22
ATOM     22  C   LIG A   1      -8.082  -0.212 132.337  0.00  0.00    +0.037 C 
BRANCH  22  23
ATOM     23  C   LIG A   1      -7.354  -0.760 131.110  0.00  0.00    +0.033 C 
BRANCH  23  24
ATOM     24  C   LIG A   1      -5.969  -0.129 130.986  0.00  0.00    +0.163 C 
BRANCH  24  25
ATOM     25  O   LIG A   1      -5.892   0.623 129.773  0.00  0.00    -0.349 OA
BRANCH  25  26
ATOM     26  C   LIG A   1      -5.636   2.011 129.995  0.00  0.00    +0.282 C 
ATOM     27  O   LIG A   1      -6.725   2.840 129.572  0.00  0.00    -0.341 OA
ATOM     28  C   LIG A   1      -6.899   3.002 128.150  0.00  0.00    +0.178 C 
ATOM     29  C   LIG A   1      -5.600   3.373 127.410  0.00  0.00    +0.177 C 
ATOM     30  C   LIG A   1      -4.432   2.462 127.802  0.00  0.00    +0.179 C 
ATOM     31  C   LIG A   1      -4.298   2.422 129.335  0.00  0.00    +0.201 C 
BRANCH  30  32
ATOM     32  O   LIG A   1      -4.618   1.173 127.220  0.00  0.00    -0.386 OA
ATOM     33  H   LIG A   1      -5.536   0.893 127.387  0.00  0.00    +0.210 HD
ENDBRANCH  30  32
BRANCH  29  34
ATOM     34  O   LIG A   1      -5.242   4.727 127.756  0.00  0.00    -0.387 OA
ATOM     35  H   LIG A   1      -5.690   4.936 128.597  0.00  0.00    +0.210 HD
ENDBRANCH  29  34
BRANCH  31  36
ATOM     36  O   LIG A   1      -3.864   3.701 129.832  0.00  0.00    -0.384 OA
ATOM     37  H   LIG A   1      -3.993   4.349 129.103  0.00  0.00    +0.210 HD
ENDBRANCH  31  36
BRANCH  28  38
ATOM     38  C   LIG A   1      -7.649   1.818 127.522  0.00  0.00    +0.190 C 
BRANCH  38  39
ATOM     39  O   LIG A   1      -9.050   1.938 127.794  0.00  0.00    -0.392 OA
ATOM     40  H   LIG A   1      -9.154   1.808 128.753  0.00  0.00    +0.209 HD
ENDBRANCH  38  39
ENDBRANCH  28  38
ENDBRANCH  25  26
ENDBRANCH  24  25
ENDBRANCH  23  24
ENDBRANCH  22  23
ENDBRANCH   3  22
TORSDOF 14
ENDMDL
MODEL 9
REMARK VINA RESULT:      -7.2      6.006      8.648
REMARK  Name = NuBBE_413
REMARK  17 active torsions:
REMARK  status: ('A' for Active; 'I' for Inactive)
REMARK    1  A    between atoms: C_1  and  O_2
REMARK    2  A    between atoms: O_2  and  C_3
REMARK    3  A    between atoms: C_5  and  C_6
REMARK    4  A    between atoms: C_6  and  C_7
REMARK    5  A    between atoms: C_7  and  C_8
REMARK    6  A    between atoms: C_8  and  O_9
REMARK    7  A    between atoms: O_9  and  C_10
REMARK    8  A    between atoms: C_13  and  C_21
REMARK    9  A    between atoms: C_15  and  O_20
REMARK   10  A    between atoms: C_17  and  O_19
REMARK   11  A    between atoms: C_21  and  O_22
REMARK   12  A    between atoms: C_23  and  O_25
REMARK   13  A    between atoms: C_30  and  C_31
REMARK   14  A    between atoms: C_33  and  O_34
REMARK   15  A    between atoms: O_34  and  C_35
REMARK   16  A    between atoms: C_36  and  O_39
REMARK   17  A    between atoms: O_39  and  C_40
REMARK                            x       y       z     vdW  Elec       q    Type
REMARK                         _______ _______ _______ _____ _____    ______ ____
ROOT
ATOM      1  C   LIG A   1      -8.580   2.442 130.862  0.00  0.00    +0.163 A 
ATOM      2  C   LIG A   1      -7.748   1.714 131.732  0.00  0.00    +0.053 A 
ATOM      3  C   LIG A   1      -7.529   2.132 133.056  0.00  0.00    -0.043 A 
ATOM      4  C   LIG A   1      -8.103   3.325 133.528  0.00  0.00    +0.015 A 
ATOM      5  C   LIG A   1      -8.897   4.097 132.650  0.00  0.00    +0.025 A 
ATOM      6  C   LIG A   1      -9.101   3.634 131.367  0.00  0.00    +0.177 A 
ATOM      7  O   LIG A   1      -9.894   4.517 130.684  0.00  0.00    -0.451 OA
ATOM      8  C   LIG A   1     -10.191   5.555 131.507  0.00  0.00    +0.137 A 
ATOM      9  C   LIG A   1      -9.604   5.333 132.745  0.00  0.00    +0.058 A 
ENDROOT
BRANCH   8  10
ATOM     10  C   LIG A   1     -10.993   6.611 130.930  0.00  0.00    +0.021 A 
ATOM     11  C   LIG A   1     -10.642   7.213 129.721  0.00  0.00    +0.061 A 
ATOM     12  C   LIG A   1     -11.442   8.200 129.128  0.00  0.00    +0.162 A 
ATOM     13  C   LIG A   1     -12.610   8.638 129.777  0.00  0.00    +0.162 A 
ATOM     14  C   LIG A   1     -12.962   8.042 130.996  0.00  0.00    +0.050 A 
ATOM     15  C   LIG A   1     -12.171   7.041 131.565  0.00  0.00    +0.015 A 
BRANCH  12  16
ATOM     16  O   LIG A   1     -10.922   8.664 127.949  0.00  0.00    -0.491 OA
ATOM     17  C   LIG A   1     -10.908   7.816 126.808  0.00  0.00    +0.277 C 
ENDBRANCH  12  16
BRANCH  13  18
ATOM     18  O   LIG A   1     -13.331   9.645 129.197  0.00  0.00    -0.491 OA
ATOM     19  C   LIG A   1     -13.469  10.873 129.897  0.00  0.00    +0.277 C 
ENDBRANCH  13  18
ENDBRANCH   8  10
BRANCH   1  21
ATOM     20  C   LIG A   1      -7.761   0.980 129.202  0.00  0.00    +0.277 C 
ATOM     21  O   LIG A   1      -8.752   1.934 129.586  0.00  0.00    -0.491 OA
ENDBRANCH   1  21
BRANCH   3  22
ATOM     22  C   LIG A   1      -6.667   1.291 133.975  0.00  0.00    +0.037 C 
BRANCH  22  23
ATOM     23  C   LIG A   1      -5.451   0.680 133.278  0.00  0.00    +0.033 C 
BRANCH  23  24
ATOM     24  C   LIG A   1      -5.196  -0.734 133.795  0.00  0.00    +0.163 C 
BRANCH  24  25
ATOM     25  O   LIG A   1      -5.051  -1.629 132.691  0.00  0.00    -0.349 OA
BRANCH  25  26
ATOM     26  C   LIG A   1      -5.181  -0.978 131.425  0.00  0.00    +0.282 C 
ATOM     27  O   LIG A   1      -6.227  -1.544 130.627  0.00  0.00    -0.341 OA
ATOM     28  C   LIG A   1      -5.966  -2.835 130.041  0.00  0.00    +0.178 C 
ATOM     29  C   LIG A   1      -4.608  -2.918 129.319  0.00  0.00    +0.177 C 
ATOM     30  C   LIG A   1      -3.462  -2.372 130.177  0.00  0.00    +0.179 C 
ATOM     31  C   LIG A   1      -3.822  -0.965 130.687  0.00  0.00    +0.201 C 
BRANCH  30  32
ATOM     32  O   LIG A   1      -3.172  -3.294 131.227  0.00  0.00    -0.386 OA
ATOM     33  H   LIG A   1      -2.206  -3.338 131.334  0.00  0.00    +0.210 HD
ENDBRANCH  30  32
BRANCH  29  34
ATOM     34  O   LIG A   1      -4.676  -2.128 128.114  0.00  0.00    -0.387 OA
ATOM     35  H   LIG A   1      -4.367  -1.231 128.343  0.00  0.00    +0.210 HD
ENDBRANCH  29  34
BRANCH  31  36
ATOM     36  O   LIG A   1      -3.853  -0.031 129.592  0.00  0.00    -0.384 OA
ATOM     37  H   LIG A   1      -3.062   0.545 129.686  0.00  0.00    +0.210 HD
ENDBRANCH  31  36
BRANCH  28  38
ATOM     38  C   LIG A   1      -6.204  -3.979 131.037  0.00  0.00    +0.190 C 
BRANCH  38  39
ATOM     39  O   LIG A   1      -5.518  -5.154 130.592  0.00  0.00    -0.392 OA
ATOM     40  H   LIG A   1      -6.068  -5.911 130.862  0.00  0.00    +0.209 HD
ENDBRANCH  38  39
ENDBRANCH  28  38
ENDBRANCH  25  26
ENDBRANCH  24  25
ENDBRANCH  23  24
ENDBRANCH  22  23
ENDBRANCH   3  22
TORSDOF 14
ENDMDL
