MODEL 1
REMARK VINA RESULT:      -6.8      0.000      0.000
REMARK  Name = NuBBE_2154
REMARK  14 active torsions:
REMARK  status: ('A' for Active; 'I' for Inactive)
REMARK    1  A    between atoms: C_1  and  O_2
REMARK    2  A    between atoms: O_2  and  C_3
REMARK    3  A    between atoms: C_4  and  O_5
REMARK    4  A    between atoms: O_5  and  C_6
REMARK    5  A    between atoms: C_7  and  O_8
REMARK    6  A    between atoms: O_8  and  C_9
REMARK    7  A    between atoms: C_11  and  C_12
REMARK    8  A    between atoms: C_14  and  C_16
REMARK    9  A    between atoms: C_19  and  C_20
REMARK   10  A    between atoms: C_20  and  C_21
REMARK   11  A    between atoms: C_24  and  O_26
REMARK   12  A    between atoms: O_26  and  C_27
REMARK   13  A    between atoms: C_28  and  O_29
REMARK   14  A    between atoms: O_29  and  C_30
REMARK                            x       y       z     vdW  Elec       q    Type
REMARK                         _______ _______ _______ _____ _____    ______ ____
ROOT
ATOM      1  C   LIG A   1      -5.275   1.305 126.839  0.00  0.00    +0.073 C 
ATOM      2  C   LIG A   1      -5.469   1.509 128.383  0.00  0.00    +0.178 C 
ATOM      3  C   LIG A   1      -4.290   1.076 129.238  0.00  0.00    +0.052 C 
ATOM      4  O   LIG A   1      -5.809   2.883 128.603  0.00  0.00    -0.488 OA
ATOM      5  C   LIG A   1      -6.441   3.228 127.430  0.00  0.00    +0.150 C 
ATOM      6  C   LIG A   1      -5.600   2.756 126.283  0.00  0.00    +0.048 C 
ATOM      7  C   LIG A   1      -6.237   2.910 124.900  0.00  0.00    +0.055 C 
ATOM      8  C   LIG A   1      -7.760   3.027 124.881  0.00  0.00    +0.193 C 
ATOM      9  C   LIG A   1      -7.657   3.822 127.350  0.00  0.00    +0.203 C 
ATOM     10  C   LIG A   1      -8.224   4.078 125.961  0.00  0.00    +0.229 C 
ATOM     11  O   LIG A   1      -8.900   5.061 125.717  0.00  0.00    -0.286 OA
ENDROOT
BRANCH   1  16
ATOM     12  C   LIG A   1      -6.304  -1.680 124.592  0.00  0.00    +0.165 A 
ATOM     13  C   LIG A   1      -7.351  -2.271 125.321  0.00  0.00    +0.203 A 
ATOM     14  C   LIG A   1      -7.665  -1.759 126.588  0.00  0.00    +0.165 A 
ATOM     15  C   LIG A   1      -6.996  -0.619 127.054  0.00  0.00    +0.053 A 
ATOM     16  C   LIG A   1      -6.028   0.070 126.305  0.00  0.00    -0.033 A 
ATOM     17  C   LIG A   1      -5.651  -0.539 125.102  0.00  0.00    +0.053 A 
BRANCH  12  19
ATOM     18  C   LIG A   1      -4.772  -3.235 123.655  0.00  0.00    +0.277 C 
ATOM     19  O   LIG A   1      -5.852  -2.327 123.466  0.00  0.00    -0.491 OA
ENDBRANCH  12  19
BRANCH  13  20
ATOM     20  O   LIG A   1      -8.040  -3.397 124.945  0.00  0.00    -0.488 OA
ATOM     21  C   LIG A   1      -9.120  -3.239 124.033  0.00  0.00    +0.277 C 
ENDBRANCH  13  20
BRANCH  14  22
ATOM     22  O   LIG A   1      -8.596  -2.439 127.341  0.00  0.00    -0.491 OA
ATOM     23  C   LIG A   1      -8.147  -3.052 128.548  0.00  0.00    +0.277 C 
ENDBRANCH  14  22
ENDBRANCH   1  16
BRANCH   8  24
ATOM     24  O   LIG A   1      -8.168   3.416 123.557  0.00  0.00    -0.372 OA
ATOM     25  C   LIG A   1      -8.913   2.441 122.846  0.00  0.00    +0.195 C 
ENDBRANCH   8  24
BRANCH   9  26
ATOM     26  O   LIG A   1      -8.373   4.326 128.409  0.00  0.00    -0.489 OA
ATOM     27  C   LIG A   1      -8.911   3.380 129.330  0.00  0.00    +0.277 C 
ENDBRANCH   9  26
BRANCH   6  28
ATOM     28  C   LIG A   1      -4.288   3.645 126.270  0.00  0.00    +0.042 C 
BRANCH  28  29
ATOM     29  C   LIG A   1      -2.911   2.982 126.250  0.00  0.00    -0.034 C 
ATOM     30  C   LIG A   1      -1.853   3.166 127.052  0.00  0.00    +0.004 C 
ENDBRANCH  28  29
ENDBRANCH   6  28
TORSDOF 8
ENDMDL
MODEL 2
REMARK VINA RESULT:      -6.7      1.803      6.607
REMARK  Name = NuBBE_2154
REMARK  14 active torsions:
REMARK  status: ('A' for Active; 'I' for Inactive)
REMARK    1  A    between atoms: C_1  and  O_2
REMARK    2  A    between atoms: O_2  and  C_3
REMARK    3  A    between atoms: C_4  and  O_5
REMARK    4  A    between atoms: O_5  and  C_6
REMARK    5  A    between atoms: C_7  and  O_8
REMARK    6  A    between atoms: O_8  and  C_9
REMARK    7  A    between atoms: C_11  and  C_12
REMARK    8  A    between atoms: C_14  and  C_16
REMARK    9  A    between atoms: C_19  and  C_20
REMARK   10  A    between atoms: C_20  and  C_21
REMARK   11  A    between atoms: C_24  and  O_26
REMARK   12  A    between atoms: O_26  and  C_27
REMARK   13  A    between atoms: C_28  and  O_29
REMARK   14  A    between atoms: O_29  and  C_30
REMARK                            x       y       z     vdW  Elec       q    Type
REMARK                         _______ _______ _______ _____ _____    ______ ____
ROOT
ATOM      1  C   LIG A   1      -7.092  -0.987 127.307  0.00  0.00    +0.073 C 
ATOM      2  C   LIG A   1      -5.603  -1.480 127.284  0.00  0.00    +0.178 C 
ATOM      3  C   LIG A   1      -5.035  -1.865 128.641  0.00  0.00    +0.052 C 
ATOM      4  O   LIG A   1      -5.513  -2.558 126.346  0.00  0.00    -0.488 OA
ATOM      5  C   LIG A   1      -6.515  -2.260 125.450  0.00  0.00    +0.150 C 
ATOM      6  C   LIG A   1      -7.758  -1.933 126.220  0.00  0.00    +0.048 C 
ATOM      7  C   LIG A   1      -8.928  -1.415 125.382  0.00  0.00    +0.055 C 
ATOM      8  C   LIG A   1      -8.560  -0.825 124.022  0.00  0.00    +0.193 C 
ATOM      9  C   LIG A   1      -6.359  -2.199 124.104  0.00  0.00    +0.203 C 
ATOM     10  C   LIG A   1      -7.569  -1.797 123.274  0.00  0.00    +0.229 C 
ATOM     11  O   LIG A   1      -7.773  -2.269 122.169  0.00  0.00    -0.286 OA
ENDROOT
BRANCH   1  16
ATOM     12  C   LIG A   1      -8.218   2.665 127.951  0.00  0.00    +0.165 A 
ATOM     13  C   LIG A   1      -7.402   3.401 127.072  0.00  0.00    +0.203 A 
ATOM     14  C   LIG A   1      -6.419   2.724 126.337  0.00  0.00    +0.165 A 
ATOM     15  C   LIG A   1      -6.337   1.328 126.422  0.00  0.00    +0.053 A 
ATOM     16  C   LIG A   1      -7.211   0.546 127.196  0.00  0.00    -0.033 A 
ATOM     17  C   LIG A   1      -8.095   1.261 128.012  0.00  0.00    +0.053 A 
BRANCH  12  19
ATOM     18  C   LIG A   1      -9.189   2.769 130.116  0.00  0.00    +0.277 C 
ATOM     19  O   LIG A   1      -9.012   3.359 128.833  0.00  0.00    -0.491 OA
ENDBRANCH  12  19
BRANCH  13  20
ATOM     20  O   LIG A   1      -7.407   4.767 126.946  0.00  0.00    -0.488 OA
ATOM     21  C   LIG A   1      -8.279   5.339 125.978  0.00  0.00    +0.277 C 
ENDBRANCH  13  20
BRANCH  14  22
ATOM     22  O   LIG A   1      -5.543   3.480 125.591  0.00  0.00    -0.491 OA
ATOM     23  C   LIG A   1      -4.186   3.540 126.030  0.00  0.00    +0.277 C 
ENDBRANCH  14  22
ENDBRANCH   1  16
BRANCH   8  24
ATOM     24  O   LIG A   1      -9.771  -0.625 123.272  0.00  0.00    -0.372 OA
ATOM     25  C   LIG A   1      -9.982   0.700 122.812  0.00  0.00    +0.195 C 
ENDBRANCH   8  24
BRANCH   9  26
ATOM     26  O   LIG A   1      -5.238  -2.587 123.410  0.00  0.00    -0.489 OA
ATOM     27  C   LIG A   1      -4.799  -3.931 123.597  0.00  0.00    +0.277 C 
ENDBRANCH   9  26
BRANCH   6  28
ATOM     28  C   LIG A   1      -8.255  -3.278 126.895  0.00  0.00    +0.042 C 
BRANCH  28  29
ATOM     29  C   LIG A   1      -8.638  -3.300 128.374  0.00  0.00    -0.034 C 
ATOM     30  C   LIG A   1      -7.920  -3.662 129.447  0.00  0.00    +0.004 C 
ENDBRANCH  28  29
ENDBRANCH   6  28
TORSDOF 8
ENDMDL
MODEL 3
REMARK VINA RESULT:      -6.7      2.029      6.197
REMARK  Name = NuBBE_2154
REMARK  14 active torsions:
REMARK  status: ('A' for Active; 'I' for Inactive)
REMARK    1  A    between atoms: C_1  and  O_2
REMARK    2  A    between atoms: O_2  and  C_3
REMARK    3  A    between atoms: C_4  and  O_5
REMARK    4  A    between atoms: O_5  and  C_6
REMARK    5  A    between atoms: C_7  and  O_8
REMARK    6  A    between atoms: O_8  and  C_9
REMARK    7  A    between atoms: C_11  and  C_12
REMARK    8  A    between atoms: C_14  and  C_16
REMARK    9  A    between atoms: C_19  and  C_20
REMARK   10  A    between atoms: C_20  and  C_21
REMARK   11  A    between atoms: C_24  and  O_26
REMARK   12  A    between atoms: O_26  and  C_27
REMARK   13  A    between atoms: C_28  and  O_29
REMARK   14  A    between atoms: O_29  and  C_30
REMARK                            x       y       z     vdW  Elec       q    Type
REMARK                         _______ _______ _______ _____ _____    ______ ____
ROOT
ATOM      1  C   LIG A   1      -6.983  -0.968 127.319  0.00  0.00    +0.073 C 
ATOM      2  C   LIG A   1      -5.506  -1.492 127.237  0.00  0.00    +0.178 C 
ATOM      3  C   LIG A   1      -4.899  -1.901 128.569  0.00  0.00    +0.052 C 
ATOM      4  O   LIG A   1      -5.474  -2.564 126.288  0.00  0.00    -0.488 OA
ATOM      5  C   LIG A   1      -6.501  -2.236 125.431  0.00  0.00    +0.150 C 
ATOM      6  C   LIG A   1      -7.708  -1.890 126.249  0.00  0.00    +0.048 C 
ATOM      7  C   LIG A   1      -8.896  -1.339 125.458  0.00  0.00    +0.055 C 
ATOM      8  C   LIG A   1      -8.564  -0.745 124.090  0.00  0.00    +0.193 C 
ATOM      9  C   LIG A   1      -6.392  -2.167 124.082  0.00  0.00    +0.203 C 
ATOM     10  C   LIG A   1      -7.623  -1.732 123.299  0.00  0.00    +0.229 C 
ATOM     11  O   LIG A   1      -7.877  -2.189 122.199  0.00  0.00    -0.286 OA
ENDROOT
BRANCH   1  16
ATOM     12  C   LIG A   1      -6.446   2.673 126.104  0.00  0.00    +0.165 A 
ATOM     13  C   LIG A   1      -7.272   3.414 126.969  0.00  0.00    +0.203 A 
ATOM     14  C   LIG A   1      -8.078   2.726 127.887  0.00  0.00    +0.165 A 
ATOM     15  C   LIG A   1      -7.970   1.333 127.987  0.00  0.00    +0.053 A 
ATOM     16  C   LIG A   1      -7.072   0.569 127.224  0.00  0.00    -0.033 A 
ATOM     17  C   LIG A   1      -6.376   1.270 126.233  0.00  0.00    +0.053 A 
BRANCH  12  19
ATOM     18  C   LIG A   1      -6.352   3.051 123.761  0.00  0.00    +0.277 C 
ATOM     19  O   LIG A   1      -5.843   3.333 125.060  0.00  0.00    -0.491 OA
ENDBRANCH  12  19
BRANCH  13  20
ATOM     20  O   LIG A   1      -7.448   4.774 126.923  0.00  0.00    -0.488 OA
ATOM     21  C   LIG A   1      -8.352   5.292 125.955  0.00  0.00    +0.277 C 
ENDBRANCH  13  20
BRANCH  14  22
ATOM     22  O   LIG A   1      -8.979   3.461 128.625  0.00  0.00    -0.491 OA
ATOM     23  C   LIG A   1      -8.785   3.514 130.038  0.00  0.00    +0.277 C 
ENDBRANCH  14  22
ENDBRANCH   1  16
BRANCH   8  24
ATOM     24  O   LIG A   1      -9.797  -0.512 123.386  0.00  0.00    -0.372 OA
ATOM     25  C   LIG A   1      -9.961   0.802 122.878  0.00  0.00    +0.195 C 
ENDBRANCH   8  24
BRANCH   9  26
ATOM     26  O   LIG A   1      -5.306  -2.573 123.344  0.00  0.00    -0.489 OA
ATOM     27  C   LIG A   1      -4.850  -3.908 123.553  0.00  0.00    +0.277 C 
ENDBRANCH   9  26
BRANCH   6  28
ATOM     28  C   LIG A   1      -8.210  -3.229 126.931  0.00  0.00    +0.042 C 
BRANCH  28  29
ATOM     29  C   LIG A   1      -8.575  -3.247 128.414  0.00  0.00    -0.034 C 
ATOM     30  C   LIG A   1      -7.854  -3.630 129.477  0.00  0.00    +0.004 C 
ENDBRANCH  28  29
ENDBRANCH   6  28
TORSDOF 8
ENDMDL
MODEL 4
REMARK VINA RESULT:      -6.6      0.646      2.267
REMARK  Name = NuBBE_2154
REMARK  14 active torsions:
REMARK  status: ('A' for Active; 'I' for Inactive)
REMARK    1  A    between atoms: C_1  and  O_2
REMARK    2  A    between atoms: O_2  and  C_3
REMARK    3  A    between atoms: C_4  and  O_5
REMARK    4  A    between atoms: O_5  and  C_6
REMARK    5  A    between atoms: C_7  and  O_8
REMARK    6  A    between atoms: O_8  and  C_9
REMARK    7  A    between atoms: C_11  and  C_12
REMARK    8  A    between atoms: C_14  and  C_16
REMARK    9  A    between atoms: C_19  and  C_20
REMARK   10  A    between atoms: C_20  and  C_21
REMARK   11  A    between atoms: C_24  and  O_26
REMARK   12  A    between atoms: O_26  and  C_27
REMARK   13  A    between atoms: C_28  and  O_29
REMARK   14  A    between atoms: O_29  and  C_30
REMARK                            x       y       z     vdW  Elec       q    Type
REMARK                         _______ _______ _______ _____ _____    ______ ____
ROOT
ATOM      1  C   LIG A   1      -5.036   1.250 127.030  0.00  0.00    +0.073 C 
ATOM      2  C   LIG A   1      -5.302   1.532 128.551  0.00  0.00    +0.178 C 
ATOM      3  C   LIG A   1      -4.131   1.229 129.472  0.00  0.00    +0.052 C 
ATOM      4  O   LIG A   1      -5.737   2.890 128.675  0.00  0.00    -0.488 OA
ATOM      5  C   LIG A   1      -6.344   3.122 127.461  0.00  0.00    +0.150 C 
ATOM      6  C   LIG A   1      -5.432   2.640 126.375  0.00  0.00    +0.048 C 
ATOM      7  C   LIG A   1      -6.023   2.669 124.964  0.00  0.00    +0.055 C 
ATOM      8  C   LIG A   1      -7.549   2.684 124.885  0.00  0.00    +0.193 C 
ATOM      9  C   LIG A   1      -7.592   3.629 127.302  0.00  0.00    +0.203 C 
ATOM     10  C   LIG A   1      -8.121   3.764 125.882  0.00  0.00    +0.229 C 
ATOM     11  O   LIG A   1      -8.848   4.684 125.554  0.00  0.00    -0.286 OA
ENDROOT
BRANCH   1  16
ATOM     12  C   LIG A   1      -7.385  -1.826 126.830  0.00  0.00    +0.165 A 
ATOM     13  C   LIG A   1      -6.972  -2.456 125.642  0.00  0.00    +0.203 A 
ATOM     14  C   LIG A   1      -5.993  -1.835 124.854  0.00  0.00    +0.165 A 
ATOM     15  C   LIG A   1      -5.386  -0.658 125.313  0.00  0.00    +0.053 A 
ATOM     16  C   LIG A   1      -5.687  -0.062 126.549  0.00  0.00    -0.033 A 
ATOM     17  C   LIG A   1      -6.753  -0.637 127.250  0.00  0.00    +0.053 A 
BRANCH  12  19
ATOM     18  C   LIG A   1      -8.259  -3.165 128.586  0.00  0.00    +0.277 C 
ATOM     19  O   LIG A   1      -8.499  -2.316 127.470  0.00  0.00    -0.491 OA
ENDBRANCH  12  19
BRANCH  13  20
ATOM     20  O   LIG A   1      -7.527  -3.595 125.116  0.00  0.00    -0.488 OA
ATOM     21  C   LIG A   1      -8.785  -3.477 124.463  0.00  0.00    +0.277 C 
ENDBRANCH  13  20
BRANCH  14  22
ATOM     22  O   LIG A   1      -5.705  -2.396 123.630  0.00  0.00    -0.491 OA
ATOM     23  C   LIG A   1      -6.253  -1.769 122.472  0.00  0.00    +0.277 C 
ENDBRANCH  14  22
ENDBRANCH   1  16
BRANCH   8  24
ATOM     24  O   LIG A   1      -7.929   2.965 123.527  0.00  0.00    -0.372 OA
ATOM     25  C   LIG A   1      -6.876   2.897 122.580  0.00  0.00    +0.195 C 
ENDBRANCH   8  24
BRANCH   9  26
ATOM     26  O   LIG A   1      -8.379   4.147 128.303  0.00  0.00    -0.489 OA
ATOM     27  C   LIG A   1      -8.907   3.220 129.250  0.00  0.00    +0.277 C 
ENDBRANCH   9  26
BRANCH   6  28
ATOM     28  C   LIG A   1      -4.179   3.611 126.352  0.00  0.00    +0.042 C 
BRANCH  28  29
ATOM     29  C   LIG A   1      -2.772   3.046 126.172  0.00  0.00    -0.034 C 
ATOM     30  C   LIG A   1      -1.715   3.080 126.997  0.00  0.00    +0.004 C 
ENDBRANCH  28  29
ENDBRANCH   6  28
TORSDOF 8
ENDMDL
MODEL 5
REMARK VINA RESULT:      -6.5      1.508      2.491
REMARK  Name = NuBBE_2154
REMARK  14 active torsions:
REMARK  status: ('A' for Active; 'I' for Inactive)
REMARK    1  A    between atoms: C_1  and  O_2
REMARK    2  A    between atoms: O_2  and  C_3
REMARK    3  A    between atoms: C_4  and  O_5
REMARK    4  A    between atoms: O_5  and  C_6
REMARK    5  A    between atoms: C_7  and  O_8
REMARK    6  A    between atoms: O_8  and  C_9
REMARK    7  A    between atoms: C_11  and  C_12
REMARK    8  A    between atoms: C_14  and  C_16
REMARK    9  A    between atoms: C_19  and  C_20
REMARK   10  A    between atoms: C_20  and  C_21
REMARK   11  A    between atoms: C_24  and  O_26
REMARK   12  A    between atoms: O_26  and  C_27
REMARK   13  A    between atoms: C_28  and  O_29
REMARK   14  A    between atoms: O_29  and  C_30
REMARK                            x       y       z     vdW  Elec       q    Type
REMARK                         _______ _______ _______ _____ _____    ______ ____
ROOT
ATOM      1  C   LIG A   1      -5.770   0.508 127.042  0.00  0.00    +0.073 C 
ATOM      2  C   LIG A   1      -6.452   0.483 128.455  0.00  0.00    +0.178 C 
ATOM      3  C   LIG A   1      -5.776  -0.419 129.475  0.00  0.00    +0.052 C 
ATOM      4  O   LIG A   1      -6.546   1.834 128.920  0.00  0.00    -0.488 OA
ATOM      5  C   LIG A   1      -6.630   2.549 127.747  0.00  0.00    +0.150 C 
ATOM      6  C   LIG A   1      -5.558   2.065 126.819  0.00  0.00    +0.048 C 
ATOM      7  C   LIG A   1      -5.613   2.640 125.402  0.00  0.00    +0.055 C 
ATOM      8  C   LIG A   1      -6.966   3.195 124.964  0.00  0.00    +0.193 C 
ATOM      9  C   LIG A   1      -7.581   3.475 127.470  0.00  0.00    +0.203 C 
ATOM     10  C   LIG A   1      -7.548   4.127 126.095  0.00  0.00    +0.229 C 
ATOM     11  O   LIG A   1      -7.866   5.291 125.931  0.00  0.00    -0.286 OA
ENDROOT
BRANCH   1  16
ATOM     12  C   LIG A   1      -8.503  -0.687 124.568  0.00  0.00    +0.165 A 
ATOM     13  C   LIG A   1      -7.935  -1.850 124.016  0.00  0.00    +0.203 A 
ATOM     14  C   LIG A   1      -6.626  -2.198 124.376  0.00  0.00    +0.165 A 
ATOM     15  C   LIG A   1      -5.953  -1.439 125.343  0.00  0.00    +0.053 A 
ATOM     16  C   LIG A   1      -6.529  -0.341 126.003  0.00  0.00    -0.033 A 
ATOM     17  C   LIG A   1      -7.786   0.054 125.531  0.00  0.00    +0.053 A 
BRANCH  12  19
ATOM     18  C   LIG A   1      -9.603   0.957 123.253  0.00  0.00    +0.277 C 
ATOM     19  O   LIG A   1      -9.685  -0.228 124.037  0.00  0.00    -0.491 OA
ENDBRANCH  12  19
BRANCH  13  20
ATOM     20  O   LIG A   1      -8.518  -2.634 123.054  0.00  0.00    -0.488 OA
ATOM     21  C   LIG A   1      -9.595  -3.476 123.448  0.00  0.00    +0.277 C 
ENDBRANCH  13  20
BRANCH  14  22
ATOM     22  O   LIG A   1      -6.042  -3.259 123.720  0.00  0.00    -0.491 OA
ATOM     23  C   LIG A   1      -4.640  -3.184 123.464  0.00  0.00    +0.277 C 
ENDBRANCH  14  22
ENDBRANCH   1  16
BRANCH   8  24
ATOM     24  O   LIG A   1      -6.784   3.913 123.731  0.00  0.00    -0.372 OA
ATOM     25  C   LIG A   1      -5.454   4.330 123.468  0.00  0.00    +0.195 C 
ENDBRANCH   8  24
BRANCH   9  26
ATOM     26  O   LIG A   1      -8.501   3.970 128.364  0.00  0.00    -0.489 OA
ATOM     27  C   LIG A   1      -7.993   4.761 129.436  0.00  0.00    +0.277 C 
ENDBRANCH   9  26
BRANCH   6  28
ATOM     28  C   LIG A   1      -4.169   2.522 127.431  0.00  0.00    +0.042 C 
BRANCH  28  29
ATOM     29  C   LIG A   1      -3.092   3.123 126.530  0.00  0.00    -0.034 C 
ATOM     30  C   LIG A   1      -1.756   3.029 126.599  0.00  0.00    +0.004 C 
ENDBRANCH  28  29
ENDBRANCH   6  28
TORSDOF 8
ENDMDL
MODEL 6
REMARK VINA RESULT:      -6.4      4.535      8.245
REMARK  Name = NuBBE_2154
REMARK  14 active torsions:
REMARK  status: ('A' for Active; 'I' for Inactive)
REMARK    1  A    between atoms: C_1  and  O_2
REMARK    2  A    between atoms: O_2  and  C_3
REMARK    3  A    between atoms: C_4  and  O_5
REMARK    4  A    between atoms: O_5  and  C_6
REMARK    5  A    between atoms: C_7  and  O_8
REMARK    6  A    between atoms: O_8  and  C_9
REMARK    7  A    between atoms: C_11  and  C_12
REMARK    8  A    between atoms: C_14  and  C_16
REMARK    9  A    between atoms: C_19  and  C_20
REMARK   10  A    between atoms: C_20  and  C_21
REMARK   11  A    between atoms: C_24  and  O_26
REMARK   12  A    between atoms: O_26  and  C_27
REMARK   13  A    between atoms: C_28  and  O_29
REMARK   14  A    between atoms: O_29  and  C_30
REMARK                            x       y       z     vdW  Elec       q    Type
REMARK                         _______ _______ _______ _____ _____    ______ ____
ROOT
ATOM      1  C   LIG A   1      -7.662   2.824 130.497  0.00  0.00    +0.073 C 
ATOM      2  C   LIG A   1      -8.317   2.828 129.070  0.00  0.00    +0.178 C 
ATOM      3  C   LIG A   1      -8.144   1.538 128.285  0.00  0.00    +0.052 C 
ATOM      4  O   LIG A   1      -9.697   3.176 129.223  0.00  0.00    -0.488 OA
ATOM      5  C   LIG A   1      -9.685   3.961 130.354  0.00  0.00    +0.150 C 
ATOM      6  C   LIG A   1      -8.887   3.259 131.409  0.00  0.00    +0.048 C 
ATOM      7  C   LIG A   1      -8.630   4.069 132.682  0.00  0.00    +0.055 C 
ATOM      8  C   LIG A   1      -8.751   5.585 132.538  0.00  0.00    +0.193 C 
ATOM      9  C   LIG A   1     -10.241   5.194 130.448  0.00  0.00    +0.203 C 
ATOM     10  C   LIG A   1     -10.080   5.939 131.765  0.00  0.00    +0.229 C 
ATOM     11  O   LIG A   1     -10.953   6.669 132.199  0.00  0.00    -0.286 OA
ENDROOT
BRANCH   1  16
ATOM     12  C   LIG A   1      -4.065   3.895 131.462  0.00  0.00    +0.165 A 
ATOM     13  C   LIG A   1      -3.819   4.975 130.594  0.00  0.00    +0.203 A 
ATOM     14  C   LIG A   1      -4.784   5.299 129.629  0.00  0.00    +0.165 A 
ATOM     15  C   LIG A   1      -6.002   4.606 129.615  0.00  0.00    +0.053 A 
ATOM     16  C   LIG A   1      -6.332   3.602 130.540  0.00  0.00    -0.033 A 
ATOM     17  C   LIG A   1      -5.302   3.219 131.406  0.00  0.00    +0.053 A 
BRANCH  12  19
ATOM     18  C   LIG A   1      -3.078   3.786 133.619  0.00  0.00    +0.277 C 
ATOM     19  O   LIG A   1      -3.027   3.440 132.240  0.00  0.00    -0.491 OA
ENDBRANCH  12  19
BRANCH  13  20
ATOM     20  O   LIG A   1      -2.650   5.689 130.531  0.00  0.00    -0.488 OA
ATOM     21  C   LIG A   1      -2.502   6.797 131.411  0.00  0.00    +0.277 C 
ENDBRANCH  13  20
BRANCH  14  22
ATOM     22  O   LIG A   1      -4.463   6.266 128.702  0.00  0.00    -0.491 OA
ATOM     23  C   LIG A   1      -4.045   5.827 127.411  0.00  0.00    +0.277 C 
ENDBRANCH  14  22
ENDBRANCH   1  16
BRANCH   8  24
ATOM     24  O   LIG A   1      -8.734   6.168 133.853  0.00  0.00    -0.372 OA
ATOM     25  C   LIG A   1      -7.857   5.545 134.776  0.00  0.00    +0.195 C 
ENDBRANCH   8  24
BRANCH   9  26
ATOM     26  O   LIG A   1     -11.044   5.784 129.502  0.00  0.00    -0.489 OA
ATOM     27  C   LIG A   1     -10.463   6.835 128.732  0.00  0.00    +0.277 C 
ENDBRANCH   9  26
BRANCH   6  28
ATOM     28  C   LIG A   1      -9.718   1.985 131.853  0.00  0.00    +0.042 C 
BRANCH  28  29
ATOM     29  C   LIG A   1      -9.003   0.671 132.168  0.00  0.00    -0.034 C 
ATOM     30  C   LIG A   1      -8.745  -0.382 131.379  0.00  0.00    +0.004 C 
ENDBRANCH  28  29
ENDBRANCH   6  28
TORSDOF 8
ENDMDL
MODEL 7
REMARK VINA RESULT:      -6.4      1.789      6.361
REMARK  Name = NuBBE_2154
REMARK  14 active torsions:
REMARK  status: ('A' for Active; 'I' for Inactive)
REMARK    1  A    between atoms: C_1  and  O_2
REMARK    2  A    between atoms: O_2  and  C_3
REMARK    3  A    between atoms: C_4  and  O_5
REMARK    4  A    between atoms: O_5  and  C_6
REMARK    5  A    between atoms: C_7  and  O_8
REMARK    6  A    between atoms: O_8  and  C_9
REMARK    7  A    between atoms: C_11  and  C_12
REMARK    8  A    between atoms: C_14  and  C_16
REMARK    9  A    between atoms: C_19  and  C_20
REMARK   10  A    between atoms: C_20  and  C_21
REMARK   11  A    between atoms: C_24  and  O_26
REMARK   12  A    between atoms: O_26  and  C_27
REMARK   13  A    between atoms: C_28  and  O_29
REMARK   14  A    between atoms: O_29  and  C_30
REMARK                            x       y       z     vdW  Elec       q    Type
REMARK                         _______ _______ _______ _____ _____    ______ ____
ROOT
ATOM      1  C   LIG A   1      -6.514  -0.233 127.615  0.00  0.00    +0.073 C 
ATOM      2  C   LIG A   1      -5.307  -1.213 127.825  0.00  0.00    +0.178 C 
ATOM      3  C   LIG A   1      -5.134  -1.718 129.248  0.00  0.00    +0.052 C 
ATOM      4  O   LIG A   1      -5.450  -2.290 126.893  0.00  0.00    -0.488 OA
ATOM      5  C   LIG A   1      -6.128  -1.697 125.852  0.00  0.00    +0.150 C 
ATOM      6  C   LIG A   1      -7.285  -0.930 126.416  0.00  0.00    +0.048 C 
ATOM      7  C   LIG A   1      -8.051  -0.070 125.408  0.00  0.00    +0.055 C 
ATOM      8  C   LIG A   1      -7.288   0.303 124.139  0.00  0.00    +0.193 C 
ATOM      9  C   LIG A   1      -5.748  -1.746 124.551  0.00  0.00    +0.203 C 
ATOM     10  C   LIG A   1      -6.593  -0.981 123.543  0.00  0.00    +0.229 C 
ATOM     11  O   LIG A   1      -6.769  -1.394 122.411  0.00  0.00    -0.286 OA
ENDROOT
BRANCH   1  16
ATOM     12  C   LIG A   1      -4.435   2.928 126.772  0.00  0.00    +0.165 A 
ATOM     13  C   LIG A   1      -5.251   3.972 127.247  0.00  0.00    +0.203 A 
ATOM     14  C   LIG A   1      -6.519   3.659 127.757  0.00  0.00    +0.165 A 
ATOM     15  C   LIG A   1      -6.903   2.316 127.870  0.00  0.00    +0.053 A 
ATOM     16  C   LIG A   1      -6.071   1.241 127.517  0.00  0.00    -0.033 A 
ATOM     17  C   LIG A   1      -4.866   1.590 126.897  0.00  0.00    +0.053 A 
BRANCH  12  19
ATOM     18  C   LIG A   1      -2.065   3.071 126.741  0.00  0.00    +0.277 C 
ATOM     19  O   LIG A   1      -3.304   3.259 126.066  0.00  0.00    -0.491 OA
ENDBRANCH  12  19
BRANCH  13  20
ATOM     20  O   LIG A   1      -4.957   5.308 127.156  0.00  0.00    -0.488 OA
ATOM     21  C   LIG A   1      -4.063   5.856 128.116  0.00  0.00    +0.277 C 
ENDBRANCH  13  20
BRANCH  14  22
ATOM     22  O   LIG A   1      -7.352   4.705 128.086  0.00  0.00    -0.491 OA
ATOM     23  C   LIG A   1      -8.061   4.619 129.321  0.00  0.00    +0.277 C 
ENDBRANCH  14  22
ENDBRANCH   1  16
BRANCH   8  24
ATOM     24  O   LIG A   1      -8.217   0.882 123.205  0.00  0.00    -0.372 OA
ATOM     25  C   LIG A   1      -9.477   1.236 123.751  0.00  0.00    +0.195 C 
ENDBRANCH   8  24
BRANCH   9  26
ATOM     26  O   LIG A   1      -4.737  -2.525 124.041  0.00  0.00    -0.489 OA
ATOM     27  C   LIG A   1      -5.007  -3.919 123.904  0.00  0.00    +0.277 C 
ENDBRANCH   9  26
BRANCH   6  28
ATOM     28  C   LIG A   1      -8.321  -1.991 126.973  0.00  0.00    +0.042 C 
BRANCH  28  29
ATOM     29  C   LIG A   1      -8.719  -3.197 126.124  0.00  0.00    -0.034 C 
ATOM     30  C   LIG A   1      -9.289  -3.249 124.911  0.00  0.00    +0.004 C 
ENDBRANCH  28  29
ENDBRANCH   6  28
TORSDOF 8
ENDMDL
MODEL 8
REMARK VINA RESULT:      -6.4      2.595      4.770
REMARK  Name = NuBBE_2154
REMARK  14 active torsions:
REMARK  status: ('A' for Active; 'I' for Inactive)
REMARK    1  A    between atoms: C_1  and  O_2
REMARK    2  A    between atoms: O_2  and  C_3
REMARK    3  A    between atoms: C_4  and  O_5
REMARK    4  A    between atoms: O_5  and  C_6
REMARK    5  A    between atoms: C_7  and  O_8
REMARK    6  A    between atoms: O_8  and  C_9
REMARK    7  A    between atoms: C_11  and  C_12
REMARK    8  A    between atoms: C_14  and  C_16
REMARK    9  A    between atoms: C_19  and  C_20
REMARK   10  A    between atoms: C_20  and  C_21
REMARK   11  A    between atoms: C_24  and  O_26
REMARK   12  A    between atoms: O_26  and  C_27
REMARK   13  A    between atoms: C_28  and  O_29
REMARK   14  A    between atoms: O_29  and  C_30
REMARK                            x       y       z     vdW  Elec       q    Type
REMARK                         _______ _______ _______ _____ _____    ______ ____
ROOT
ATOM      1  C   LIG A   1      -4.373   3.848 126.770  0.00  0.00    +0.073 C 
ATOM      2  C   LIG A   1      -3.260   2.785 127.077  0.00  0.00    +0.178 C 
ATOM      3  C   LIG A   1      -1.864   3.168 126.613  0.00  0.00    +0.052 C 
ATOM      4  O   LIG A   1      -3.295   2.506 128.481  0.00  0.00    -0.488 OA
ATOM      5  C   LIG A   1      -4.614   2.740 128.800  0.00  0.00    +0.150 C 
ATOM      6  C   LIG A   1      -5.019   4.054 128.205  0.00  0.00    +0.048 C 
ATOM      7  C   LIG A   1      -6.507   4.393 128.322  0.00  0.00    +0.055 C 
ATOM      8  C   LIG A   1      -7.442   3.205 128.543  0.00  0.00    +0.193 C 
ATOM      9  C   LIG A   1      -5.414   1.876 129.471  0.00  0.00    +0.203 C 
ATOM     10  C   LIG A   1      -6.865   2.282 129.684  0.00  0.00    +0.229 C 
ATOM     11  O   LIG A   1      -7.473   1.981 130.696  0.00  0.00    -0.286 OA
ENDROOT
BRANCH   1  16
ATOM     12  C   LIG A   1      -6.003   3.886 123.255  0.00  0.00    +0.165 A 
ATOM     13  C   LIG A   1      -6.796   2.724 123.267  0.00  0.00    +0.203 A 
ATOM     14  C   LIG A   1      -6.732   1.875 124.381  0.00  0.00    +0.165 A 
ATOM     15  C   LIG A   1      -5.958   2.250 125.488  0.00  0.00    +0.053 A 
ATOM     16  C   LIG A   1      -5.247   3.458 125.561  0.00  0.00    -0.033 A 
ATOM     17  C   LIG A   1      -5.232   4.220 124.387  0.00  0.00    +0.053 A 
BRANCH  12  19
ATOM     18  C   LIG A   1      -4.940   4.090 121.140  0.00  0.00    +0.277 C 
ATOM     19  O   LIG A   1      -5.894   4.583 122.075  0.00  0.00    -0.491 OA
ENDBRANCH  12  19
BRANCH  13  20
ATOM     20  O   LIG A   1      -7.563   2.278 122.221  0.00  0.00    -0.488 OA
ATOM     21  C   LIG A   1      -8.839   2.878 122.032  0.00  0.00    +0.277 C 
ENDBRANCH  13  20
BRANCH  14  22
ATOM     22  O   LIG A   1      -7.407   0.676 124.313  0.00  0.00    -0.491 OA
ATOM     23  C   LIG A   1      -8.300   0.362 125.380  0.00  0.00    +0.277 C 
ENDBRANCH  14  22
ENDBRANCH   1  16
BRANCH   8  24
ATOM     24  O   LIG A   1      -8.745   3.711 128.881  0.00  0.00    -0.372 OA
ATOM     25  C   LIG A   1      -8.764   5.034 129.392  0.00  0.00    +0.195 C 
ENDBRANCH   8  24
BRANCH   9  26
ATOM     26  O   LIG A   1      -5.004   0.717 130.085  0.00  0.00    -0.489 OA
ATOM     27  C   LIG A   1      -5.106  -0.484 129.323  0.00  0.00    +0.277 C 
ENDBRANCH   9  26
BRANCH   6  28
ATOM     28  C   LIG A   1      -4.242   5.185 128.998  0.00  0.00    +0.042 C 
BRANCH  28  29
ATOM     29  C   LIG A   1      -3.544   6.313 128.241  0.00  0.00    -0.034 C 
ATOM     30  C   LIG A   1      -2.257   6.692 128.249  0.00  0.00    +0.004 C 
ENDBRANCH  28  29
ENDBRANCH   6  28
TORSDOF 8
ENDMDL
MODEL 9
REMARK VINA RESULT:      -6.4      2.269      6.123
REMARK  Name = NuBBE_2154
REMARK  14 active torsions:
REMARK  status: ('A' for Active; 'I' for Inactive)
REMARK    1  A    between atoms: C_1  and  O_2
REMARK    2  A    between atoms: O_2  and  C_3
REMARK    3  A    between atoms: C_4  and  O_5
REMARK    4  A    between atoms: O_5  and  C_6
REMARK    5  A    between atoms: C_7  and  O_8
REMARK    6  A    between atoms: O_8  and  C_9
REMARK    7  A    between atoms: C_11  and  C_12
REMARK    8  A    between atoms: C_14  and  C_16
REMARK    9  A    between atoms: C_19  and  C_20
REMARK   10  A    between atoms: C_20  and  C_21
REMARK   11  A    between atoms: C_24  and  O_26
REMARK   12  A    between atoms: O_26  and  C_27
REMARK   13  A    between atoms: C_28  and  O_29
REMARK   14  A    between atoms: O_29  and  C_30
REMARK                            x       y       z     vdW  Elec       q    Type
REMARK                         _______ _______ _______ _____ _____    ______ ____
ROOT
ATOM      1  C   LIG A   1      -6.242   0.415 126.935  0.00  0.00    +0.073 C 
ATOM      2  C   LIG A   1      -6.335   1.591 125.900  0.00  0.00    +0.178 C 
ATOM      3  C   LIG A   1      -5.128   2.515 125.871  0.00  0.00    +0.052 C 
ATOM      4  O   LIG A   1      -6.598   1.022 124.613  0.00  0.00    -0.488 OA
ATOM      5  C   LIG A   1      -7.282  -0.131 124.929  0.00  0.00    +0.150 C 
ATOM      6  C   LIG A   1      -6.533  -0.844 126.013  0.00  0.00    +0.048 C 
ATOM      7  C   LIG A   1      -7.243  -2.064 126.603  0.00  0.00    +0.055 C 
ATOM      8  C   LIG A   1      -8.758  -2.108 126.409  0.00  0.00    +0.193 C 
ATOM      9  C   LIG A   1      -8.473  -0.497 124.394  0.00  0.00    +0.203 C 
ATOM     10  C   LIG A   1      -9.109  -1.780 124.907  0.00  0.00    +0.229 C 
ATOM     11  O   LIG A   1      -9.753  -2.513 124.177  0.00  0.00    -0.286 OA
ENDROOT
BRANCH   1  16
ATOM     12  C   LIG A   1      -8.717   2.049 129.429  0.00  0.00    +0.165 A 
ATOM     13  C   LIG A   1      -8.709   1.148 130.510  0.00  0.00    +0.203 A 
ATOM     14  C   LIG A   1      -7.973  -0.040 130.393  0.00  0.00    +0.165 A 
ATOM     15  C   LIG A   1      -7.191  -0.254 129.250  0.00  0.00    +0.053 A 
ATOM     16  C   LIG A   1      -7.080   0.675 128.203  0.00  0.00    -0.033 A 
ATOM     17  C   LIG A   1      -7.923   1.788 128.293  0.00  0.00    +0.053 A 
BRANCH  12  19
ATOM     18  C   LIG A   1      -9.085   4.374 129.742  0.00  0.00    +0.277 C 
ATOM     19  O   LIG A   1      -9.619   3.086 129.457  0.00  0.00    -0.491 OA
ENDBRANCH  12  19
BRANCH  13  20
ATOM     20  O   LIG A   1      -9.459   1.275 131.651  0.00  0.00    -0.488 OA
ATOM     21  C   LIG A   1      -8.970   2.137 132.672  0.00  0.00    +0.277 C 
ENDBRANCH  13  20
BRANCH  14  22
ATOM     22  O   LIG A   1      -8.092  -0.968 131.403  0.00  0.00    -0.491 OA
ATOM     23  C   LIG A   1      -7.053  -1.937 131.532  0.00  0.00    +0.277 C 
ENDBRANCH  14  22
ENDBRANCH   1  16
BRANCH   8  24
ATOM     24  O   LIG A   1      -9.225  -3.415 126.788  0.00  0.00    -0.372 OA
ATOM     25  C   LIG A   1      -8.815  -3.852 128.073  0.00  0.00    +0.195 C 
ENDBRANCH   8  24
BRANCH   9  26
ATOM     26  O   LIG A   1      -9.101   0.122 123.339  0.00  0.00    -0.489 OA
ATOM     27  C   LIG A   1     -10.021   1.162 123.661  0.00  0.00    +0.277 C 
ENDBRANCH   9  26
BRANCH   6  28
ATOM     28  C   LIG A   1      -5.185  -1.379 125.374  0.00  0.00    +0.042 C 
BRANCH  28  29
ATOM     29  C   LIG A   1      -5.222  -2.264 124.130  0.00  0.00    -0.034 C 
ATOM     30  C   LIG A   1      -5.469  -3.577 124.011  0.00  0.00    +0.004 C 
ENDBRANCH  28  29
ENDBRANCH   6  28
TORSDOF 8
ENDMDL
