MODEL 1
REMARK VINA RESULT:      -7.7      0.000      0.000
REMARK  Name = NuBBE_1823
REMARK  12 active torsions:
REMARK  status: ('A' for Active; 'I' for Inactive)
REMARK    1  A    between atoms: O_1  and  C_2
REMARK    2  A    between atoms: C_4  and  O_5
REMARK    3  A    between atoms: C_6  and  O_8
REMARK    4  A    between atoms: C_9  and  O_11
REMARK    5  A    between atoms: O_11  and  C_12
REMARK    6  A    between atoms: C_14  and  O_15
REMARK    7  A    between atoms: C_20  and  O_21
REMARK    8  A    between atoms: C_22  and  C_24
REMARK    9  A    between atoms: C_26  and  C_27
REMARK   10  A    between atoms: C_29  and  O_30
REMARK   11  A    between atoms: C_33  and  C_35
REMARK   12  A    between atoms: C_35  and  O_36
REMARK                            x       y       z     vdW  Elec       q    Type
REMARK                         _______ _______ _______ _____ _____    ______ ____
ROOT
ATOM      1  C   LIG A   1      -8.198   0.014 126.625  0.00  0.00    +0.139 A 
ATOM      2  C   LIG A   1      -8.992  -0.670 125.682  0.00  0.00    +0.091 A 
ATOM      3  C   LIG A   1      -9.167  -2.042 125.787  0.00  0.00    +0.121 A 
ATOM      4  C   LIG A   1      -8.599  -2.754 126.821  0.00  0.00    +0.054 A 
ATOM      5  C   LIG A   1      -7.853  -2.099 127.804  0.00  0.00    -0.007 A 
ATOM      6  C   LIG A   1      -7.321  -2.877 128.832  0.00  0.00    +0.015 A 
ATOM      7  C   LIG A   1      -6.576  -2.311 129.870  0.00  0.00    -0.007 A 
ATOM      8  C   LIG A   1      -6.052  -3.211 130.956  0.00  0.00    +0.173 C 
ATOM      9  C   LIG A   1      -4.885  -2.564 131.708  0.00  0.00    +0.149 C 
ATOM     10  C   LIG A   1      -3.572  -2.612 130.938  0.00  0.00    +0.041 C 
ATOM     11  O   LIG A   1      -5.264  -1.243 132.133  0.00  0.00    -0.366 OA
ATOM     12  C   LIG A   1      -5.645  -0.309 131.097  0.00  0.00    +0.150 C 
ATOM     13  C   LIG A   1      -4.413   0.523 130.735  0.00  0.00    +0.043 C 
ATOM     14  C   LIG A   1      -6.386  -0.921 129.915  0.00  0.00    +0.029 A 
ATOM     15  C   LIG A   1      -6.942  -0.139 128.875  0.00  0.00    +0.134 A 
ATOM     16  C   LIG A   1      -7.658  -0.692 127.761  0.00  0.00    +0.066 A 
ENDROOT
BRANCH   3  17
ATOM     17  O   LIG A   1      -9.895  -2.757 124.883  0.00  0.00    -0.507 OA
ATOM     18  H   LIG A   1     -10.843  -2.686 125.103  0.00  0.00    +0.292 HD
ENDBRANCH   3  17
BRANCH   8  19
ATOM     19  O   LIG A   1      -7.131  -3.458 131.854  0.00  0.00    -0.385 OA
ATOM     20  H   LIG A   1      -7.571  -4.264 131.524  0.00  0.00    +0.210 HD
ENDBRANCH   8  19
BRANCH  15  21
ATOM     21  O   LIG A   1      -6.832   1.228 128.998  0.00  0.00    -0.506 OA
ATOM     22  H   LIG A   1      -7.690   1.599 128.719  0.00  0.00    +0.292 HD
ENDBRANCH  15  21
BRANCH   1  23
ATOM     23  O   LIG A   1      -7.924   1.377 126.515  0.00  0.00    -0.460 OA
BRANCH  23  27
ATOM     24  C   LIG A   1      -6.117   4.383 125.112  0.00  0.00    +0.177 C 
ATOM     25  C   LIG A   1      -7.549   4.371 125.644  0.00  0.00    +0.180 C 
ATOM     26  C   LIG A   1      -8.361   3.257 124.972  0.00  0.00    +0.214 C 
ATOM     27  C   LIG A   1      -7.686   1.887 125.176  0.00  0.00    +0.339 C 
ATOM     28  O   LIG A   1      -6.293   1.898 124.826  0.00  0.00    -0.331 OA
ATOM     29  C   LIG A   1      -5.464   2.995 125.231  0.00  0.00    +0.179 C 
BRANCH  24  30
ATOM     30  O   LIG A   1      -6.166   4.766 123.717  0.00  0.00    -0.387 OA
ATOM     31  H   LIG A   1      -6.394   5.718 123.730  0.00  0.00    +0.210 HD
ENDBRANCH  24  30
BRANCH  25  32
ATOM     32  O   LIG A   1      -8.154   5.646 125.362  0.00  0.00    -0.386 OA
ATOM     33  H   LIG A   1      -8.745   5.505 124.594  0.00  0.00    +0.210 HD
ENDBRANCH  25  32
BRANCH  26  34
ATOM     34  O   LIG A   1      -8.498   3.560 123.565  0.00  0.00    -0.383 OA
ATOM     35  H   LIG A   1      -9.075   2.860 123.181  0.00  0.00    +0.210 HD
ENDBRANCH  26  34
BRANCH  29  36
ATOM     36  C   LIG A   1      -4.841   2.732 126.605  0.00  0.00    +0.190 C 
BRANCH  36  37
ATOM     37  O   LIG A   1      -4.680   1.335 126.824  0.00  0.00    -0.392 OA
ATOM     38  H   LIG A   1      -5.020   1.137 127.715  0.00  0.00    +0.209 HD
ENDBRANCH  36  37
ENDBRANCH  29  36
ENDBRANCH  23  27
ENDBRANCH   1  23
TORSDOF 10
ENDMDL
MODEL 2
REMARK VINA RESULT:      -7.5      2.772      6.140
REMARK  Name = NuBBE_1823
REMARK  12 active torsions:
REMARK  status: ('A' for Active; 'I' for Inactive)
REMARK    1  A    between atoms: O_1  and  C_2
REMARK    2  A    between atoms: C_4  and  O_5
REMARK    3  A    between atoms: C_6  and  O_8
REMARK    4  A    between atoms: C_9  and  O_11
REMARK    5  A    between atoms: O_11  and  C_12
REMARK    6  A    between atoms: C_14  and  O_15
REMARK    7  A    between atoms: C_20  and  O_21
REMARK    8  A    between atoms: C_22  and  C_24
REMARK    9  A    between atoms: C_26  and  C_27
REMARK   10  A    between atoms: C_29  and  O_30
REMARK   11  A    between atoms: C_33  and  C_35
REMARK   12  A    between atoms: C_35  and  O_36
REMARK                            x       y       z     vdW  Elec       q    Type
REMARK                         _______ _______ _______ _____ _____    ______ ____
ROOT
ATOM      1  C   LIG A   1      -5.952   3.228 125.147  0.00  0.00    +0.139 A 
ATOM      2  C   LIG A   1      -5.499   4.164 124.194  0.00  0.00    +0.091 A 
ATOM      3  C   LIG A   1      -5.724   3.942 122.843  0.00  0.00    +0.121 A 
ATOM      4  C   LIG A   1      -6.412   2.830 122.409  0.00  0.00    +0.054 A 
ATOM      5  C   LIG A   1      -6.924   1.913 123.329  0.00  0.00    -0.007 A 
ATOM      6  C   LIG A   1      -7.626   0.819 122.824  0.00  0.00    +0.015 A 
ATOM      7  C   LIG A   1      -8.190  -0.144 123.665  0.00  0.00    -0.007 A 
ATOM      8  C   LIG A   1      -8.952  -1.284 123.047  0.00  0.00    +0.173 C 
ATOM      9  C   LIG A   1      -9.067  -2.470 124.011  0.00  0.00    +0.149 C 
ATOM     10  C   LIG A   1      -7.787  -3.288 124.114  0.00  0.00    +0.041 C 
ATOM     11  O   LIG A   1      -9.568  -2.010 125.278  0.00  0.00    -0.366 OA
ATOM     12  C   LIG A   1      -8.785  -1.007 125.964  0.00  0.00    +0.150 C 
ATOM     13  C   LIG A   1      -7.872  -1.722 126.961  0.00  0.00    +0.043 C 
ATOM     14  C   LIG A   1      -8.092   0.004 125.058  0.00  0.00    +0.029 A 
ATOM     15  C   LIG A   1      -7.390   1.124 125.561  0.00  0.00    +0.134 A 
ATOM     16  C   LIG A   1      -6.744   2.098 124.727  0.00  0.00    +0.066 A 
ENDROOT
BRANCH   3  17
ATOM     17  O   LIG A   1      -5.277   4.796 121.879  0.00  0.00    -0.507 OA
ATOM     18  H   LIG A   1      -5.968   5.456 121.685  0.00  0.00    +0.292 HD
ENDBRANCH   3  17
BRANCH   8  19
ATOM     19  O   LIG A   1     -10.251  -0.796 122.722  0.00  0.00    -0.385 OA
ATOM     20  H   LIG A   1     -10.632  -1.448 122.105  0.00  0.00    +0.210 HD
ENDBRANCH   8  19
BRANCH  15  21
ATOM     21  O   LIG A   1      -7.398   1.302 126.927  0.00  0.00    -0.506 OA
ATOM     22  H   LIG A   1      -7.932   0.574 127.295  0.00  0.00    +0.292 HD
ENDBRANCH  15  21
BRANCH   1  23
ATOM     23  O   LIG A   1      -5.680   3.363 126.508  0.00  0.00    -0.460 OA
BRANCH  23  27
ATOM     24  C   LIG A   1      -3.921   4.124 129.762  0.00  0.00    +0.177 C 
ATOM     25  C   LIG A   1      -4.999   4.985 129.108  0.00  0.00    +0.180 C 
ATOM     26  C   LIG A   1      -4.633   5.288 127.650  0.00  0.00    +0.214 C 
ATOM     27  C   LIG A   1      -4.414   3.984 126.858  0.00  0.00    +0.339 C 
ATOM     28  O   LIG A   1      -3.517   3.078 127.520  0.00  0.00    -0.331 OA
ATOM     29  C   LIG A   1      -3.632   2.861 128.932  0.00  0.00    +0.179 C 
BRANCH  24  30
ATOM     30  O   LIG A   1      -2.714   4.918 129.852  0.00  0.00    -0.387 OA
ATOM     31  H   LIG A   1      -2.115   4.534 129.179  0.00  0.00    +0.210 HD
ENDBRANCH  24  30
BRANCH  25  32
ATOM     32  O   LIG A   1      -5.109   6.218 129.843  0.00  0.00    -0.386 OA
ATOM     33  H   LIG A   1      -6.041   6.279 130.139  0.00  0.00    +0.210 HD
ENDBRANCH  25  32
BRANCH  26  34
ATOM     34  O   LIG A   1      -3.445   6.111 127.626  0.00  0.00    -0.383 OA
ATOM     35  H   LIG A   1      -3.750   7.044 127.533  0.00  0.00    +0.210 HD
ENDBRANCH  26  34
BRANCH  29  36
ATOM     36  C   LIG A   1      -4.592   1.705 129.230  0.00  0.00    +0.190 C 
BRANCH  36  37
ATOM     37  O   LIG A   1      -4.736   0.866 128.090  0.00  0.00    -0.392 OA
ATOM     38  H   LIG A   1      -5.212   1.376 127.410  0.00  0.00    +0.209 HD
ENDBRANCH  36  37
ENDBRANCH  29  36
ENDBRANCH  23  27
ENDBRANCH   1  23
TORSDOF 10
ENDMDL
MODEL 3
REMARK VINA RESULT:      -7.3      2.905      5.940
REMARK  Name = NuBBE_1823
REMARK  12 active torsions:
REMARK  status: ('A' for Active; 'I' for Inactive)
REMARK    1  A    between atoms: O_1  and  C_2
REMARK    2  A    between atoms: C_4  and  O_5
REMARK    3  A    between atoms: C_6  and  O_8
REMARK    4  A    between atoms: C_9  and  O_11
REMARK    5  A    between atoms: O_11  and  C_12
REMARK    6  A    between atoms: C_14  and  O_15
REMARK    7  A    between atoms: C_20  and  O_21
REMARK    8  A    between atoms: C_22  and  C_24
REMARK    9  A    between atoms: C_26  and  C_27
REMARK   10  A    between atoms: C_29  and  O_30
REMARK   11  A    between atoms: C_33  and  C_35
REMARK   12  A    between atoms: C_35  and  O_36
REMARK                            x       y       z     vdW  Elec       q    Type
REMARK                         _______ _______ _______ _____ _____    ______ ____
ROOT
ATOM      1  C   LIG A   1      -6.475   2.969 125.749  0.00  0.00    +0.139 A 
ATOM      2  C   LIG A   1      -6.005   3.979 124.885  0.00  0.00    +0.091 A 
ATOM      3  C   LIG A   1      -6.061   3.799 123.511  0.00  0.00    +0.121 A 
ATOM      4  C   LIG A   1      -6.598   2.654 122.965  0.00  0.00    +0.054 A 
ATOM      5  C   LIG A   1      -7.125   1.658 123.791  0.00  0.00    -0.007 A 
ATOM      6  C   LIG A   1      -7.669   0.533 123.173  0.00  0.00    +0.015 A 
ATOM      7  C   LIG A   1      -8.235  -0.509 123.913  0.00  0.00    -0.007 A 
ATOM      8  C   LIG A   1      -8.823  -1.682 123.175  0.00  0.00    +0.173 C 
ATOM      9  C   LIG A   1      -8.938  -2.914 124.079  0.00  0.00    +0.149 C 
ATOM     10  C   LIG A   1      -7.610  -3.626 124.296  0.00  0.00    +0.041 C 
ATOM     11  O   LIG A   1      -9.612  -2.553 125.296  0.00  0.00    -0.366 OA
ATOM     12  C   LIG A   1      -8.999  -1.518 126.099  0.00  0.00    +0.150 C 
ATOM     13  C   LIG A   1      -8.140  -2.197 127.168  0.00  0.00    +0.043 C 
ATOM     14  C   LIG A   1      -8.302  -0.415 125.312  0.00  0.00    +0.029 A 
ATOM     15  C   LIG A   1      -7.760   0.737 125.928  0.00  0.00    +0.134 A 
ATOM     16  C   LIG A   1      -7.115   1.796 125.205  0.00  0.00    +0.066 A 
ENDROOT
BRANCH   3  17
ATOM     17  O   LIG A   1      -5.588   4.729 122.633  0.00  0.00    -0.507 OA
ATOM     18  H   LIG A   1      -5.013   5.358 123.106  0.00  0.00    +0.292 HD
ENDBRANCH   3  17
BRANCH   8  19
ATOM     19  O   LIG A   1     -10.117  -1.289 122.723  0.00  0.00    -0.385 OA
ATOM     20  H   LIG A   1     -10.694  -1.328 123.508  0.00  0.00    +0.210 HD
ENDBRANCH   8  19
BRANCH  15  21
ATOM     21  O   LIG A   1      -7.932   0.854 127.289  0.00  0.00    -0.506 OA
ATOM     22  H   LIG A   1      -7.953   1.809 127.482  0.00  0.00    +0.292 HD
ENDBRANCH  15  21
BRANCH   1  23
ATOM     23  O   LIG A   1      -6.365   3.067 127.136  0.00  0.00    -0.460 OA
BRANCH  23  27
ATOM     24  C   LIG A   1      -7.680   4.004 130.550  0.00  0.00    +0.177 C 
ATOM     25  C   LIG A   1      -8.498   3.386 129.417  0.00  0.00    +0.180 C 
ATOM     26  C   LIG A   1      -8.326   4.197 128.128  0.00  0.00    +0.214 C 
ATOM     27  C   LIG A   1      -6.838   4.300 127.739  0.00  0.00    +0.339 C 
ATOM     28  O   LIG A   1      -6.010   4.737 128.829  0.00  0.00    -0.331 OA
ATOM     29  C   LIG A   1      -6.209   4.192 130.141  0.00  0.00    +0.179 C 
BRANCH  24  30
ATOM     30  O   LIG A   1      -8.255   5.296 130.858  0.00  0.00    -0.387 OA
ATOM     31  H   LIG A   1      -8.691   5.171 131.727  0.00  0.00    +0.210 HD
ENDBRANCH  24  30
BRANCH  25  32
ATOM     32  O   LIG A   1      -9.885   3.382 129.803  0.00  0.00    -0.386 OA
ATOM     33  H   LIG A   1      -9.938   2.859 130.628  0.00  0.00    +0.210 HD
ENDBRANCH  25  32
BRANCH  26  34
ATOM     34  O   LIG A   1      -8.901   5.510 128.318  0.00  0.00    -0.383 OA
ATOM     35  H   LIG A   1      -8.345   6.139 127.801  0.00  0.00    +0.210 HD
ENDBRANCH  26  34
BRANCH  29  36
ATOM     36  C   LIG A   1      -5.355   2.938 130.346  0.00  0.00    +0.190 C 
BRANCH  36  37
ATOM     37  O   LIG A   1      -4.267   2.915 129.430  0.00  0.00    -0.392 OA
ATOM     38  H   LIG A   1      -3.678   3.658 129.658  0.00  0.00    +0.209 HD
ENDBRANCH  36  37
ENDBRANCH  29  36
ENDBRANCH  23  27
ENDBRANCH   1  23
TORSDOF 10
ENDMDL
MODEL 4
REMARK VINA RESULT:      -7.1      2.773      6.218
REMARK  Name = NuBBE_1823
REMARK  12 active torsions:
REMARK  status: ('A' for Active; 'I' for Inactive)
REMARK    1  A    between atoms: O_1  and  C_2
REMARK    2  A    between atoms: C_4  and  O_5
REMARK    3  A    between atoms: C_6  and  O_8
REMARK    4  A    between atoms: C_9  and  O_11
REMARK    5  A    between atoms: O_11  and  C_12
REMARK    6  A    between atoms: C_14  and  O_15
REMARK    7  A    between atoms: C_20  and  O_21
REMARK    8  A    between atoms: C_22  and  C_24
REMARK    9  A    between atoms: C_26  and  C_27
REMARK   10  A    between atoms: C_29  and  O_30
REMARK   11  A    between atoms: C_33  and  C_35
REMARK   12  A    between atoms: C_35  and  O_36
REMARK                            x       y       z     vdW  Elec       q    Type
REMARK                         _______ _______ _______ _____ _____    ______ ____
ROOT
ATOM      1  C   LIG A   1      -7.000   1.562 124.748  0.00  0.00    +0.139 A 
ATOM      2  C   LIG A   1      -7.301   2.026 123.451  0.00  0.00    +0.091 A 
ATOM      3  C   LIG A   1      -6.825   3.259 123.028  0.00  0.00    +0.121 A 
ATOM      4  C   LIG A   1      -6.033   4.035 123.845  0.00  0.00    +0.054 A 
ATOM      5  C   LIG A   1      -5.669   3.579 125.115  0.00  0.00    -0.007 A 
ATOM      6  C   LIG A   1      -4.851   4.406 125.884  0.00  0.00    +0.015 A 
ATOM      7  C   LIG A   1      -4.420   4.031 127.159  0.00  0.00    -0.007 A 
ATOM      8  C   LIG A   1      -3.520   4.966 127.920  0.00  0.00    +0.173 C 
ATOM      9  C   LIG A   1      -3.545   4.670 129.424  0.00  0.00    +0.149 C 
ATOM     10  C   LIG A   1      -4.795   5.193 130.119  0.00  0.00    +0.041 C 
ATOM     11  O   LIG A   1      -3.301   3.270 129.639  0.00  0.00    -0.366 OA
ATOM     12  C   LIG A   1      -4.228   2.344 129.029  0.00  0.00    +0.150 C 
ATOM     13  C   LIG A   1      -5.285   1.979 130.074  0.00  0.00    +0.043 C 
ATOM     14  C   LIG A   1      -4.776   2.775 127.674  0.00  0.00    +0.029 A 
ATOM     15  C   LIG A   1      -5.595   1.938 126.880  0.00  0.00    +0.134 A 
ATOM     16  C   LIG A   1      -6.108   2.316 125.594  0.00  0.00    +0.066 A 
ENDROOT
BRANCH   3  17
ATOM     17  O   LIG A   1      -7.116   3.770 121.798  0.00  0.00    -0.507 OA
ATOM     18  H   LIG A   1      -7.237   4.735 121.869  0.00  0.00    +0.292 HD
ENDBRANCH   3  17
BRANCH   8  19
ATOM     19  O   LIG A   1      -2.200   4.788 127.413  0.00  0.00    -0.385 OA
ATOM     20  H   LIG A   1      -1.810   4.065 127.939  0.00  0.00    +0.210 HD
ENDBRANCH   8  19
BRANCH  15  21
ATOM     21  O   LIG A   1      -5.843   0.672 127.363  0.00  0.00    -0.506 OA
ATOM     22  H   LIG A   1      -5.736   0.064 126.608  0.00  0.00    +0.292 HD
ENDBRANCH  15  21
BRANCH   1  23
ATOM     23  O   LIG A   1      -7.522   0.370 125.250  0.00  0.00    -0.460 OA
BRANCH  23  27
ATOM     24  C   LIG A   1      -8.927  -2.954 124.137  0.00  0.00    +0.177 C 
ATOM     25  C   LIG A   1      -8.048  -2.031 123.296  0.00  0.00    +0.180 C 
ATOM     26  C   LIG A   1      -8.630  -0.613 123.271  0.00  0.00    +0.214 C 
ATOM     27  C   LIG A   1      -8.796  -0.063 124.701  0.00  0.00    +0.339 C 
ATOM     28  O   LIG A   1      -9.491  -0.974 125.567  0.00  0.00    -0.331 OA
ATOM     29  C   LIG A   1      -9.172  -2.371 125.539  0.00  0.00    +0.179 C 
BRANCH  24  30
ATOM     30  O   LIG A   1     -10.197  -3.098 123.455  0.00  0.00    -0.387 OA
ATOM     31  H   LIG A   1     -10.099  -2.570 122.637  0.00  0.00    +0.210 HD
ENDBRANCH  24  30
BRANCH  25  32
ATOM     32  O   LIG A   1      -7.988  -2.551 121.955  0.00  0.00    -0.386 OA
ATOM     33  H   LIG A   1      -7.050  -2.779 121.791  0.00  0.00    +0.210 HD
ENDBRANCH  25  32
BRANCH  26  34
ATOM     34  O   LIG A   1      -9.898  -0.637 122.578  0.00  0.00    -0.383 OA
ATOM     35  H   LIG A   1     -10.248   0.284 122.597  0.00  0.00    +0.210 HD
ENDBRANCH  26  34
BRANCH  29  36
ATOM     36  C   LIG A   1      -8.055  -2.697 126.536  0.00  0.00    +0.190 C 
BRANCH  36  37
ATOM     37  O   LIG A   1      -7.879  -1.628 127.459  0.00  0.00    -0.392 OA
ATOM     38  H   LIG A   1      -7.110  -1.847 128.016  0.00  0.00    +0.209 HD
ENDBRANCH  36  37
ENDBRANCH  29  36
ENDBRANCH  23  27
ENDBRANCH   1  23
TORSDOF 10
ENDMDL
MODEL 5
REMARK VINA RESULT:      -7.0      2.783      7.475
REMARK  Name = NuBBE_1823
REMARK  12 active torsions:
REMARK  status: ('A' for Active; 'I' for Inactive)
REMARK    1  A    between atoms: O_1  and  C_2
REMARK    2  A    between atoms: C_4  and  O_5
REMARK    3  A    between atoms: C_6  and  O_8
REMARK    4  A    between atoms: C_9  and  O_11
REMARK    5  A    between atoms: O_11  and  C_12
REMARK    6  A    between atoms: C_14  and  O_15
REMARK    7  A    between atoms: C_20  and  O_21
REMARK    8  A    between atoms: C_22  and  C_24
REMARK    9  A    between atoms: C_26  and  C_27
REMARK   10  A    between atoms: C_29  and  O_30
REMARK   11  A    between atoms: C_33  and  C_35
REMARK   12  A    between atoms: C_35  and  O_36
REMARK                            x       y       z     vdW  Elec       q    Type
REMARK                         _______ _______ _______ _____ _____    ______ ____
ROOT
ATOM      1  C   LIG A   1      -7.880  -0.696 129.177  0.00  0.00    +0.139 A 
ATOM      2  C   LIG A   1      -7.893   0.536 129.862  0.00  0.00    +0.091 A 
ATOM      3  C   LIG A   1      -8.056   1.720 129.158  0.00  0.00    +0.121 A 
ATOM      4  C   LIG A   1      -8.235   1.717 127.792  0.00  0.00    +0.054 A 
ATOM      5  C   LIG A   1      -8.285   0.510 127.089  0.00  0.00    -0.007 A 
ATOM      6  C   LIG A   1      -8.488   0.577 125.711  0.00  0.00    +0.015 A 
ATOM      7  C   LIG A   1      -8.569  -0.575 124.925  0.00  0.00    -0.007 A 
ATOM      8  C   LIG A   1      -8.811  -0.424 123.447  0.00  0.00    +0.173 C 
ATOM      9  C   LIG A   1      -8.387  -1.680 122.678  0.00  0.00    +0.149 C 
ATOM     10  C   LIG A   1      -6.880  -1.791 122.491  0.00  0.00    +0.041 C 
ATOM     11  O   LIG A   1      -8.986  -2.838 123.284  0.00  0.00    -0.366 OA
ATOM     12  C   LIG A   1      -8.666  -3.087 124.672  0.00  0.00    +0.150 C 
ATOM     13  C   LIG A   1      -7.501  -4.078 124.716  0.00  0.00    +0.043 C 
ATOM     14  C   LIG A   1      -8.489  -1.840 125.529  0.00  0.00    +0.029 A 
ATOM     15  C   LIG A   1      -8.298  -1.897 126.930  0.00  0.00    +0.134 A 
ATOM     16  C   LIG A   1      -8.147  -0.735 127.759  0.00  0.00    +0.066 A 
ENDROOT
BRANCH   3  17
ATOM     17  O   LIG A   1      -8.040   2.940 129.767  0.00  0.00    -0.507 OA
ATOM     18  H   LIG A   1      -7.125   3.166 130.015  0.00  0.00    +0.292 HD
ENDBRANCH   3  17
BRANCH   8  19
ATOM     19  O   LIG A   1     -10.207  -0.195 123.270  0.00  0.00    -0.385 OA
ATOM     20  H   LIG A   1     -10.655  -0.942 123.710  0.00  0.00    +0.210 HD
ENDBRANCH   8  19
BRANCH  15  21
ATOM     21  O   LIG A   1      -8.329  -3.145 127.511  0.00  0.00    -0.506 OA
ATOM     22  H   LIG A   1      -9.256  -3.442 127.476  0.00  0.00    +0.292 HD
ENDBRANCH  15  21
BRANCH   1  23
ATOM     23  O   LIG A   1      -7.638  -1.905 129.827  0.00  0.00    -0.460 OA
BRANCH  23  27
ATOM     24  C   LIG A   1      -4.374  -3.793 130.039  0.00  0.00    +0.177 C 
ATOM     25  C   LIG A   1      -5.736  -4.311 130.499  0.00  0.00    +0.180 C 
ATOM     26  C   LIG A   1      -6.400  -3.305 131.445  0.00  0.00    +0.214 C 
ATOM     27  C   LIG A   1      -6.535  -1.925 130.772  0.00  0.00    +0.339 C 
ATOM     28  O   LIG A   1      -5.302  -1.469 130.193  0.00  0.00    -0.331 OA
ATOM     29  C   LIG A   1      -4.484  -2.379 129.445  0.00  0.00    +0.179 C 
BRANCH  24  30
ATOM     30  O   LIG A   1      -3.502  -3.756 131.194  0.00  0.00    -0.387 OA
ATOM     31  H   LIG A   1      -4.090  -3.946 131.954  0.00  0.00    +0.210 HD
ENDBRANCH  24  30
BRANCH  25  32
ATOM     32  O   LIG A   1      -5.543  -5.563 131.184  0.00  0.00    -0.386 OA
ATOM     33  H   LIG A   1      -6.050  -6.232 130.681  0.00  0.00    +0.210 HD
ENDBRANCH  25  32
BRANCH  26  34
ATOM     34  O   LIG A   1      -5.618  -3.213 132.658  0.00  0.00    -0.383 OA
ATOM     35  H   LIG A   1      -4.985  -2.469 132.529  0.00  0.00    +0.210 HD
ENDBRANCH  26  34
BRANCH  29  36
ATOM     36  C   LIG A   1      -4.872  -2.371 127.963  0.00  0.00    +0.190 C 
BRANCH  36  37
ATOM     37  O   LIG A   1      -4.865  -1.044 127.450  0.00  0.00    -0.392 OA
ATOM     38  H   LIG A   1      -4.382  -0.486 128.086  0.00  0.00    +0.209 HD
ENDBRANCH  36  37
ENDBRANCH  29  36
ENDBRANCH  23  27
ENDBRANCH   1  23
TORSDOF 10
ENDMDL
MODEL 6
REMARK VINA RESULT:      -6.9      2.820      4.784
REMARK  Name = NuBBE_1823
REMARK  12 active torsions:
REMARK  status: ('A' for Active; 'I' for Inactive)
REMARK    1  A    between atoms: O_1  and  C_2
REMARK    2  A    between atoms: C_4  and  O_5
REMARK    3  A    between atoms: C_6  and  O_8
REMARK    4  A    between atoms: C_9  and  O_11
REMARK    5  A    between atoms: O_11  and  C_12
REMARK    6  A    between atoms: C_14  and  O_15
REMARK    7  A    between atoms: C_20  and  O_21
REMARK    8  A    between atoms: C_22  and  C_24
REMARK    9  A    between atoms: C_26  and  C_27
REMARK   10  A    between atoms: C_29  and  O_30
REMARK   11  A    between atoms: C_33  and  C_35
REMARK   12  A    between atoms: C_35  and  O_36
REMARK                            x       y       z     vdW  Elec       q    Type
REMARK                         _______ _______ _______ _____ _____    ______ ____
ROOT
ATOM      1  C   LIG A   1      -7.677   0.378 127.552  0.00  0.00    +0.139 A 
ATOM      2  C   LIG A   1      -8.609   1.424 127.706  0.00  0.00    +0.091 A 
ATOM      3  C   LIG A   1      -8.749   2.054 128.934  0.00  0.00    +0.121 A 
ATOM      4  C   LIG A   1      -7.968   1.695 130.011  0.00  0.00    +0.054 A 
ATOM      5  C   LIG A   1      -6.995   0.702 129.878  0.00  0.00    -0.007 A 
ATOM      6  C   LIG A   1      -6.227   0.400 131.001  0.00  0.00    +0.015 A 
ATOM      7  C   LIG A   1      -5.218  -0.566 130.963  0.00  0.00    -0.007 A 
ATOM      8  C   LIG A   1      -4.416  -0.821 132.210  0.00  0.00    +0.173 C 
ATOM      9  C   LIG A   1      -3.729  -2.190 132.165  0.00  0.00    +0.149 C 
ATOM     10  C   LIG A   1      -4.676  -3.348 132.452  0.00  0.00    +0.041 C 
ATOM     11  O   LIG A   1      -3.004  -2.322 130.930  0.00  0.00    -0.366 OA
ATOM     12  C   LIG A   1      -3.771  -2.214 129.709  0.00  0.00    +0.150 C 
ATOM     13  C   LIG A   1      -4.139  -3.629 129.257  0.00  0.00    +0.043 C 
ATOM     14  C   LIG A   1      -4.930  -1.226 129.758  0.00  0.00    +0.029 A 
ATOM     15  C   LIG A   1      -5.706  -0.902 128.620  0.00  0.00    +0.134 A 
ATOM     16  C   LIG A   1      -6.791   0.037 128.639  0.00  0.00    +0.066 A 
ENDROOT
BRANCH   3  17
ATOM     17  O   LIG A   1      -9.660   3.046 129.146  0.00  0.00    -0.507 OA
ATOM     18  H   LIG A   1      -9.721   3.605 128.349  0.00  0.00    +0.292 HD
ENDBRANCH   3  17
BRANCH   8  19
ATOM     19  O   LIG A   1      -3.436   0.210 132.300  0.00  0.00    -0.385 OA
ATOM     20  H   LIG A   1      -3.346   0.407 133.251  0.00  0.00    +0.210 HD
ENDBRANCH   8  19
BRANCH  15  21
ATOM     21  O   LIG A   1      -5.336  -1.486 127.429  0.00  0.00    -0.506 OA
ATOM     22  H   LIG A   1      -5.821  -1.012 126.728  0.00  0.00    +0.292 HD
ENDBRANCH  15  21
BRANCH   1  23
ATOM     23  O   LIG A   1      -7.556  -0.341 126.363  0.00  0.00    -0.460 OA
BRANCH  23  27
ATOM     24  C   LIG A   1      -8.955  -3.062 124.150  0.00  0.00    +0.177 C 
ATOM     25  C   LIG A   1      -7.924  -2.015 123.733  0.00  0.00    +0.180 C 
ATOM     26  C   LIG A   1      -8.428  -0.605 124.066  0.00  0.00    +0.214 C 
ATOM     27  C   LIG A   1      -8.762  -0.483 125.566  0.00  0.00    +0.339 C 
ATOM     28  O   LIG A   1      -9.613  -1.542 126.032  0.00  0.00    -0.331 OA
ATOM     29  C   LIG A   1      -9.361  -2.893 125.624  0.00  0.00    +0.179 C 
BRANCH  24  30
ATOM     30  O   LIG A   1     -10.124  -2.891 123.313  0.00  0.00    -0.387 OA
ATOM     31  H   LIG A   1     -10.144  -1.933 123.109  0.00  0.00    +0.210 HD
ENDBRANCH  24  30
BRANCH  25  32
ATOM     32  O   LIG A   1      -7.706  -2.125 122.314  0.00  0.00    -0.386 OA
ATOM     33  H   LIG A   1      -7.583  -1.212 121.984  0.00  0.00    +0.210 HD
ENDBRANCH  25  32
BRANCH  26  34
ATOM     34  O   LIG A   1      -9.589  -0.317 123.254  0.00  0.00    -0.383 OA
ATOM     35  H   LIG A   1      -9.844   0.615 123.449  0.00  0.00    +0.210 HD
ENDBRANCH  26  34
BRANCH  29  36
ATOM     36  C   LIG A   1      -8.409  -3.590 126.600  0.00  0.00    +0.190 C 
BRANCH  36  37
ATOM     37  O   LIG A   1      -8.498  -3.003 127.893  0.00  0.00    -0.392 OA
ATOM     38  H   LIG A   1      -7.591  -2.797 128.183  0.00  0.00    +0.209 HD
ENDBRANCH  36  37
ENDBRANCH  29  36
ENDBRANCH  23  27
ENDBRANCH   1  23
TORSDOF 10
ENDMDL
MODEL 7
REMARK VINA RESULT:      -6.8      4.173      8.029
REMARK  Name = NuBBE_1823
REMARK  12 active torsions:
REMARK  status: ('A' for Active; 'I' for Inactive)
REMARK    1  A    between atoms: O_1  and  C_2
REMARK    2  A    between atoms: C_4  and  O_5
REMARK    3  A    between atoms: C_6  and  O_8
REMARK    4  A    between atoms: C_9  and  O_11
REMARK    5  A    between atoms: O_11  and  C_12
REMARK    6  A    between atoms: C_14  and  O_15
REMARK    7  A    between atoms: C_20  and  O_21
REMARK    8  A    between atoms: C_22  and  C_24
REMARK    9  A    between atoms: C_26  and  C_27
REMARK   10  A    between atoms: C_29  and  O_30
REMARK   11  A    between atoms: C_33  and  C_35
REMARK   12  A    between atoms: C_35  and  O_36
REMARK                            x       y       z     vdW  Elec       q    Type
REMARK                         _______ _______ _______ _____ _____    ______ ____
ROOT
ATOM      1  C   LIG A   1      -5.919   4.582 128.967  0.00  0.00    +0.139 A 
ATOM      2  C   LIG A   1      -4.702   5.119 129.434  0.00  0.00    +0.091 A 
ATOM      3  C   LIG A   1      -3.618   5.230 128.576  0.00  0.00    +0.121 A 
ATOM      4  C   LIG A   1      -3.714   4.848 127.255  0.00  0.00    +0.054 A 
ATOM      5  C   LIG A   1      -4.921   4.365 126.746  0.00  0.00    -0.007 A 
ATOM      6  C   LIG A   1      -4.955   4.014 125.397  0.00  0.00    +0.015 A 
ATOM      7  C   LIG A   1      -6.121   3.536 124.792  0.00  0.00    -0.007 A 
ATOM      8  C   LIG A   1      -6.086   3.198 123.326  0.00  0.00    +0.173 C 
ATOM      9  C   LIG A   1      -7.230   2.255 122.940  0.00  0.00    +0.149 C 
ATOM     10  C   LIG A   1      -6.983   0.810 123.352  0.00  0.00    +0.041 C 
ATOM     11  O   LIG A   1      -8.475   2.792 123.418  0.00  0.00    -0.366 OA
ATOM     12  C   LIG A   1      -8.590   3.005 124.844  0.00  0.00    +0.150 C 
ATOM     13  C   LIG A   1      -9.271   1.776 125.450  0.00  0.00    +0.043 C 
ATOM     14  C   LIG A   1      -7.307   3.444 125.538  0.00  0.00    +0.029 A 
ATOM     15  C   LIG A   1      -7.265   3.817 126.902  0.00  0.00    +0.134 A 
ATOM     16  C   LIG A   1      -6.072   4.250 127.572  0.00  0.00    +0.066 A 
ENDROOT
BRANCH   3  17
ATOM     17  O   LIG A   1      -2.409   5.709 128.985  0.00  0.00    -0.507 OA
ATOM     18  H   LIG A   1      -1.760   5.609 128.263  0.00  0.00    +0.292 HD
ENDBRANCH   3  17
BRANCH   8  19
ATOM     19  O   LIG A   1      -6.205   4.424 122.608  0.00  0.00    -0.385 OA
ATOM     20  H   LIG A   1      -5.741   5.092 123.146  0.00  0.00    +0.210 HD
ENDBRANCH   8  19
BRANCH  15  21
ATOM     21  O   LIG A   1      -8.462   3.817 127.583  0.00  0.00    -0.506 OA
ATOM     22  H   LIG A   1      -9.096   3.330 127.025  0.00  0.00    +0.292 HD
ENDBRANCH  15  21
BRANCH   1  23
ATOM     23  O   LIG A   1      -7.010   4.374 129.810  0.00  0.00    -0.460 OA
BRANCH  23  27
ATOM     24  C   LIG A   1      -9.337   4.765 132.759  0.00  0.00    +0.177 C 
ATOM     25  C   LIG A   1      -9.749   4.791 131.289  0.00  0.00    +0.180 C 
ATOM     26  C   LIG A   1      -8.899   5.805 130.512  0.00  0.00    +0.214 C 
ATOM     27  C   LIG A   1      -7.398   5.488 130.658  0.00  0.00    +0.339 C 
ATOM     28  O   LIG A   1      -7.001   5.306 132.027  0.00  0.00    -0.331 OA
ATOM     29  C   LIG A   1      -7.823   4.537 132.914  0.00  0.00    +0.179 C 
BRANCH  24  30
ATOM     30  O   LIG A   1      -9.684   6.045 133.339  0.00  0.00    -0.387 OA
ATOM     31  H   LIG A   1      -9.706   5.881 134.305  0.00  0.00    +0.210 HD
ENDBRANCH  24  30
BRANCH  25  32
ATOM     32  O   LIG A   1     -11.137   5.164 131.208  0.00  0.00    -0.386 OA
ATOM     33  H   LIG A   1     -11.621   4.359 130.931  0.00  0.00    +0.210 HD
ENDBRANCH  25  32
BRANCH  26  34
ATOM     34  O   LIG A   1      -9.194   7.134 130.996  0.00  0.00    -0.383 OA
ATOM     35  H   LIG A   1      -8.844   7.764 130.324  0.00  0.00    +0.210 HD
ENDBRANCH  26  34
BRANCH  29  36
ATOM     36  C   LIG A   1      -7.426   3.058 132.882  0.00  0.00    +0.190 C 
BRANCH  36  37
ATOM     37  O   LIG A   1      -8.481   2.244 133.380  0.00  0.00    -0.392 OA
ATOM     38  H   LIG A   1      -9.285   2.793 133.412  0.00  0.00    +0.209 HD
ENDBRANCH  36  37
ENDBRANCH  29  36
ENDBRANCH  23  27
ENDBRANCH   1  23
TORSDOF 10
ENDMDL
MODEL 8
REMARK VINA RESULT:      -6.8      3.896      5.318
REMARK  Name = NuBBE_1823
REMARK  12 active torsions:
REMARK  status: ('A' for Active; 'I' for Inactive)
REMARK    1  A    between atoms: O_1  and  C_2
REMARK    2  A    between atoms: C_4  and  O_5
REMARK    3  A    between atoms: C_6  and  O_8
REMARK    4  A    between atoms: C_9  and  O_11
REMARK    5  A    between atoms: O_11  and  C_12
REMARK    6  A    between atoms: C_14  and  O_15
REMARK    7  A    between atoms: C_20  and  O_21
REMARK    8  A    between atoms: C_22  and  C_24
REMARK    9  A    between atoms: C_26  and  C_27
REMARK   10  A    between atoms: C_29  and  O_30
REMARK   11  A    between atoms: C_33  and  C_35
REMARK   12  A    between atoms: C_35  and  O_36
REMARK                            x       y       z     vdW  Elec       q    Type
REMARK                         _______ _______ _______ _____ _____    ______ ____
ROOT
ATOM      1  C   LIG A   1      -7.825   2.805 128.913  0.00  0.00    +0.139 A 
ATOM      2  C   LIG A   1      -7.972   3.441 127.663  0.00  0.00    +0.091 A 
ATOM      3  C   LIG A   1      -7.954   2.691 126.496  0.00  0.00    +0.121 A 
ATOM      4  C   LIG A   1      -7.822   1.320 126.533  0.00  0.00    +0.054 A 
ATOM      5  C   LIG A   1      -7.732   0.653 127.757  0.00  0.00    -0.007 A 
ATOM      6  C   LIG A   1      -7.619  -0.737 127.725  0.00  0.00    +0.015 A 
ATOM      7  C   LIG A   1      -7.540  -1.494 128.896  0.00  0.00    -0.007 A 
ATOM      8  C   LIG A   1      -7.442  -2.992 128.782  0.00  0.00    +0.173 C 
ATOM      9  C   LIG A   1      -6.875  -3.617 130.061  0.00  0.00    +0.149 C 
ATOM     10  C   LIG A   1      -5.366  -3.457 130.192  0.00  0.00    +0.041 C 
ATOM     11  O   LIG A   1      -7.613  -3.134 131.196  0.00  0.00    -0.366 OA
ATOM     12  C   LIG A   1      -7.617  -1.704 131.412  0.00  0.00    +0.150 C 
ATOM     13  C   LIG A   1      -6.508  -1.376 132.414  0.00  0.00    +0.043 C 
ATOM     14  C   LIG A   1      -7.618  -0.858 130.145  0.00  0.00    +0.029 A 
ATOM     15  C   LIG A   1      -7.747   0.550 130.167  0.00  0.00    +0.134 A 
ATOM     16  C   LIG A   1      -7.767   1.366 128.986  0.00  0.00    +0.066 A 
ENDROOT
BRANCH   3  17
ATOM     17  O   LIG A   1      -8.057   3.259 125.261  0.00  0.00    -0.507 OA
ATOM     18  H   LIG A   1      -8.706   3.986 125.292  0.00  0.00    +0.292 HD
ENDBRANCH   3  17
BRANCH   8  19
ATOM     19  O   LIG A   1      -8.758  -3.483 128.543  0.00  0.00    -0.385 OA
ATOM     20  H   LIG A   1      -8.901  -4.187 129.203  0.00  0.00    +0.210 HD
ENDBRANCH   8  19
BRANCH  15  21
ATOM     21  O   LIG A   1      -7.926   1.139 131.399  0.00  0.00    -0.506 OA
ATOM     22  H   LIG A   1      -8.879   1.332 131.475  0.00  0.00    +0.292 HD
ENDBRANCH  15  21
BRANCH   1  23
ATOM     23  O   LIG A   1      -7.754   3.522 130.107  0.00  0.00    -0.460 OA
BRANCH  23  27
ATOM     24  C   LIG A   1      -8.705   5.719 133.027  0.00  0.00    +0.177 C 
ATOM     25  C   LIG A   1      -9.067   4.245 132.866  0.00  0.00    +0.180 C 
ATOM     26  C   LIG A   1      -9.734   4.002 131.506  0.00  0.00    +0.214 C 
ATOM     27  C   LIG A   1      -8.822   4.475 130.357  0.00  0.00    +0.339 C 
ATOM     28  O   LIG A   1      -8.336   5.813 130.550  0.00  0.00    -0.331 OA
ATOM     29  C   LIG A   1      -7.867   6.224 131.840  0.00  0.00    +0.179 C 
BRANCH  24  30
ATOM     30  O   LIG A   1      -9.938   6.474 133.092  0.00  0.00    -0.387 OA
ATOM     31  H   LIG A   1      -9.865   7.130 132.368  0.00  0.00    +0.210 HD
ENDBRANCH  24  30
BRANCH  25  32
ATOM     32  O   LIG A   1      -9.977   3.878 133.920  0.00  0.00    -0.386 OA
ATOM     33  H   LIG A   1     -10.522   4.671 134.099  0.00  0.00    +0.210 HD
ENDBRANCH  25  32
BRANCH  26  34
ATOM     34  O   LIG A   1     -11.002   4.695 131.475  0.00  0.00    -0.383 OA
ATOM     35  H   LIG A   1     -11.702   4.006 131.561  0.00  0.00    +0.210 HD
ENDBRANCH  26  34
BRANCH  29  36
ATOM     36  C   LIG A   1      -6.369   5.945 131.991  0.00  0.00    +0.190 C 
BRANCH  36  37
ATOM     37  O   LIG A   1      -5.753   5.805 130.716  0.00  0.00    -0.392 OA
ATOM     38  H   LIG A   1      -5.669   4.852 130.535  0.00  0.00    +0.209 HD
ENDBRANCH  36  37
ENDBRANCH  29  36
ENDBRANCH  23  27
ENDBRANCH   1  23
TORSDOF 10
ENDMDL
MODEL 9
REMARK VINA RESULT:      -6.8      2.813      5.637
REMARK  Name = NuBBE_1823
REMARK  12 active torsions:
REMARK  status: ('A' for Active; 'I' for Inactive)
REMARK    1  A    between atoms: O_1  and  C_2
REMARK    2  A    between atoms: C_4  and  O_5
REMARK    3  A    between atoms: C_6  and  O_8
REMARK    4  A    between atoms: C_9  and  O_11
REMARK    5  A    between atoms: O_11  and  C_12
REMARK    6  A    between atoms: C_14  and  O_15
REMARK    7  A    between atoms: C_20  and  O_21
REMARK    8  A    between atoms: C_22  and  C_24
REMARK    9  A    between atoms: C_26  and  C_27
REMARK   10  A    between atoms: C_29  and  O_30
REMARK   11  A    between atoms: C_33  and  C_35
REMARK   12  A    between atoms: C_35  and  O_36
REMARK                            x       y       z     vdW  Elec       q    Type
REMARK                         _______ _______ _______ _____ _____    ______ ____
ROOT
ATOM      1  C   LIG A   1      -3.999   3.919 127.836  0.00  0.00    +0.139 A 
ATOM      2  C   LIG A   1      -3.162   4.998 127.484  0.00  0.00    +0.091 A 
ATOM      3  C   LIG A   1      -2.480   5.697 128.469  0.00  0.00    +0.121 A 
ATOM      4  C   LIG A   1      -2.580   5.337 129.796  0.00  0.00    +0.054 A 
ATOM      5  C   LIG A   1      -3.355   4.238 130.173  0.00  0.00    -0.007 A 
ATOM      6  C   LIG A   1      -3.398   3.917 131.529  0.00  0.00    +0.015 A 
ATOM      7  C   LIG A   1      -4.131   2.826 132.002  0.00  0.00    -0.007 A 
ATOM      8  C   LIG A   1      -4.113   2.529 133.478  0.00  0.00    +0.173 C 
ATOM      9  C   LIG A   1      -5.307   1.663 133.891  0.00  0.00    +0.149 C 
ATOM     10  C   LIG A   1      -6.611   2.443 133.992  0.00  0.00    +0.041 C 
ATOM     11  O   LIG A   1      -5.382   0.511 133.033  0.00  0.00    -0.366 OA
ATOM     12  C   LIG A   1      -5.535   0.761 131.617  0.00  0.00    +0.150 C 
ATOM     13  C   LIG A   1      -7.027   0.691 131.285  0.00  0.00    +0.043 C 
ATOM     14  C   LIG A   1      -4.811   1.997 131.096  0.00  0.00    +0.029 A 
ATOM     15  C   LIG A   1      -4.749   2.322 129.721  0.00  0.00    +0.134 A 
ATOM     16  C   LIG A   1      -4.058   3.470 129.206  0.00  0.00    +0.066 A 
ENDROOT
BRANCH   3  17
ATOM     17  O   LIG A   1      -1.686   6.769 128.187  0.00  0.00    -0.507 OA
ATOM     18  H   LIG A   1      -0.838   6.677 128.660  0.00  0.00    +0.292 HD
ENDBRANCH   3  17
BRANCH   8  19
ATOM     19  O   LIG A   1      -2.895   1.841 133.754  0.00  0.00    -0.385 OA
ATOM     20  H   LIG A   1      -2.956   1.561 134.686  0.00  0.00    +0.210 HD
ENDBRANCH   8  19
BRANCH  15  21
ATOM     21  O   LIG A   1      -5.335   1.435 128.845  0.00  0.00    -0.506 OA
ATOM     22  H   LIG A   1      -4.983   0.554 129.069  0.00  0.00    +0.292 HD
ENDBRANCH  15  21
BRANCH   1  23
ATOM     23  O   LIG A   1      -4.769   3.238 126.894  0.00  0.00    -0.460 OA
BRANCH  23  27
ATOM     24  C   LIG A   1      -7.020   3.006 123.870  0.00  0.00    +0.177 C 
ATOM     25  C   LIG A   1      -5.779   3.889 123.993  0.00  0.00    +0.180 C 
ATOM     26  C   LIG A   1      -5.854   4.745 125.263  0.00  0.00    +0.214 C 
ATOM     27  C   LIG A   1      -6.026   3.859 126.512  0.00  0.00    +0.339 C 
ATOM     28  O   LIG A   1      -7.094   2.908 126.374  0.00  0.00    -0.331 OA
ATOM     29  C   LIG A   1      -7.250   2.182 125.148  0.00  0.00    +0.179 C 
BRANCH  24  30
ATOM     30  O   LIG A   1      -8.159   3.872 123.653  0.00  0.00    -0.387 OA
ATOM     31  H   LIG A   1      -8.237   3.939 122.679  0.00  0.00    +0.210 HD
ENDBRANCH  24  30
BRANCH  25  32
ATOM     32  O   LIG A   1      -5.709   4.745 122.838  0.00  0.00    -0.386 OA
ATOM     33  H   LIG A   1      -5.893   5.652 123.158  0.00  0.00    +0.210 HD
ENDBRANCH  25  32
BRANCH  26  34
ATOM     34  O   LIG A   1      -6.952   5.677 125.137  0.00  0.00    -0.383 OA
ATOM     35  H   LIG A   1      -7.452   5.416 124.329  0.00  0.00    +0.210 HD
ENDBRANCH  26  34
BRANCH  29  36
ATOM     36  C   LIG A   1      -6.451   0.876 125.181  0.00  0.00    +0.190 C 
BRANCH  36  37
ATOM     37  O   LIG A   1      -6.273   0.430 126.520  0.00  0.00    -0.392 OA
ATOM     38  H   LIG A   1      -5.499   0.897 126.884  0.00  0.00    +0.209 HD
ENDBRANCH  36  37
ENDBRANCH  29  36
ENDBRANCH  23  27
ENDBRANCH   1  23
TORSDOF 10
ENDMDL
