MODEL 1
REMARK VINA RESULT:      -5.7      0.000      0.000
REMARK  Name = NuBBE_171
REMARK  17 active torsions:
REMARK  status: ('A' for Active; 'I' for Inactive)
REMARK    1  A    between atoms: C_1  and  C_2
REMARK    2  A    between atoms: C_4  and  O_6
REMARK    3  A    between atoms: C_9  and  C_11
REMARK    4  A    between atoms: C_11  and  C_12
REMARK    5  A    between atoms: C_12  and  C_13
REMARK    6  A    between atoms: C_13  and  C_14
REMARK    7  A    between atoms: C_14  and  C_15
REMARK    8  A    between atoms: C_15  and  C_16
REMARK    9  A    between atoms: C_16  and  C_17
REMARK   10  A    between atoms: C_17  and  C_18
REMARK   11  A    between atoms: C_18  and  C_19
REMARK   12  A    between atoms: C_19  and  C_20
REMARK   13  A    between atoms: C_20  and  C_21
REMARK   14  A    between atoms: C_21  and  C_22
REMARK   15  A    between atoms: C_22  and  C_23
REMARK   16  A    between atoms: C_23  and  O_24
REMARK   17  A    between atoms: C_23  and  C_25
REMARK                            x       y       z     vdW  Elec       q    Type
REMARK                         _______ _______ _______ _____ _____    ______ ____
ROOT
ATOM      1  C   LIG A   1      -6.466  -2.809 124.079  0.00  0.00    +0.000 C 
ENDROOT
BRANCH   1   2
ATOM      2  C   LIG A   1      -5.701  -1.858 125.029  0.00  0.00    +0.002 C 
BRANCH   2   3
ATOM      3  C   LIG A   1      -6.028  -0.338 125.070  0.00  0.00    +0.019 C 
BRANCH   3   9
ATOM      4  C   LIG A   1      -8.249   3.006 122.200  0.00  0.00    +0.026 C 
ATOM      5  C   LIG A   1      -8.494   1.816 123.126  0.00  0.00    +0.079 C 
ATOM      6  C   LIG A   1      -9.532   2.177 124.212  0.00  0.00    +0.131 C 
ATOM      7  C   LIG A   1      -9.772   0.950 125.073  0.00  0.00    +0.034 C 
ATOM      8  C   LIG A   1      -8.449   0.380 125.649  0.00  0.00    +0.021 C 
ATOM      9  C   LIG A   1      -7.403   0.138 124.532  0.00  0.00    +0.054 C 
ATOM     10  N   LIG A   1      -7.259   1.372 123.776  0.00  0.00    -0.308 NA
ATOM     11  H   LIG A   1      -6.885   2.124 124.363  0.00  0.00    +0.122 HD
BRANCH   6  12
ATOM     12  O   LIG A   1      -9.108   3.311 124.939  0.00  0.00    -0.390 OA
ATOM     13  H   LIG A   1      -9.936   3.816 125.242  0.00  0.00    +0.210 HD
ENDBRANCH   6  12
ENDBRANCH   3   9
ENDBRANCH   2   3
ENDBRANCH   1   2
BRANCH   1  14
ATOM     14  C   LIG A   1      -7.512  -3.811 124.621  0.00  0.00    -0.000 C 
BRANCH  14  15
ATOM     15  C   LIG A   1      -8.959  -3.288 124.719  0.00  0.00    -0.000 C 
BRANCH  15  16
ATOM     16  C   LIG A   1      -9.412  -2.964 126.157  0.00  0.00    -0.000 C 
BRANCH  16  17
ATOM     17  C   LIG A   1      -8.913  -3.929 127.253  0.00  0.00    -0.000 C 
BRANCH  17  18
ATOM     18  C   LIG A   1      -8.201  -3.316 128.462  0.00  0.00    -0.000 C 
BRANCH  18  19
ATOM     19  C   LIG A   1      -7.680  -1.864 128.233  0.00  0.00    -0.000 C 
BRANCH  19  20
ATOM     20  C   LIG A   1      -6.431  -1.443 129.044  0.00  0.00    +0.000 C 
BRANCH  20  21
ATOM     21  C   LIG A   1      -5.117  -2.093 128.554  0.00  0.00    +0.002 C 
BRANCH  21  22
ATOM     22  C   LIG A   1      -4.617  -3.350 129.302  0.00  0.00    +0.031 C 
BRANCH  22  23
ATOM     23  C   LIG A   1      -3.427  -3.264 130.275  0.00  0.00    +0.111 C 
ATOM     24  C   LIG A   1      -3.757  -2.910 131.715  0.00  0.00    +0.037 C 
BRANCH  23  25
ATOM     25  O   LIG A   1      -2.557  -2.247 129.751  0.00  0.00    -0.392 OA
ATOM     26  H   LIG A   1      -1.725  -2.249 130.256  0.00  0.00    +0.210 HD
ENDBRANCH  23  25
ENDBRANCH  22  23
ENDBRANCH  21  22
ENDBRANCH  20  21
ENDBRANCH  19  20
ENDBRANCH  18  19
ENDBRANCH  17  18
ENDBRANCH  16  17
ENDBRANCH  15  16
ENDBRANCH  14  15
ENDBRANCH   1  14
TORSDOF 15
ENDMDL
MODEL 2
REMARK VINA RESULT:      -5.6      9.389     11.003
REMARK  Name = NuBBE_171
REMARK  17 active torsions:
REMARK  status: ('A' for Active; 'I' for Inactive)
REMARK    1  A    between atoms: C_1  and  C_2
REMARK    2  A    between atoms: C_4  and  O_6
REMARK    3  A    between atoms: C_9  and  C_11
REMARK    4  A    between atoms: C_11  and  C_12
REMARK    5  A    between atoms: C_12  and  C_13
REMARK    6  A    between atoms: C_13  and  C_14
REMARK    7  A    between atoms: C_14  and  C_15
REMARK    8  A    between atoms: C_15  and  C_16
REMARK    9  A    between atoms: C_16  and  C_17
REMARK   10  A    between atoms: C_17  and  C_18
REMARK   11  A    between atoms: C_18  and  C_19
REMARK   12  A    between atoms: C_19  and  C_20
REMARK   13  A    between atoms: C_20  and  C_21
REMARK   14  A    between atoms: C_21  and  C_22
REMARK   15  A    between atoms: C_22  and  C_23
REMARK   16  A    between atoms: C_23  and  O_24
REMARK   17  A    between atoms: C_23  and  C_25
REMARK                            x       y       z     vdW  Elec       q    Type
REMARK                         _______ _______ _______ _____ _____    ______ ____
ROOT
ATOM      1  C   LIG A   1      -9.749   2.035 132.078  0.00  0.00    +0.000 C 
ENDROOT
BRANCH   1   2
ATOM      2  C   LIG A   1      -9.876   2.747 130.711  0.00  0.00    +0.002 C 
BRANCH   2   3
ATOM      3  C   LIG A   1     -11.130   3.603 130.370  0.00  0.00    +0.019 C 
BRANCH   3   9
ATOM      4  C   LIG A   1     -12.899   7.830 128.541  0.00  0.00    +0.026 C 
ATOM      5  C   LIG A   1     -11.882   7.235 129.512  0.00  0.00    +0.079 C 
ATOM      6  C   LIG A   1     -10.470   7.799 129.234  0.00  0.00    +0.131 C 
ATOM      7  C   LIG A   1      -9.510   7.213 130.253  0.00  0.00    +0.034 C 
ATOM      8  C   LIG A   1      -9.563   5.663 130.272  0.00  0.00    +0.021 C 
ATOM      9  C   LIG A   1     -11.014   5.147 130.445  0.00  0.00    +0.054 C 
ATOM     10  N   LIG A   1     -11.837   5.774 129.423  0.00  0.00    -0.308 NA
ATOM     11  H   LIG A   1     -11.542   5.492 128.484  0.00  0.00    +0.122 HD
BRANCH   6  12
ATOM     12  O   LIG A   1     -10.100   7.555 127.893  0.00  0.00    -0.390 OA
ATOM     13  H   LIG A   1     -10.942   7.588 127.325  0.00  0.00    +0.210 HD
ENDBRANCH   6  12
ENDBRANCH   3   9
ENDBRANCH   2   3
ENDBRANCH   1   2
BRANCH   1  14
ATOM     14  C   LIG A   1      -8.746   2.530 133.146  0.00  0.00    -0.000 C 
BRANCH  14  15
ATOM     15  C   LIG A   1      -9.154   3.803 133.915  0.00  0.00    -0.000 C 
BRANCH  15  16
ATOM     16  C   LIG A   1      -8.002   4.808 134.117  0.00  0.00    -0.000 C 
BRANCH  16  17
ATOM     17  C   LIG A   1      -6.691   4.224 134.682  0.00  0.00    -0.000 C 
BRANCH  17  18
ATOM     18  C   LIG A   1      -6.110   4.879 135.939  0.00  0.00    -0.000 C 
BRANCH  18  19
ATOM     19  C   LIG A   1      -7.021   5.975 136.571  0.00  0.00    -0.000 C 
BRANCH  19  20
ATOM     20  C   LIG A   1      -6.304   7.108 137.343  0.00  0.00    +0.000 C 
BRANCH  20  21
ATOM     21  C   LIG A   1      -7.196   7.819 138.387  0.00  0.00    +0.002 C 
BRANCH  21  22
ATOM     22  C   LIG A   1      -8.719   7.853 138.122  0.00  0.00    +0.031 C 
BRANCH  22  23
ATOM     23  C   LIG A   1      -9.377   9.090 137.483  0.00  0.00    +0.111 C 
ATOM     24  C   LIG A   1     -10.322   9.884 138.368  0.00  0.00    +0.037 C 
BRANCH  23  25
ATOM     25  O   LIG A   1     -10.120   8.607 136.352  0.00  0.00    -0.392 OA
ATOM     26  H   LIG A   1     -11.046   8.898 136.432  0.00  0.00    +0.210 HD
ENDBRANCH  23  25
ENDBRANCH  22  23
ENDBRANCH  21  22
ENDBRANCH  20  21
ENDBRANCH  19  20
ENDBRANCH  18  19
ENDBRANCH  17  18
ENDBRANCH  16  17
ENDBRANCH  15  16
ENDBRANCH  14  15
ENDBRANCH   1  14
TORSDOF 15
ENDMDL
MODEL 3
REMARK VINA RESULT:      -5.4      2.320      3.337
REMARK  Name = NuBBE_171
REMARK  17 active torsions:
REMARK  status: ('A' for Active; 'I' for Inactive)
REMARK    1  A    between atoms: C_1  and  C_2
REMARK    2  A    between atoms: C_4  and  O_6
REMARK    3  A    between atoms: C_9  and  C_11
REMARK    4  A    between atoms: C_11  and  C_12
REMARK    5  A    between atoms: C_12  and  C_13
REMARK    6  A    between atoms: C_13  and  C_14
REMARK    7  A    between atoms: C_14  and  C_15
REMARK    8  A    between atoms: C_15  and  C_16
REMARK    9  A    between atoms: C_16  and  C_17
REMARK   10  A    between atoms: C_17  and  C_18
REMARK   11  A    between atoms: C_18  and  C_19
REMARK   12  A    between atoms: C_19  and  C_20
REMARK   13  A    between atoms: C_20  and  C_21
REMARK   14  A    between atoms: C_21  and  C_22
REMARK   15  A    between atoms: C_22  and  C_23
REMARK   16  A    between atoms: C_23  and  O_24
REMARK   17  A    between atoms: C_23  and  C_25
REMARK                            x       y       z     vdW  Elec       q    Type
REMARK                         _______ _______ _______ _____ _____    ______ ____
ROOT
ATOM      1  C   LIG A   1      -6.416  -3.306 124.440  0.00  0.00    +0.000 C 
ENDROOT
BRANCH   1   2
ATOM      2  C   LIG A   1      -6.329  -1.896 123.809  0.00  0.00    +0.002 C 
BRANCH   2   3
ATOM      3  C   LIG A   1      -6.586  -0.622 124.664  0.00  0.00    +0.019 C 
BRANCH   3   9
ATOM      4  C   LIG A   1      -6.397   4.300 124.962  0.00  0.00    +0.026 C 
ATOM      5  C   LIG A   1      -6.884   3.133 124.106  0.00  0.00    +0.079 C 
ATOM      6  C   LIG A   1      -8.385   3.291 123.775  0.00  0.00    +0.131 C 
ATOM      7  C   LIG A   1      -8.805   2.133 122.887  0.00  0.00    +0.034 C 
ATOM      8  C   LIG A   1      -8.454   0.762 123.520  0.00  0.00    +0.021 C 
ATOM      9  C   LIG A   1      -6.962   0.694 123.934  0.00  0.00    +0.054 C 
ATOM     10  N   LIG A   1      -6.677   1.846 124.774  0.00  0.00    -0.308 NA
ATOM     11  H   LIG A   1      -7.218   1.814 125.643  0.00  0.00    +0.122 HD
BRANCH   6  12
ATOM     12  O   LIG A   1      -9.141   3.403 124.963  0.00  0.00    -0.390 OA
ATOM     13  H   LIG A   1      -9.044   4.355 125.307  0.00  0.00    +0.210 HD
ENDBRANCH   6  12
ENDBRANCH   3   9
ENDBRANCH   2   3
ENDBRANCH   1   2
BRANCH   1  14
ATOM     14  C   LIG A   1      -7.767  -4.049 124.551  0.00  0.00    -0.000 C 
BRANCH  14  15
ATOM     15  C   LIG A   1      -9.024  -3.158 124.616  0.00  0.00    -0.000 C 
BRANCH  15  16
ATOM     16  C   LIG A   1      -9.406  -2.719 126.043  0.00  0.00    -0.000 C 
BRANCH  16  17
ATOM     17  C   LIG A   1      -9.073  -3.722 127.168  0.00  0.00    -0.000 C 
BRANCH  17  18
ATOM     18  C   LIG A   1      -8.278  -3.198 128.367  0.00  0.00    -0.000 C 
BRANCH  18  19
ATOM     19  C   LIG A   1      -6.894  -2.580 128.001  0.00  0.00    -0.000 C 
BRANCH  19  20
ATOM     20  C   LIG A   1      -6.392  -1.427 128.901  0.00  0.00    +0.000 C 
BRANCH  20  21
ATOM     21  C   LIG A   1      -7.385  -0.248 129.023  0.00  0.00    +0.002 C 
BRANCH  21  22
ATOM     22  C   LIG A   1      -7.023   1.070 128.299  0.00  0.00    +0.031 C 
BRANCH  22  23
ATOM     23  C   LIG A   1      -8.080   2.172 128.103  0.00  0.00    +0.111 C 
ATOM     24  C   LIG A   1      -8.920   2.526 129.318  0.00  0.00    +0.037 C 
BRANCH  23  25
ATOM     25  O   LIG A   1      -8.961   1.701 127.070  0.00  0.00    -0.392 OA
ATOM     26  H   LIG A   1      -8.882   2.284 126.294  0.00  0.00    +0.210 HD
ENDBRANCH  23  25
ENDBRANCH  22  23
ENDBRANCH  21  22
ENDBRANCH  20  21
ENDBRANCH  19  20
ENDBRANCH  18  19
ENDBRANCH  17  18
ENDBRANCH  16  17
ENDBRANCH  15  16
ENDBRANCH  14  15
ENDBRANCH   1  14
TORSDOF 15
ENDMDL
MODEL 4
REMARK VINA RESULT:      -5.4      1.562      2.221
REMARK  Name = NuBBE_171
REMARK  17 active torsions:
REMARK  status: ('A' for Active; 'I' for Inactive)
REMARK    1  A    between atoms: C_1  and  C_2
REMARK    2  A    between atoms: C_4  and  O_6
REMARK    3  A    between atoms: C_9  and  C_11
REMARK    4  A    between atoms: C_11  and  C_12
REMARK    5  A    between atoms: C_12  and  C_13
REMARK    6  A    between atoms: C_13  and  C_14
REMARK    7  A    between atoms: C_14  and  C_15
REMARK    8  A    between atoms: C_15  and  C_16
REMARK    9  A    between atoms: C_16  and  C_17
REMARK   10  A    between atoms: C_17  and  C_18
REMARK   11  A    between atoms: C_18  and  C_19
REMARK   12  A    between atoms: C_19  and  C_20
REMARK   13  A    between atoms: C_20  and  C_21
REMARK   14  A    between atoms: C_21  and  C_22
REMARK   15  A    between atoms: C_22  and  C_23
REMARK   16  A    between atoms: C_23  and  O_24
REMARK   17  A    between atoms: C_23  and  C_25
REMARK                            x       y       z     vdW  Elec       q    Type
REMARK                         _______ _______ _______ _____ _____    ______ ____
ROOT
ATOM      1  C   LIG A   1      -5.431  -2.149 125.918  0.00  0.00    +0.000 C 
ENDROOT
BRANCH   1   2
ATOM      2  C   LIG A   1      -5.625  -0.696 126.410  0.00  0.00    +0.002 C 
BRANCH   2   3
ATOM      3  C   LIG A   1      -7.046  -0.070 126.508  0.00  0.00    +0.019 C 
BRANCH   3   9
ATOM      4  C   LIG A   1      -6.473   3.132 122.798  0.00  0.00    +0.026 C 
ATOM      5  C   LIG A   1      -7.417   2.091 123.396  0.00  0.00    +0.079 C 
ATOM      6  C   LIG A   1      -8.832   2.685 123.583  0.00  0.00    +0.131 C 
ATOM      7  C   LIG A   1      -9.739   1.599 124.135  0.00  0.00    +0.034 C 
ATOM      8  C   LIG A   1      -9.160   0.963 125.426  0.00  0.00    +0.021 C 
ATOM      9  C   LIG A   1      -7.702   0.482 125.216  0.00  0.00    +0.054 C 
ATOM     10  N   LIG A   1      -6.934   1.597 124.687  0.00  0.00    -0.308 NA
ATOM     11  H   LIG A   1      -6.888   2.368 125.359  0.00  0.00    +0.122 HD
BRANCH   6  12
ATOM     12  O   LIG A   1      -8.775   3.844 124.387  0.00  0.00    -0.390 OA
ATOM     13  H   LIG A   1      -8.891   4.651 123.780  0.00  0.00    +0.210 HD
ENDBRANCH   6  12
ENDBRANCH   3   9
ENDBRANCH   2   3
ENDBRANCH   1   2
BRANCH   1  14
ATOM     14  C   LIG A   1      -5.651  -2.527 124.434  0.00  0.00    -0.000 C 
BRANCH  14  15
ATOM     15  C   LIG A   1      -6.767  -3.555 124.158  0.00  0.00    -0.000 C 
BRANCH  15  16
ATOM     16  C   LIG A   1      -8.129  -2.921 123.812  0.00  0.00    -0.000 C 
BRANCH  16  17
ATOM     17  C   LIG A   1      -9.318  -3.357 124.694  0.00  0.00    -0.000 C 
BRANCH  17  18
ATOM     18  C   LIG A   1      -9.398  -2.774 126.108  0.00  0.00    -0.000 C 
BRANCH  18  19
ATOM     19  C   LIG A   1      -8.920  -3.745 127.231  0.00  0.00    -0.000 C 
BRANCH  19  20
ATOM     20  C   LIG A   1      -8.476  -3.094 128.563  0.00  0.00    +0.000 C 
BRANCH  20  21
ATOM     21  C   LIG A   1      -7.030  -3.447 128.982  0.00  0.00    +0.002 C 
BRANCH  21  22
ATOM     22  C   LIG A   1      -6.410  -2.652 130.154  0.00  0.00    +0.031 C 
BRANCH  22  23
ATOM     23  C   LIG A   1      -6.303  -3.277 131.557  0.00  0.00    +0.111 C 
ATOM     24  C   LIG A   1      -7.444  -2.982 132.516  0.00  0.00    +0.037 C 
BRANCH  23  25
ATOM     25  O   LIG A   1      -5.090  -2.764 132.131  0.00  0.00    -0.392 OA
ATOM     26  H   LIG A   1      -4.328  -3.159 131.672  0.00  0.00    +0.210 HD
ENDBRANCH  23  25
ENDBRANCH  22  23
ENDBRANCH  21  22
ENDBRANCH  20  21
ENDBRANCH  19  20
ENDBRANCH  18  19
ENDBRANCH  17  18
ENDBRANCH  16  17
ENDBRANCH  15  16
ENDBRANCH  14  15
ENDBRANCH   1  14
TORSDOF 15
ENDMDL
MODEL 5
REMARK VINA RESULT:      -5.3      5.444      7.358
REMARK  Name = NuBBE_171
REMARK  17 active torsions:
REMARK  status: ('A' for Active; 'I' for Inactive)
REMARK    1  A    between atoms: C_1  and  C_2
REMARK    2  A    between atoms: C_4  and  O_6
REMARK    3  A    between atoms: C_9  and  C_11
REMARK    4  A    between atoms: C_11  and  C_12
REMARK    5  A    between atoms: C_12  and  C_13
REMARK    6  A    between atoms: C_13  and  C_14
REMARK    7  A    between atoms: C_14  and  C_15
REMARK    8  A    between atoms: C_15  and  C_16
REMARK    9  A    between atoms: C_16  and  C_17
REMARK   10  A    between atoms: C_17  and  C_18
REMARK   11  A    between atoms: C_18  and  C_19
REMARK   12  A    between atoms: C_19  and  C_20
REMARK   13  A    between atoms: C_20  and  C_21
REMARK   14  A    between atoms: C_21  and  C_22
REMARK   15  A    between atoms: C_22  and  C_23
REMARK   16  A    between atoms: C_23  and  O_24
REMARK   17  A    between atoms: C_23  and  C_25
REMARK                            x       y       z     vdW  Elec       q    Type
REMARK                         _______ _______ _______ _____ _____    ______ ____
ROOT
ATOM      1  C   LIG A   1      -8.049   2.994 129.021  0.00  0.00    +0.000 C 
ENDROOT
BRANCH   1   2
ATOM      2  C   LIG A   1      -9.120   3.624 129.942  0.00  0.00    +0.002 C 
BRANCH   2   3
ATOM      3  C   LIG A   1      -9.468   5.137 129.843  0.00  0.00    +0.019 C 
BRANCH   3   9
ATOM      4  C   LIG A   1     -13.441   7.056 127.632  0.00  0.00    +0.026 C 
ATOM      5  C   LIG A   1     -12.894   6.548 128.964  0.00  0.00    +0.079 C 
ATOM      6  C   LIG A   1     -13.102   7.602 130.074  0.00  0.00    +0.131 C 
ATOM      7  C   LIG A   1     -12.585   7.030 131.382  0.00  0.00    +0.034 C 
ATOM      8  C   LIG A   1     -11.118   6.543 131.261  0.00  0.00    +0.021 C 
ATOM      9  C   LIG A   1     -10.940   5.572 130.066  0.00  0.00    +0.054 C 
ATOM     10  N   LIG A   1     -11.469   6.222 128.878  0.00  0.00    -0.308 NA
ATOM     11  H   LIG A   1     -10.933   7.064 128.646  0.00  0.00    +0.122 HD
BRANCH   6  12
ATOM     12  O   LIG A   1     -12.500   8.826 129.708  0.00  0.00    -0.390 OA
ATOM     13  H   LIG A   1     -13.235   9.460 129.408  0.00  0.00    +0.210 HD
ENDBRANCH   6  12
ENDBRANCH   3   9
ENDBRANCH   2   3
ENDBRANCH   1   2
BRANCH   1  14
ATOM     14  C   LIG A   1      -8.331   1.685 128.246  0.00  0.00    -0.000 C 
BRANCH  14  15
ATOM     15  C   LIG A   1      -7.356   0.521 128.513  0.00  0.00    -0.000 C 
BRANCH  15  16
ATOM     16  C   LIG A   1      -7.224   0.145 130.003  0.00  0.00    -0.000 C 
BRANCH  16  17
ATOM     17  C   LIG A   1      -7.608  -1.305 130.367  0.00  0.00    -0.000 C 
BRANCH  17  18
ATOM     18  C   LIG A   1      -7.487  -2.364 129.268  0.00  0.00    -0.000 C 
BRANCH  18  19
ATOM     19  C   LIG A   1      -8.693  -3.350 129.189  0.00  0.00    -0.000 C 
BRANCH  19  20
ATOM     20  C   LIG A   1      -8.942  -4.028 127.821  0.00  0.00    +0.000 C 
BRANCH  20  21
ATOM     21  C   LIG A   1      -8.432  -3.209 126.613  0.00  0.00    +0.002 C 
BRANCH  21  22
ATOM     22  C   LIG A   1      -9.425  -2.943 125.458  0.00  0.00    +0.031 C 
BRANCH  22  23
ATOM     23  C   LIG A   1      -9.062  -3.315 124.009  0.00  0.00    +0.111 C 
ATOM     24  C   LIG A   1      -8.161  -2.342 123.267  0.00  0.00    +0.037 C 
BRANCH  23  25
ATOM     25  O   LIG A   1     -10.306  -3.408 123.296  0.00  0.00    -0.392 OA
ATOM     26  H   LIG A   1     -10.449  -4.331 123.023  0.00  0.00    +0.210 HD
ENDBRANCH  23  25
ENDBRANCH  22  23
ENDBRANCH  21  22
ENDBRANCH  20  21
ENDBRANCH  19  20
ENDBRANCH  18  19
ENDBRANCH  17  18
ENDBRANCH  16  17
ENDBRANCH  15  16
ENDBRANCH  14  15
ENDBRANCH   1  14
TORSDOF 15
ENDMDL
MODEL 6
REMARK VINA RESULT:      -5.3      1.932      6.915
REMARK  Name = NuBBE_171
REMARK  17 active torsions:
REMARK  status: ('A' for Active; 'I' for Inactive)
REMARK    1  A    between atoms: C_1  and  C_2
REMARK    2  A    between atoms: C_4  and  O_6
REMARK    3  A    between atoms: C_9  and  C_11
REMARK    4  A    between atoms: C_11  and  C_12
REMARK    5  A    between atoms: C_12  and  C_13
REMARK    6  A    between atoms: C_13  and  C_14
REMARK    7  A    between atoms: C_14  and  C_15
REMARK    8  A    between atoms: C_15  and  C_16
REMARK    9  A    between atoms: C_16  and  C_17
REMARK   10  A    between atoms: C_17  and  C_18
REMARK   11  A    between atoms: C_18  and  C_19
REMARK   12  A    between atoms: C_19  and  C_20
REMARK   13  A    between atoms: C_20  and  C_21
REMARK   14  A    between atoms: C_21  and  C_22
REMARK   15  A    between atoms: C_22  and  C_23
REMARK   16  A    between atoms: C_23  and  O_24
REMARK   17  A    between atoms: C_23  and  C_25
REMARK                            x       y       z     vdW  Elec       q    Type
REMARK                         _______ _______ _______ _____ _____    ______ ____
ROOT
ATOM      1  C   LIG A   1      -8.584  -2.730 126.746  0.00  0.00    +0.000 C 
ENDROOT
BRANCH   1   2
ATOM      2  C   LIG A   1      -8.527  -3.745 127.911  0.00  0.00    +0.002 C 
BRANCH   2   3
ATOM      3  C   LIG A   1      -8.577  -3.266 129.391  0.00  0.00    +0.019 C 
BRANCH   3   9
ATOM      4  C   LIG A   1      -4.836  -0.061 129.682  0.00  0.00    +0.026 C 
ATOM      5  C   LIG A   1      -5.378  -1.379 130.231  0.00  0.00    +0.079 C 
ATOM      6  C   LIG A   1      -4.311  -2.492 130.126  0.00  0.00    +0.131 C 
ATOM      7  C   LIG A   1      -4.884  -3.763 130.726  0.00  0.00    +0.034 C 
ATOM      8  C   LIG A   1      -6.241  -4.147 130.081  0.00  0.00    +0.021 C 
ATOM      9  C   LIG A   1      -7.239  -2.962 130.114  0.00  0.00    +0.054 C 
ATOM     10  N   LIG A   1      -6.585  -1.808 129.520  0.00  0.00    -0.308 NA
ATOM     11  H   LIG A   1      -6.367  -1.972 128.533  0.00  0.00    +0.122 HD
BRANCH   6  12
ATOM     12  O   LIG A   1      -3.881  -2.634 128.788  0.00  0.00    -0.390 OA
ATOM     13  H   LIG A   1      -4.178  -3.549 128.460  0.00  0.00    +0.210 HD
ENDBRANCH   6  12
ENDBRANCH   3   9
ENDBRANCH   2   3
ENDBRANCH   1   2
BRANCH   1  14
ATOM     14  C   LIG A   1      -9.454  -2.997 125.495  0.00  0.00    -0.000 C 
BRANCH  14  15
ATOM     15  C   LIG A   1      -8.689  -3.350 124.204  0.00  0.00    -0.000 C 
BRANCH  15  16
ATOM     16  C   LIG A   1      -7.178  -3.576 124.415  0.00  0.00    -0.000 C 
BRANCH  16  17
ATOM     17  C   LIG A   1      -6.245  -2.528 123.771  0.00  0.00    -0.000 C 
BRANCH  17  18
ATOM     18  C   LIG A   1      -6.570  -1.052 124.012  0.00  0.00    -0.000 C 
BRANCH  18  19
ATOM     19  C   LIG A   1      -5.934  -0.457 125.306  0.00  0.00    -0.000 C 
BRANCH  19  20
ATOM     20  C   LIG A   1      -6.905   0.207 126.310  0.00  0.00    +0.000 C 
BRANCH  20  21
ATOM     21  C   LIG A   1      -7.808   1.295 125.685  0.00  0.00    +0.002 C 
BRANCH  21  22
ATOM     22  C   LIG A   1      -9.279   0.923 125.389  0.00  0.00    +0.031 C 
BRANCH  22  23
ATOM     23  C   LIG A   1      -9.846   1.037 123.962  0.00  0.00    +0.111 C 
ATOM     24  C   LIG A   1      -9.191   2.066 123.057  0.00  0.00    +0.037 C 
BRANCH  23  25
ATOM     25  O   LIG A   1     -11.232   1.386 124.110  0.00  0.00    -0.392 OA
ATOM     26  H   LIG A   1     -11.383   1.714 125.014  0.00  0.00    +0.210 HD
ENDBRANCH  23  25
ENDBRANCH  22  23
ENDBRANCH  21  22
ENDBRANCH  20  21
ENDBRANCH  19  20
ENDBRANCH  18  19
ENDBRANCH  17  18
ENDBRANCH  16  17
ENDBRANCH  15  16
ENDBRANCH  14  15
ENDBRANCH   1  14
TORSDOF 15
ENDMDL
MODEL 7
REMARK VINA RESULT:      -5.3      7.401      9.710
REMARK  Name = NuBBE_171
REMARK  17 active torsions:
REMARK  status: ('A' for Active; 'I' for Inactive)
REMARK    1  A    between atoms: C_1  and  C_2
REMARK    2  A    between atoms: C_4  and  O_6
REMARK    3  A    between atoms: C_9  and  C_11
REMARK    4  A    between atoms: C_11  and  C_12
REMARK    5  A    between atoms: C_12  and  C_13
REMARK    6  A    between atoms: C_13  and  C_14
REMARK    7  A    between atoms: C_14  and  C_15
REMARK    8  A    between atoms: C_15  and  C_16
REMARK    9  A    between atoms: C_16  and  C_17
REMARK   10  A    between atoms: C_17  and  C_18
REMARK   11  A    between atoms: C_18  and  C_19
REMARK   12  A    between atoms: C_19  and  C_20
REMARK   13  A    between atoms: C_20  and  C_21
REMARK   14  A    between atoms: C_21  and  C_22
REMARK   15  A    between atoms: C_22  and  C_23
REMARK   16  A    between atoms: C_23  and  O_24
REMARK   17  A    between atoms: C_23  and  C_25
REMARK                            x       y       z     vdW  Elec       q    Type
REMARK                         _______ _______ _______ _____ _____    ______ ____
ROOT
ATOM      1  C   LIG A   1      -6.991   5.891 131.567  0.00  0.00    +0.000 C 
ENDROOT
BRANCH   1   2
ATOM      2  C   LIG A   1      -8.482   5.636 131.242  0.00  0.00    +0.002 C 
BRANCH   2   3
ATOM      3  C   LIG A   1      -9.477   6.822 131.082  0.00  0.00    +0.019 C 
BRANCH   3   9
ATOM      4  C   LIG A   1     -10.862   7.833 126.455  0.00  0.00    +0.026 C 
ATOM      5  C   LIG A   1     -11.319   7.210 127.772  0.00  0.00    +0.079 C 
ATOM      6  C   LIG A   1     -12.665   7.821 128.223  0.00  0.00    +0.131 C 
ATOM      7  C   LIG A   1     -13.095   7.137 129.509  0.00  0.00    +0.034 C 
ATOM      8  C   LIG A   1     -11.993   7.204 130.597  0.00  0.00    +0.021 C 
ATOM      9  C   LIG A   1     -10.636   6.681 130.061  0.00  0.00    +0.054 C 
ATOM     10  N   LIG A   1     -10.330   7.402 128.835  0.00  0.00    -0.308 NA
ATOM     11  H   LIG A   1     -10.202   8.402 129.015  0.00  0.00    +0.122 HD
BRANCH   6  12
ATOM     12  O   LIG A   1     -12.556   9.225 128.332  0.00  0.00    -0.390 OA
ATOM     13  H   LIG A   1     -13.486   9.620 128.230  0.00  0.00    +0.210 HD
ENDBRANCH   6  12
ENDBRANCH   3   9
ENDBRANCH   2   3
ENDBRANCH   1   2
BRANCH   1  14
ATOM     14  C   LIG A   1      -6.156   6.902 130.746  0.00  0.00    -0.000 C 
BRANCH  14  15
ATOM     15  C   LIG A   1      -4.649   6.949 131.068  0.00  0.00    -0.000 C 
BRANCH  15  16
ATOM     16  C   LIG A   1      -3.868   8.001 130.254  0.00  0.00    -0.000 C 
BRANCH  16  17
ATOM     17  C   LIG A   1      -3.263   7.508 128.923  0.00  0.00    -0.000 C 
BRANCH  17  18
ATOM     18  C   LIG A   1      -2.215   6.394 128.994  0.00  0.00    -0.000 C 
BRANCH  18  19
ATOM     19  C   LIG A   1      -2.565   5.127 128.155  0.00  0.00    -0.000 C 
BRANCH  19  20
ATOM     20  C   LIG A   1      -3.607   4.160 128.766  0.00  0.00    +0.000 C 
BRANCH  20  21
ATOM     21  C   LIG A   1      -5.007   4.256 128.118  0.00  0.00    +0.002 C 
BRANCH  21  22
ATOM     22  C   LIG A   1      -5.151   5.127 126.849  0.00  0.00    +0.031 C 
BRANCH  22  23
ATOM     23  C   LIG A   1      -6.083   4.695 125.702  0.00  0.00    +0.111 C 
ATOM     24  C   LIG A   1      -5.546   3.628 124.763  0.00  0.00    +0.037 C 
BRANCH  23  25
ATOM     25  O   LIG A   1      -6.344   5.879 124.932  0.00  0.00    -0.392 OA
ATOM     26  H   LIG A   1      -6.165   6.663 125.481  0.00  0.00    +0.210 HD
ENDBRANCH  23  25
ENDBRANCH  22  23
ENDBRANCH  21  22
ENDBRANCH  20  21
ENDBRANCH  19  20
ENDBRANCH  18  19
ENDBRANCH  17  18
ENDBRANCH  16  17
ENDBRANCH  15  16
ENDBRANCH  14  15
ENDBRANCH   1  14
TORSDOF 15
ENDMDL
MODEL 8
REMARK VINA RESULT:      -5.2      7.439      8.855
REMARK  Name = NuBBE_171
REMARK  17 active torsions:
REMARK  status: ('A' for Active; 'I' for Inactive)
REMARK    1  A    between atoms: C_1  and  C_2
REMARK    2  A    between atoms: C_4  and  O_6
REMARK    3  A    between atoms: C_9  and  C_11
REMARK    4  A    between atoms: C_11  and  C_12
REMARK    5  A    between atoms: C_12  and  C_13
REMARK    6  A    between atoms: C_13  and  C_14
REMARK    7  A    between atoms: C_14  and  C_15
REMARK    8  A    between atoms: C_15  and  C_16
REMARK    9  A    between atoms: C_16  and  C_17
REMARK   10  A    between atoms: C_17  and  C_18
REMARK   11  A    between atoms: C_18  and  C_19
REMARK   12  A    between atoms: C_19  and  C_20
REMARK   13  A    between atoms: C_20  and  C_21
REMARK   14  A    between atoms: C_21  and  C_22
REMARK   15  A    between atoms: C_22  and  C_23
REMARK   16  A    between atoms: C_23  and  O_24
REMARK   17  A    between atoms: C_23  and  C_25
REMARK                            x       y       z     vdW  Elec       q    Type
REMARK                         _______ _______ _______ _____ _____    ______ ____
ROOT
ATOM      1  C   LIG A   1      -9.062   2.894 130.535  0.00  0.00    +0.000 C 
ENDROOT
BRANCH   1   2
ATOM      2  C   LIG A   1      -8.640   3.919 129.457  0.00  0.00    +0.002 C 
BRANCH   2   3
ATOM      3  C   LIG A   1      -9.127   5.396 129.525  0.00  0.00    +0.019 C 
BRANCH   3   9
ATOM      4  C   LIG A   1     -13.463   7.035 127.835  0.00  0.00    +0.026 C 
ATOM      5  C   LIG A   1     -12.740   6.508 129.072  0.00  0.00    +0.079 C 
ATOM      6  C   LIG A   1     -12.931   7.472 130.265  0.00  0.00    +0.131 C 
ATOM      7  C   LIG A   1     -12.234   6.880 131.477  0.00  0.00    +0.034 C 
ATOM      8  C   LIG A   1     -10.748   6.549 131.184  0.00  0.00    +0.021 C 
ATOM      9  C   LIG A   1     -10.602   5.670 129.916  0.00  0.00    +0.054 C 
ATOM     10  N   LIG A   1     -11.306   6.331 128.829  0.00  0.00    -0.308 NA
ATOM     11  H   LIG A   1     -10.878   7.234 128.604  0.00  0.00    +0.122 HD
BRANCH   6  12
ATOM     12  O   LIG A   1     -12.486   8.768 129.925  0.00  0.00    -0.390 OA
ATOM     13  H   LIG A   1     -11.825   8.681 129.158  0.00  0.00    +0.210 HD
ENDBRANCH   6  12
ENDBRANCH   3   9
ENDBRANCH   2   3
ENDBRANCH   1   2
BRANCH   1  14
ATOM     14  C   LIG A   1      -8.017   2.246 131.474  0.00  0.00    -0.000 C 
BRANCH  14  15
ATOM     15  C   LIG A   1      -8.389   2.201 132.969  0.00  0.00    -0.000 C 
BRANCH  15  16
ATOM     16  C   LIG A   1      -9.126   3.461 133.468  0.00  0.00    -0.000 C 
BRANCH  16  17
ATOM     17  C   LIG A   1      -8.412   4.265 134.575  0.00  0.00    -0.000 C 
BRANCH  17  18
ATOM     18  C   LIG A   1      -7.981   5.696 134.241  0.00  0.00    -0.000 C 
BRANCH  18  19
ATOM     19  C   LIG A   1      -7.645   5.932 132.737  0.00  0.00    -0.000 C 
BRANCH  19  20
ATOM     20  C   LIG A   1      -6.174   5.705 132.314  0.00  0.00    +0.000 C 
BRANCH  20  21
ATOM     21  C   LIG A   1      -5.769   6.452 131.023  0.00  0.00    +0.002 C 
BRANCH  21  22
ATOM     22  C   LIG A   1      -5.024   5.647 129.933  0.00  0.00    +0.031 C 
BRANCH  22  23
ATOM     23  C   LIG A   1      -3.582   5.160 130.166  0.00  0.00    +0.111 C 
ATOM     24  C   LIG A   1      -2.473   6.070 129.665  0.00  0.00    +0.037 C 
BRANCH  23  25
ATOM     25  O   LIG A   1      -3.471   3.900 129.485  0.00  0.00    -0.392 OA
ATOM     26  H   LIG A   1      -3.661   4.032 128.539  0.00  0.00    +0.210 HD
ENDBRANCH  23  25
ENDBRANCH  22  23
ENDBRANCH  21  22
ENDBRANCH  20  21
ENDBRANCH  19  20
ENDBRANCH  18  19
ENDBRANCH  17  18
ENDBRANCH  16  17
ENDBRANCH  15  16
ENDBRANCH  14  15
ENDBRANCH   1  14
TORSDOF 15
ENDMDL
MODEL 9
REMARK VINA RESULT:      -5.2      4.494      7.385
REMARK  Name = NuBBE_171
REMARK  17 active torsions:
REMARK  status: ('A' for Active; 'I' for Inactive)
REMARK    1  A    between atoms: C_1  and  C_2
REMARK    2  A    between atoms: C_4  and  O_6
REMARK    3  A    between atoms: C_9  and  C_11
REMARK    4  A    between atoms: C_11  and  C_12
REMARK    5  A    between atoms: C_12  and  C_13
REMARK    6  A    between atoms: C_13  and  C_14
REMARK    7  A    between atoms: C_14  and  C_15
REMARK    8  A    between atoms: C_15  and  C_16
REMARK    9  A    between atoms: C_16  and  C_17
REMARK   10  A    between atoms: C_17  and  C_18
REMARK   11  A    between atoms: C_18  and  C_19
REMARK   12  A    between atoms: C_19  and  C_20
REMARK   13  A    between atoms: C_20  and  C_21
REMARK   14  A    between atoms: C_21  and  C_22
REMARK   15  A    between atoms: C_22  and  C_23
REMARK   16  A    between atoms: C_23  and  O_24
REMARK   17  A    between atoms: C_23  and  C_25
REMARK                            x       y       z     vdW  Elec       q    Type
REMARK                         _______ _______ _______ _____ _____    ______ ____
ROOT
ATOM      1  C   LIG A   1      -7.698  -0.600 129.386  0.00  0.00    +0.000 C 
ENDROOT
BRANCH   1   2
ATOM      2  C   LIG A   1      -8.000  -0.910 130.871  0.00  0.00    +0.002 C 
BRANCH   2   3
ATOM      3  C   LIG A   1      -8.974  -0.015 131.691  0.00  0.00    +0.019 C 
BRANCH   3   9
ATOM      4  C   LIG A   1      -7.095   3.576 134.505  0.00  0.00    +0.026 C 
ATOM      5  C   LIG A   1      -7.785   3.284 133.175  0.00  0.00    +0.079 C 
ATOM      6  C   LIG A   1      -9.031   4.182 132.999  0.00  0.00    +0.131 C 
ATOM      7  C   LIG A   1      -9.650   3.885 131.646  0.00  0.00    +0.034 C 
ATOM      8  C   LIG A   1      -9.950   2.374 131.466  0.00  0.00    +0.021 C 
ATOM      9  C   LIG A   1      -8.697   1.509 131.759  0.00  0.00    +0.054 C 
ATOM     10  N   LIG A   1      -8.193   1.881 133.071  0.00  0.00    -0.308 NA
ATOM     11  H   LIG A   1      -8.872   1.661 133.806  0.00  0.00    +0.122 HD
BRANCH   6  12
ATOM     12  O   LIG A   1      -9.918   4.010 134.084  0.00  0.00    -0.390 OA
ATOM     13  H   LIG A   1     -10.866   4.064 133.724  0.00  0.00    +0.210 HD
ENDBRANCH   6  12
ENDBRANCH   3   9
ENDBRANCH   2   3
ENDBRANCH   1   2
BRANCH   1  14
ATOM     14  C   LIG A   1      -7.608  -1.732 128.336  0.00  0.00    -0.000 C 
BRANCH  14  15
ATOM     15  C   LIG A   1      -8.138  -3.109 128.782  0.00  0.00    -0.000 C 
BRANCH  15  16
ATOM     16  C   LIG A   1      -8.906  -3.869 127.682  0.00  0.00    -0.000 C 
BRANCH  16  17
ATOM     17  C   LIG A   1      -9.086  -3.118 126.346  0.00  0.00    -0.000 C 
BRANCH  17  18
ATOM     18  C   LIG A   1      -8.479  -3.754 125.092  0.00  0.00    -0.000 C 
BRANCH  18  19
ATOM     19  C   LIG A   1      -7.097  -3.163 124.677  0.00  0.00    -0.000 C 
BRANCH  19  20
ATOM     20  C   LIG A   1      -7.080  -2.266 123.417  0.00  0.00    +0.000 C 
BRANCH  20  21
ATOM     21  C   LIG A   1      -7.415  -0.783 123.697  0.00  0.00    +0.002 C 
BRANCH  21  22
ATOM     22  C   LIG A   1      -8.895  -0.348 123.579  0.00  0.00    +0.031 C 
BRANCH  22  23
ATOM     23  C   LIG A   1      -9.434   0.833 124.405  0.00  0.00    +0.111 C 
ATOM     24  C   LIG A   1      -9.495   0.632 125.910  0.00  0.00    +0.037 C 
BRANCH  23  25
ATOM     25  O   LIG A   1     -10.768   1.077 123.930  0.00  0.00    -0.392 OA
ATOM     26  H   LIG A   1     -11.403   0.830 124.626  0.00  0.00    +0.210 HD
ENDBRANCH  23  25
ENDBRANCH  22  23
ENDBRANCH  21  22
ENDBRANCH  20  21
ENDBRANCH  19  20
ENDBRANCH  18  19
ENDBRANCH  17  18
ENDBRANCH  16  17
ENDBRANCH  15  16
ENDBRANCH  14  15
ENDBRANCH   1  14
TORSDOF 15
ENDMDL
