MODEL 1
REMARK VINA RESULT:      -6.8      0.000      0.000
REMARK  Name = NuBBE_1237
REMARK  9 active torsions:
REMARK  status: ('A' for Active; 'I' for Inactive)
REMARK    1  A    between atoms: C_6  and  O_7
REMARK    2  A    between atoms: O_7  and  C_8
REMARK    3  A    between atoms: C_9  and  O_10
REMARK    4  A    between atoms: O_10  and  C_11
REMARK    5  A    between atoms: C_12  and  O_13
REMARK    6  A    between atoms: O_13  and  C_14
REMARK    7  A    between atoms: N_15  and  C_16
REMARK    8  A    between atoms: C_18  and  O_19
REMARK    9  A    between atoms: O_19  and  C_20
REMARK                            x       y       z     vdW  Elec       q    Type
REMARK                         _______ _______ _______ _____ _____    ______ ____
ROOT
ATOM      1  O   LIG A   1      -8.761   5.028 128.057  0.00  0.00    -0.286 OA
ATOM      2  C   LIG A   1      -9.176   5.768 128.924  0.00  0.00    +0.201 A 
ATOM      3  C   LIG A   1      -8.658   5.777 130.329  0.00  0.00    +0.091 A 
ATOM      4  C   LIG A   1      -9.557   6.130 131.330  0.00  0.00    +0.060 A 
ATOM      5  C   LIG A   1      -9.097   6.104 132.646  0.00  0.00    +0.076 A 
ATOM      6  C   LIG A   1      -7.773   5.771 132.966  0.00  0.00    +0.167 A 
ATOM      7  C   LIG A   1      -6.857   5.425 131.938  0.00  0.00    +0.204 A 
ATOM      8  C   LIG A   1      -7.300   5.452 130.598  0.00  0.00    +0.178 A 
ATOM      9  N   LIG A   1     -10.841   6.597 130.983  0.00  0.00    -0.340 N 
ATOM     10  C   LIG A   1     -11.877   6.648 132.015  0.00  0.00    +0.149 C 
ATOM     11  C   LIG A   1     -11.096   7.142 129.704  0.00  0.00    +0.095 A 
ATOM     12  C   LIG A   1     -12.073   8.118 129.405  0.00  0.00    +0.144 A 
ATOM     13  C   LIG A   1     -12.202   8.614 128.095  0.00  0.00    +0.048 A 
ATOM     14  C   LIG A   1     -11.394   8.136 127.062  0.00  0.00    +0.004 A 
ATOM     15  C   LIG A   1     -10.437   7.178 127.323  0.00  0.00    +0.014 A 
ATOM     16  C   LIG A   1     -10.271   6.712 128.639  0.00  0.00    +0.050 A 
ENDROOT
BRANCH   6  17
ATOM     17  O   LIG A   1      -7.355   5.796 134.276  0.00  0.00    -0.491 OA
ATOM     18  C   LIG A   1      -7.682   4.666 135.084  0.00  0.00    +0.277 C 
ENDBRANCH   6  17
BRANCH   7  19
ATOM     19  O   LIG A   1      -5.518   5.181 132.135  0.00  0.00    -0.488 OA
ATOM     20  C   LIG A   1      -4.643   6.301 132.224  0.00  0.00    +0.277 C 
ENDBRANCH   7  19
BRANCH   8  21
ATOM     21  O   LIG A   1      -6.502   5.405 129.481  0.00  0.00    -0.491 OA
ATOM     22  C   LIG A   1      -5.797   4.222 129.153  0.00  0.00    +0.277 C 
ENDBRANCH   8  21
BRANCH  12  23
ATOM     23  O   LIG A   1     -12.794   8.653 130.445  0.00  0.00    -0.493 OA
ATOM     24  C   LIG A   1     -13.217  10.001 130.280  0.00  0.00    +0.277 C 
ENDBRANCH  12  23
TORSDOF 4
ENDMDL
MODEL 2
REMARK VINA RESULT:      -6.7      8.364     10.478
REMARK  Name = NuBBE_1237
REMARK  9 active torsions:
REMARK  status: ('A' for Active; 'I' for Inactive)
REMARK    1  A    between atoms: C_6  and  O_7
REMARK    2  A    between atoms: O_7  and  C_8
REMARK    3  A    between atoms: C_9  and  O_10
REMARK    4  A    between atoms: O_10  and  C_11
REMARK    5  A    between atoms: C_12  and  O_13
REMARK    6  A    between atoms: O_13  and  C_14
REMARK    7  A    between atoms: N_15  and  C_16
REMARK    8  A    between atoms: C_18  and  O_19
REMARK    9  A    between atoms: O_19  and  C_20
REMARK                            x       y       z     vdW  Elec       q    Type
REMARK                         _______ _______ _______ _____ _____    ______ ____
ROOT
ATOM      1  O   LIG A   1      -9.396  -1.766 123.288  0.00  0.00    -0.286 OA
ATOM      2  C   LIG A   1      -8.780  -1.228 124.184  0.00  0.00    +0.201 A 
ATOM      3  C   LIG A   1      -8.210   0.154 124.090  0.00  0.00    +0.091 A 
ATOM      4  C   LIG A   1      -7.053   0.409 124.818  0.00  0.00    +0.060 A 
ATOM      5  C   LIG A   1      -6.492   1.681 124.707  0.00  0.00    +0.076 A 
ATOM      6  C   LIG A   1      -7.075   2.687 123.924  0.00  0.00    +0.167 A 
ATOM      7  C   LIG A   1      -8.263   2.423 123.195  0.00  0.00    +0.204 A 
ATOM      8  C   LIG A   1      -8.852   1.145 123.299  0.00  0.00    +0.178 A 
ATOM      9  N   LIG A   1      -6.558  -0.565 125.709  0.00  0.00    -0.340 N 
ATOM     10  C   LIG A   1      -5.190  -0.433 126.210  0.00  0.00    +0.149 C 
ATOM     11  C   LIG A   1      -7.402  -1.574 126.225  0.00  0.00    +0.095 A 
ATOM     12  C   LIG A   1      -7.248  -2.217 127.474  0.00  0.00    +0.144 A 
ATOM     13  C   LIG A   1      -8.182  -3.180 127.897  0.00  0.00    +0.048 A 
ATOM     14  C   LIG A   1      -9.259  -3.541 127.085  0.00  0.00    +0.004 A 
ATOM     15  C   LIG A   1      -9.430  -2.937 125.858  0.00  0.00    +0.014 A 
ATOM     16  C   LIG A   1      -8.527  -1.940 125.450  0.00  0.00    +0.050 A 
ENDROOT
BRANCH   6  17
ATOM     17  O   LIG A   1      -6.504   3.938 123.876  0.00  0.00    -0.491 OA
ATOM     18  C   LIG A   1      -5.523   4.166 122.864  0.00  0.00    +0.277 C 
ENDBRANCH   6  17
BRANCH   7  19
ATOM     19  O   LIG A   1      -8.966   3.365 122.481  0.00  0.00    -0.488 OA
ATOM     20  C   LIG A   1      -8.706   3.473 121.085  0.00  0.00    +0.277 C 
ENDBRANCH   7  19
BRANCH   8  21
ATOM     21  O   LIG A   1     -10.116   0.801 122.884  0.00  0.00    -0.491 OA
ATOM     22  C   LIG A   1     -11.251   1.198 123.632  0.00  0.00    +0.277 C 
ENDBRANCH   8  21
BRANCH  12  23
ATOM     23  O   LIG A   1      -6.245  -1.782 128.306  0.00  0.00    -0.493 OA
ATOM     24  C   LIG A   1      -5.687  -2.763 129.173  0.00  0.00    +0.277 C 
ENDBRANCH  12  23
TORSDOF 4
ENDMDL
MODEL 3
REMARK VINA RESULT:      -6.7      8.334      9.496
REMARK  Name = NuBBE_1237
REMARK  9 active torsions:
REMARK  status: ('A' for Active; 'I' for Inactive)
REMARK    1  A    between atoms: C_6  and  O_7
REMARK    2  A    between atoms: O_7  and  C_8
REMARK    3  A    between atoms: C_9  and  O_10
REMARK    4  A    between atoms: O_10  and  C_11
REMARK    5  A    between atoms: C_12  and  O_13
REMARK    6  A    between atoms: O_13  and  C_14
REMARK    7  A    between atoms: N_15  and  C_16
REMARK    8  A    between atoms: C_18  and  O_19
REMARK    9  A    between atoms: O_19  and  C_20
REMARK                            x       y       z     vdW  Elec       q    Type
REMARK                         _______ _______ _______ _____ _____    ______ ____
ROOT
ATOM      1  O   LIG A   1     -10.387   0.807 123.941  0.00  0.00    -0.286 OA
ATOM      2  C   LIG A   1      -9.184   0.953 123.885  0.00  0.00    +0.201 A 
ATOM      3  C   LIG A   1      -8.208   0.140 124.678  0.00  0.00    +0.091 A 
ATOM      4  C   LIG A   1      -7.018   0.761 125.042  0.00  0.00    +0.060 A 
ATOM      5  C   LIG A   1      -6.120   0.026 125.814  0.00  0.00    +0.076 A 
ATOM      6  C   LIG A   1      -6.372  -1.301 126.191  0.00  0.00    +0.167 A 
ATOM      7  C   LIG A   1      -7.583  -1.933 125.804  0.00  0.00    +0.204 A 
ATOM      8  C   LIG A   1      -8.503  -1.210 125.016  0.00  0.00    +0.178 A 
ATOM      9  N   LIG A   1      -6.717   2.043 124.539  0.00  0.00    -0.340 N 
ATOM     10  C   LIG A   1      -5.649   2.817 125.173  0.00  0.00    +0.149 C 
ATOM     11  C   LIG A   1      -7.329   2.524 123.360  0.00  0.00    +0.095 A 
ATOM     12  C   LIG A   1      -6.762   3.452 122.458  0.00  0.00    +0.144 A 
ATOM     13  C   LIG A   1      -7.455   3.822 121.291  0.00  0.00    +0.048 A 
ATOM     14  C   LIG A   1      -8.723   3.307 121.015  0.00  0.00    +0.004 A 
ATOM     15  C   LIG A   1      -9.304   2.405 121.880  0.00  0.00    +0.014 A 
ATOM     16  C   LIG A   1      -8.597   1.996 123.024  0.00  0.00    +0.050 A 
ENDROOT
BRANCH   6  17
ATOM     17  O   LIG A   1      -5.437  -1.998 126.921  0.00  0.00    -0.491 OA
ATOM     18  C   LIG A   1      -5.500  -1.874 128.342  0.00  0.00    +0.277 C 
ENDBRANCH   6  17
BRANCH   7  19
ATOM     19  O   LIG A   1      -7.881  -3.255 126.036  0.00  0.00    -0.488 OA
ATOM     20  C   LIG A   1      -8.691  -3.568 127.164  0.00  0.00    +0.277 C 
ENDBRANCH   7  19
BRANCH   8  21
ATOM     21  O   LIG A   1      -9.580  -1.734 124.344  0.00  0.00    -0.491 OA
ATOM     22  C   LIG A   1      -9.385  -2.601 123.242  0.00  0.00    +0.277 C 
ENDBRANCH   8  21
BRANCH  12  23
ATOM     23  O   LIG A   1      -5.475   3.875 122.687  0.00  0.00    -0.493 OA
ATOM     24  C   LIG A   1      -4.846   4.566 121.614  0.00  0.00    +0.277 C 
ENDBRANCH  12  23
TORSDOF 4
ENDMDL
MODEL 4
REMARK VINA RESULT:      -6.5      6.946      9.064
REMARK  Name = NuBBE_1237
REMARK  9 active torsions:
REMARK  status: ('A' for Active; 'I' for Inactive)
REMARK    1  A    between atoms: C_6  and  O_7
REMARK    2  A    between atoms: O_7  and  C_8
REMARK    3  A    between atoms: C_9  and  O_10
REMARK    4  A    between atoms: O_10  and  C_11
REMARK    5  A    between atoms: C_12  and  O_13
REMARK    6  A    between atoms: O_13  and  C_14
REMARK    7  A    between atoms: N_15  and  C_16
REMARK    8  A    between atoms: C_18  and  O_19
REMARK    9  A    between atoms: O_19  and  C_20
REMARK                            x       y       z     vdW  Elec       q    Type
REMARK                         _______ _______ _______ _____ _____    ______ ____
ROOT
ATOM      1  O   LIG A   1      -9.347   2.528 125.074  0.00  0.00    -0.286 OA
ATOM      2  C   LIG A   1      -8.321   1.999 125.446  0.00  0.00    +0.201 A 
ATOM      3  C   LIG A   1      -8.244   0.587 125.939  0.00  0.00    +0.091 A 
ATOM      4  C   LIG A   1      -7.271   0.304 126.892  0.00  0.00    +0.060 A 
ATOM      5  C   LIG A   1      -7.216  -0.999 127.387  0.00  0.00    +0.076 A 
ATOM      6  C   LIG A   1      -8.076  -2.008 126.928  0.00  0.00    +0.167 A 
ATOM      7  C   LIG A   1      -9.056  -1.714 125.945  0.00  0.00    +0.204 A 
ATOM      8  C   LIG A   1      -9.125  -0.404 125.425  0.00  0.00    +0.178 A 
ATOM      9  N   LIG A   1      -6.325   1.289 127.239  0.00  0.00    -0.340 N 
ATOM     10  C   LIG A   1      -5.532   1.109 128.456  0.00  0.00    +0.149 C 
ATOM     11  C   LIG A   1      -6.039   2.363 126.366  0.00  0.00    +0.095 A 
ATOM     12  C   LIG A   1      -4.808   3.051 126.283  0.00  0.00    +0.144 A 
ATOM     13  C   LIG A   1      -4.631   4.079 125.339  0.00  0.00    +0.048 A 
ATOM     14  C   LIG A   1      -5.671   4.460 124.489  0.00  0.00    +0.004 A 
ATOM     15  C   LIG A   1      -6.886   3.811 124.553  0.00  0.00    +0.014 A 
ATOM     16  C   LIG A   1      -7.054   2.752 125.461  0.00  0.00    +0.050 A 
ENDROOT
BRANCH   6  17
ATOM     17  O   LIG A   1      -7.958  -3.287 127.419  0.00  0.00    -0.491 OA
ATOM     18  C   LIG A   1      -8.582  -3.562 128.673  0.00  0.00    +0.277 C 
ENDBRANCH   6  17
BRANCH   7  19
ATOM     19  O   LIG A   1      -9.877  -2.649 125.358  0.00  0.00    -0.488 OA
ATOM     20  C   LIG A   1      -9.328  -3.464 124.327  0.00  0.00    +0.277 C 
ENDBRANCH   7  19
BRANCH   8  21
ATOM     21  O   LIG A   1      -9.818  -0.013 124.306  0.00  0.00    -0.491 OA
ATOM     22  C   LIG A   1      -9.296  -0.265 123.014  0.00  0.00    +0.277 C 
ENDBRANCH   8  21
BRANCH  12  23
ATOM     23  O   LIG A   1      -3.762   2.602 127.053  0.00  0.00    -0.493 OA
ATOM     24  C   LIG A   1      -2.468   3.054 126.670  0.00  0.00    +0.277 C 
ENDBRANCH  12  23
TORSDOF 4
ENDMDL
MODEL 5
REMARK VINA RESULT:      -6.2      7.082      9.092
REMARK  Name = NuBBE_1237
REMARK  9 active torsions:
REMARK  status: ('A' for Active; 'I' for Inactive)
REMARK    1  A    between atoms: C_6  and  O_7
REMARK    2  A    between atoms: O_7  and  C_8
REMARK    3  A    between atoms: C_9  and  O_10
REMARK    4  A    between atoms: O_10  and  C_11
REMARK    5  A    between atoms: C_12  and  O_13
REMARK    6  A    between atoms: O_13  and  C_14
REMARK    7  A    between atoms: N_15  and  C_16
REMARK    8  A    between atoms: C_18  and  O_19
REMARK    9  A    between atoms: O_19  and  C_20
REMARK                            x       y       z     vdW  Elec       q    Type
REMARK                         _______ _______ _______ _____ _____    ______ ____
ROOT
ATOM      1  O   LIG A   1      -8.599  -3.810 127.834  0.00  0.00    -0.286 OA
ATOM      2  C   LIG A   1      -8.257  -2.771 127.308  0.00  0.00    +0.201 A 
ATOM      3  C   LIG A   1      -7.500  -1.690 128.015  0.00  0.00    +0.091 A 
ATOM      4  C   LIG A   1      -7.723  -0.384 127.591  0.00  0.00    +0.060 A 
ATOM      5  C   LIG A   1      -7.054   0.635 128.268  0.00  0.00    +0.076 A 
ATOM      6  C   LIG A   1      -6.159   0.371 129.316  0.00  0.00    +0.167 A 
ATOM      7  C   LIG A   1      -5.926  -0.965 129.733  0.00  0.00    +0.204 A 
ATOM      8  C   LIG A   1      -6.588  -2.012 129.057  0.00  0.00    +0.178 A 
ATOM      9  N   LIG A   1      -8.514  -0.145 126.449  0.00  0.00    -0.340 N 
ATOM     10  C   LIG A   1      -9.013   1.209 126.206  0.00  0.00    +0.149 C 
ATOM     11  C   LIG A   1      -8.709  -1.151 125.476  0.00  0.00    +0.095 A 
ATOM     12  C   LIG A   1      -8.952  -0.932 124.102  0.00  0.00    +0.144 A 
ATOM     13  C   LIG A   1      -9.088  -2.021 123.222  0.00  0.00    +0.048 A 
ATOM     14  C   LIG A   1      -9.016  -3.335 123.689  0.00  0.00    +0.004 A 
ATOM     15  C   LIG A   1      -8.788  -3.579 125.026  0.00  0.00    +0.014 A 
ATOM     16  C   LIG A   1      -8.605  -2.496 125.902  0.00  0.00    +0.050 A 
ENDROOT
BRANCH   6  17
ATOM     17  O   LIG A   1      -5.493   1.407 129.928  0.00  0.00    -0.491 OA
ATOM     18  C   LIG A   1      -4.422   2.010 129.201  0.00  0.00    +0.277 C 
ENDBRANCH   6  17
BRANCH   7  19
ATOM     19  O   LIG A   1      -4.998  -1.337 130.678  0.00  0.00    -0.488 OA
ATOM     20  C   LIG A   1      -3.647  -1.497 130.258  0.00  0.00    +0.277 C 
ENDBRANCH   7  19
BRANCH   8  21
ATOM     21  O   LIG A   1      -6.290  -3.350 129.148  0.00  0.00    -0.491 OA
ATOM     22  C   LIG A   1      -6.420  -4.032 130.382  0.00  0.00    +0.277 C 
ENDBRANCH   8  21
BRANCH  12  23
ATOM     23  O   LIG A   1      -8.921   0.361 123.637  0.00  0.00    -0.493 OA
ATOM     24  C   LIG A   1      -9.963   0.726 122.740  0.00  0.00    +0.277 C 
ENDBRANCH  12  23
TORSDOF 4
ENDMDL
MODEL 6
REMARK VINA RESULT:      -6.1      6.318      7.592
REMARK  Name = NuBBE_1237
REMARK  9 active torsions:
REMARK  status: ('A' for Active; 'I' for Inactive)
REMARK    1  A    between atoms: C_6  and  O_7
REMARK    2  A    between atoms: O_7  and  C_8
REMARK    3  A    between atoms: C_9  and  O_10
REMARK    4  A    between atoms: O_10  and  C_11
REMARK    5  A    between atoms: C_12  and  O_13
REMARK    6  A    between atoms: O_13  and  C_14
REMARK    7  A    between atoms: N_15  and  C_16
REMARK    8  A    between atoms: C_18  and  O_19
REMARK    9  A    between atoms: O_19  and  C_20
REMARK                            x       y       z     vdW  Elec       q    Type
REMARK                         _______ _______ _______ _____ _____    ______ ____
ROOT
ATOM      1  O   LIG A   1      -8.931   2.005 127.486  0.00  0.00    -0.286 OA
ATOM      2  C   LIG A   1      -8.083   2.159 126.633  0.00  0.00    +0.201 A 
ATOM      3  C   LIG A   1      -6.625   2.330 126.931  0.00  0.00    +0.091 A 
ATOM      4  C   LIG A   1      -5.887   3.107 126.044  0.00  0.00    +0.060 A 
ATOM      5  C   LIG A   1      -4.537   3.305 126.332  0.00  0.00    +0.076 A 
ATOM      6  C   LIG A   1      -3.921   2.723 127.449  0.00  0.00    +0.167 A 
ATOM      7  C   LIG A   1      -4.677   1.919 128.342  0.00  0.00    +0.204 A 
ATOM      8  C   LIG A   1      -6.043   1.700 128.065  0.00  0.00    +0.178 A 
ATOM      9  N   LIG A   1      -6.485   3.568 124.854  0.00  0.00    -0.340 N 
ATOM     10  C   LIG A   1      -5.830   4.639 124.102  0.00  0.00    +0.149 C 
ATOM     11  C   LIG A   1      -7.619   2.921 124.311  0.00  0.00    +0.095 A 
ATOM     12  C   LIG A   1      -7.964   2.874 122.942  0.00  0.00    +0.144 A 
ATOM     13  C   LIG A   1      -9.099   2.159 122.520  0.00  0.00    +0.048 A 
ATOM     14  C   LIG A   1      -9.923   1.509 123.442  0.00  0.00    +0.004 A 
ATOM     15  C   LIG A   1      -9.615   1.545 124.785  0.00  0.00    +0.014 A 
ATOM     16  C   LIG A   1      -8.457   2.218 125.208  0.00  0.00    +0.050 A 
ENDROOT
BRANCH   6  17
ATOM     17  O   LIG A   1      -2.577   2.916 127.671  0.00  0.00    -0.491 OA
ATOM     18  C   LIG A   1      -1.742   3.049 126.521  0.00  0.00    +0.277 C 
ENDBRANCH   6  17
BRANCH   7  19
ATOM     19  O   LIG A   1      -4.148   1.225 129.405  0.00  0.00    -0.488 OA
ATOM     20  C   LIG A   1      -4.238   1.817 130.697  0.00  0.00    +0.277 C 
ENDBRANCH   7  19
BRANCH   8  21
ATOM     21  O   LIG A   1      -6.848   0.759 128.659  0.00  0.00    -0.491 OA
ATOM     22  C   LIG A   1      -6.681  -0.617 128.366  0.00  0.00    +0.277 C 
ENDBRANCH   8  21
BRANCH  12  23
ATOM     23  O   LIG A   1      -7.094   3.430 122.036  0.00  0.00    -0.493 OA
ATOM     24  C   LIG A   1      -7.647   3.772 120.770  0.00  0.00    +0.277 C 
ENDBRANCH  12  23
TORSDOF 4
ENDMDL
MODEL 7
REMARK VINA RESULT:      -6.0      6.002      8.573
REMARK  Name = NuBBE_1237
REMARK  9 active torsions:
REMARK  status: ('A' for Active; 'I' for Inactive)
REMARK    1  A    between atoms: C_6  and  O_7
REMARK    2  A    between atoms: O_7  and  C_8
REMARK    3  A    between atoms: C_9  and  O_10
REMARK    4  A    between atoms: O_10  and  C_11
REMARK    5  A    between atoms: C_12  and  O_13
REMARK    6  A    between atoms: O_13  and  C_14
REMARK    7  A    between atoms: N_15  and  C_16
REMARK    8  A    between atoms: C_18  and  O_19
REMARK    9  A    between atoms: O_19  and  C_20
REMARK                            x       y       z     vdW  Elec       q    Type
REMARK                         _______ _______ _______ _____ _____    ______ ____
ROOT
ATOM      1  O   LIG A   1      -6.810  -1.593 129.821  0.00  0.00    -0.286 OA
ATOM      2  C   LIG A   1      -7.474  -0.731 129.284  0.00  0.00    +0.201 A 
ATOM      3  C   LIG A   1      -7.615  -0.594 127.799  0.00  0.00    +0.091 A 
ATOM      4  C   LIG A   1      -7.809   0.690 127.301  0.00  0.00    +0.060 A 
ATOM      5  C   LIG A   1      -7.903   0.835 125.917  0.00  0.00    +0.076 A 
ATOM      6  C   LIG A   1      -7.843  -0.263 125.047  0.00  0.00    +0.167 A 
ATOM      7  C   LIG A   1      -7.660  -1.572 125.564  0.00  0.00    +0.204 A 
ATOM      8  C   LIG A   1      -7.569  -1.742 126.962  0.00  0.00    +0.178 A 
ATOM      9  N   LIG A   1      -8.008   1.763 128.193  0.00  0.00    -0.340 N 
ATOM     10  C   LIG A   1      -7.878   3.132 127.691  0.00  0.00    +0.149 C 
ATOM     11  C   LIG A   1      -8.463   1.539 129.511  0.00  0.00    +0.095 A 
ATOM     12  C   LIG A   1      -9.222   2.444 130.286  0.00  0.00    +0.144 A 
ATOM     13  C   LIG A   1      -9.654   2.087 131.576  0.00  0.00    +0.048 A 
ATOM     14  C   LIG A   1      -9.319   0.848 132.128  0.00  0.00    +0.004 A 
ATOM     15  C   LIG A   1      -8.574  -0.052 131.398  0.00  0.00    +0.014 A 
ATOM     16  C   LIG A   1      -8.179   0.280 130.091  0.00  0.00    +0.050 A 
ENDROOT
BRANCH   6  17
ATOM     17  O   LIG A   1      -7.979  -0.074 123.692  0.00  0.00    -0.491 OA
ATOM     18  C   LIG A   1      -9.298   0.158 123.198  0.00  0.00    +0.277 C 
ENDBRANCH   6  17
BRANCH   7  19
ATOM     19  O   LIG A   1      -7.687  -2.720 124.808  0.00  0.00    -0.488 OA
ATOM     20  C   LIG A   1      -6.450  -3.218 124.307  0.00  0.00    +0.277 C 
ENDBRANCH   7  19
BRANCH   8  21
ATOM     21  O   LIG A   1      -7.653  -2.934 127.639  0.00  0.00    -0.491 OA
ATOM     22  C   LIG A   1      -8.851  -3.690 127.617  0.00  0.00    +0.277 C 
ENDBRANCH   8  21
BRANCH  12  23
ATOM     23  O   LIG A   1      -9.629   3.617 129.697  0.00  0.00    -0.493 OA
ATOM     24  C   LIG A   1     -10.679   4.314 130.358  0.00  0.00    +0.277 C 
ENDBRANCH  12  23
TORSDOF 4
ENDMDL
MODEL 8
REMARK VINA RESULT:      -6.0      6.456      8.480
REMARK  Name = NuBBE_1237
REMARK  9 active torsions:
REMARK  status: ('A' for Active; 'I' for Inactive)
REMARK    1  A    between atoms: C_6  and  O_7
REMARK    2  A    between atoms: O_7  and  C_8
REMARK    3  A    between atoms: C_9  and  O_10
REMARK    4  A    between atoms: O_10  and  C_11
REMARK    5  A    between atoms: C_12  and  O_13
REMARK    6  A    between atoms: O_13  and  C_14
REMARK    7  A    between atoms: N_15  and  C_16
REMARK    8  A    between atoms: C_18  and  O_19
REMARK    9  A    between atoms: O_19  and  C_20
REMARK                            x       y       z     vdW  Elec       q    Type
REMARK                         _______ _______ _______ _____ _____    ______ ____
ROOT
ATOM      1  O   LIG A   1      -8.413   2.896 126.077  0.00  0.00    -0.286 OA
ATOM      2  C   LIG A   1      -8.460   1.684 126.071  0.00  0.00    +0.201 A 
ATOM      3  C   LIG A   1      -8.120   0.833 127.256  0.00  0.00    +0.091 A 
ATOM      4  C   LIG A   1      -7.588  -0.426 126.996  0.00  0.00    +0.060 A 
ATOM      5  C   LIG A   1      -7.232  -1.212 128.092  0.00  0.00    +0.076 A 
ATOM      6  C   LIG A   1      -7.427  -0.782 129.412  0.00  0.00    +0.167 A 
ATOM      7  C   LIG A   1      -7.984   0.498 129.669  0.00  0.00    +0.204 A 
ATOM      8  C   LIG A   1      -8.358   1.307 128.575  0.00  0.00    +0.178 A 
ATOM      9  N   LIG A   1      -7.529  -0.900 125.670  0.00  0.00    -0.340 N 
ATOM     10  C   LIG A   1      -6.682  -2.055 125.370  0.00  0.00    +0.149 C 
ATOM     11  C   LIG A   1      -8.374  -0.369 124.669  0.00  0.00    +0.095 A 
ATOM     12  C   LIG A   1      -8.836  -1.062 123.529  0.00  0.00    +0.144 A 
ATOM     13  C   LIG A   1      -9.711  -0.435 122.623  0.00  0.00    +0.048 A 
ATOM     14  C   LIG A   1     -10.117   0.887 122.814  0.00  0.00    +0.004 A 
ATOM     15  C   LIG A   1      -9.676   1.591 123.914  0.00  0.00    +0.014 A 
ATOM     16  C   LIG A   1      -8.839   0.955 124.847  0.00  0.00    +0.050 A 
ENDROOT
BRANCH   6  17
ATOM     17  O   LIG A   1      -7.095  -1.608 130.460  0.00  0.00    -0.491 OA
ATOM     18  C   LIG A   1      -6.818  -2.974 130.148  0.00  0.00    +0.277 C 
ENDBRANCH   6  17
BRANCH   7  19
ATOM     19  O   LIG A   1      -8.307   0.972 130.920  0.00  0.00    -0.488 OA
ATOM     20  C   LIG A   1      -7.254   1.484 131.730  0.00  0.00    +0.277 C 
ENDBRANCH   7  19
BRANCH   8  21
ATOM     21  O   LIG A   1      -9.136   2.437 128.634  0.00  0.00    -0.491 OA
ATOM     22  C   LIG A   1      -8.631   3.627 129.213  0.00  0.00    +0.277 C 
ENDBRANCH   8  21
BRANCH  12  23
ATOM     23  O   LIG A   1      -8.512  -2.392 123.404  0.00  0.00    -0.493 OA
ATOM     24  C   LIG A   1      -9.604  -3.304 123.435  0.00  0.00    +0.277 C 
ENDBRANCH  12  23
TORSDOF 4
ENDMDL
MODEL 9
REMARK VINA RESULT:      -5.9      7.192     10.429
REMARK  Name = NuBBE_1237
REMARK  9 active torsions:
REMARK  status: ('A' for Active; 'I' for Inactive)
REMARK    1  A    between atoms: C_6  and  O_7
REMARK    2  A    between atoms: O_7  and  C_8
REMARK    3  A    between atoms: C_9  and  O_10
REMARK    4  A    between atoms: O_10  and  C_11
REMARK    5  A    between atoms: C_12  and  O_13
REMARK    6  A    between atoms: O_13  and  C_14
REMARK    7  A    between atoms: N_15  and  C_16
REMARK    8  A    between atoms: C_18  and  O_19
REMARK    9  A    between atoms: O_19  and  C_20
REMARK                            x       y       z     vdW  Elec       q    Type
REMARK                         _______ _______ _______ _____ _____    ______ ____
ROOT
ATOM      1  O   LIG A   1      -8.045   1.534 128.509  0.00  0.00    -0.286 OA
ATOM      2  C   LIG A   1      -7.748   0.392 128.226  0.00  0.00    +0.201 A 
ATOM      3  C   LIG A   1      -8.060  -0.246 126.908  0.00  0.00    +0.091 A 
ATOM      4  C   LIG A   1      -8.280  -1.620 126.909  0.00  0.00    +0.060 A 
ATOM      5  C   LIG A   1      -8.609  -2.219 125.693  0.00  0.00    +0.076 A 
ATOM      6  C   LIG A   1      -8.687  -1.488 124.499  0.00  0.00    +0.167 A 
ATOM      7  C   LIG A   1      -8.448  -0.089 124.504  0.00  0.00    +0.204 A 
ATOM      8  C   LIG A   1      -8.106   0.536 125.722  0.00  0.00    +0.178 A 
ATOM      9  N   LIG A   1      -8.060  -2.362 128.087  0.00  0.00    -0.340 N 
ATOM     10  C   LIG A   1      -8.600  -3.719 128.178  0.00  0.00    +0.149 C 
ATOM     11  C   LIG A   1      -7.217  -1.872 129.109  0.00  0.00    +0.095 A 
ATOM     12  C   LIG A   1      -6.472  -2.662 130.012  0.00  0.00    +0.144 A 
ATOM     13  C   LIG A   1      -5.631  -2.053 130.962  0.00  0.00    +0.048 A 
ATOM     14  C   LIG A   1      -5.539  -0.663 131.054  0.00  0.00    +0.004 A 
ATOM     15  C   LIG A   1      -6.260   0.133 130.191  0.00  0.00    +0.014 A 
ATOM     16  C   LIG A   1      -7.065  -0.469 129.209  0.00  0.00    +0.050 A 
ENDROOT
BRANCH   6  17
ATOM     17  O   LIG A   1      -8.978  -2.130 123.318  0.00  0.00    -0.491 OA
ATOM     18  C   LIG A   1      -9.628  -3.398 123.411  0.00  0.00    +0.277 C 
ENDBRANCH   6  17
BRANCH   7  19
ATOM     19  O   LIG A   1      -8.402   0.698 123.377  0.00  0.00    -0.488 OA
ATOM     20  C   LIG A   1      -9.594   1.371 122.985  0.00  0.00    +0.277 C 
ENDBRANCH   7  19
BRANCH   8  21
ATOM     21  O   LIG A   1      -7.595   1.803 125.865  0.00  0.00    -0.491 OA
ATOM     22  C   LIG A   1      -6.270   2.093 125.458  0.00  0.00    +0.277 C 
ENDBRANCH   8  21
BRANCH  12  23
ATOM     23  O   LIG A   1      -6.493  -4.026 129.848  0.00  0.00    -0.493 OA
ATOM     24  C   LIG A   1      -5.615  -4.768 130.688  0.00  0.00    +0.277 C 
ENDBRANCH  12  23
TORSDOF 4
ENDMDL
