MODEL 1
REMARK VINA RESULT:      -6.6      0.000      0.000
REMARK  Name = NuBBE_2345
REMARK  11 active torsions:
REMARK  status: ('A' for Active; 'I' for Inactive)
REMARK    1  A    between atoms: C_1  and  O_2
REMARK    2  A    between atoms: O_2  and  C_3
REMARK    3  A    between atoms: C_4  and  O_5
REMARK    4  A    between atoms: O_5  and  C_6
REMARK    5  A    between atoms: C_7  and  O_8
REMARK    6  A    between atoms: O_8  and  C_9
REMARK    7  A    between atoms: C_11  and  C_12
REMARK    8  A    between atoms: C_17  and  O_18
REMARK    9  A    between atoms: C_19  and  O_20
REMARK   10  A    between atoms: O_20  and  C_21
REMARK   11  A    between atoms: C_24  and  C_26
REMARK                            x       y       z     vdW  Elec       q    Type
REMARK                         _______ _______ _______ _____ _____    ______ ____
ROOT
ATOM      1  C   LIG A   1      -9.657   0.901 124.956  0.00  0.00    +0.211 C 
ATOM      2  O   LIG A   1      -9.490   2.252 125.468  0.00  0.00    -0.483 OA
ATOM      3  C   LIG A   1      -8.513   2.793 124.675  0.00  0.00    +0.129 A 
ATOM      4  C   LIG A   1      -7.831   3.953 124.997  0.00  0.00    +0.095 A 
ATOM      5  C   LIG A   1      -6.777   4.338 124.160  0.00  0.00    +0.162 A 
ATOM      6  C   LIG A   1      -6.434   3.581 123.024  0.00  0.00    +0.162 A 
ATOM      7  C   LIG A   1      -7.158   2.412 122.726  0.00  0.00    +0.057 A 
ATOM      8  C   LIG A   1      -8.198   2.040 123.562  0.00  0.00    +0.005 A 
ATOM      9  C   LIG A   1      -9.083   0.843 123.513  0.00  0.00    +0.065 C 
ATOM     10  C   LIG A   1     -10.178   0.994 122.460  0.00  0.00    +0.016 C 
ENDROOT
BRANCH   1  15
ATOM     11  C   LIG A   1      -8.368  -2.389 126.457  0.00  0.00    +0.166 A 
ATOM     12  C   LIG A   1      -7.668  -1.938 127.597  0.00  0.00    +0.203 A 
ATOM     13  C   LIG A   1      -7.658  -0.557 127.896  0.00  0.00    +0.166 A 
ATOM     14  C   LIG A   1      -8.309   0.342 127.047  0.00  0.00    +0.057 A 
ATOM     15  C   LIG A   1      -9.001  -0.089 125.910  0.00  0.00    +0.000 A 
ATOM     16  C   LIG A   1      -9.054  -1.463 125.653  0.00  0.00    +0.057 A 
BRANCH  11  18
ATOM     17  C   LIG A   1      -8.142  -4.085 124.804  0.00  0.00    +0.277 C 
ATOM     18  O   LIG A   1      -8.384  -3.728 126.161  0.00  0.00    -0.491 OA
ENDBRANCH  11  18
BRANCH  12  19
ATOM     19  O   LIG A   1      -6.888  -2.709 128.429  0.00  0.00    -0.488 OA
ATOM     20  C   LIG A   1      -7.512  -3.419 129.488  0.00  0.00    +0.277 C 
ENDBRANCH  12  19
BRANCH  13  21
ATOM     21  O   LIG A   1      -6.986  -0.156 129.031  0.00  0.00    -0.491 OA
ATOM     22  C   LIG A   1      -7.662   0.756 129.893  0.00  0.00    +0.277 C 
ENDBRANCH  13  21
ENDBRANCH   1  15
BRANCH   5  23
ATOM     23  O   LIG A   1      -6.063   5.453 124.515  0.00  0.00    -0.503 OA
ATOM     24  H   LIG A   1      -5.342   5.195 125.109  0.00  0.00    +0.292 HD
ENDBRANCH   5  23
BRANCH   6  25
ATOM     25  O   LIG A   1      -5.388   3.804 122.166  0.00  0.00    -0.491 OA
ATOM     26  C   LIG A   1      -5.715   4.237 120.852  0.00  0.00    +0.277 C 
ENDBRANCH   6  25
TORSDOF 6
ENDMDL
MODEL 2
REMARK VINA RESULT:      -6.6      0.206      2.602
REMARK  Name = NuBBE_2345
REMARK  11 active torsions:
REMARK  status: ('A' for Active; 'I' for Inactive)
REMARK    1  A    between atoms: C_1  and  O_2
REMARK    2  A    between atoms: O_2  and  C_3
REMARK    3  A    between atoms: C_4  and  O_5
REMARK    4  A    between atoms: O_5  and  C_6
REMARK    5  A    between atoms: C_7  and  O_8
REMARK    6  A    between atoms: O_8  and  C_9
REMARK    7  A    between atoms: C_11  and  C_12
REMARK    8  A    between atoms: C_17  and  O_18
REMARK    9  A    between atoms: C_19  and  O_20
REMARK   10  A    between atoms: O_20  and  C_21
REMARK   11  A    between atoms: C_24  and  C_26
REMARK                            x       y       z     vdW  Elec       q    Type
REMARK                         _______ _______ _______ _____ _____    ______ ____
ROOT
ATOM      1  C   LIG A   1      -9.552   0.917 124.954  0.00  0.00    +0.211 C 
ATOM      2  O   LIG A   1      -9.414   2.256 125.506  0.00  0.00    -0.483 OA
ATOM      3  C   LIG A   1      -8.460   2.846 124.720  0.00  0.00    +0.129 A 
ATOM      4  C   LIG A   1      -7.803   4.013 125.070  0.00  0.00    +0.095 A 
ATOM      5  C   LIG A   1      -6.769   4.449 124.235  0.00  0.00    +0.162 A 
ATOM      6  C   LIG A   1      -6.418   3.736 123.074  0.00  0.00    +0.162 A 
ATOM      7  C   LIG A   1      -7.116   2.558 122.747  0.00  0.00    +0.057 A 
ATOM      8  C   LIG A   1      -8.138   2.134 123.582  0.00  0.00    +0.005 A 
ATOM      9  C   LIG A   1      -8.992   0.917 123.505  0.00  0.00    +0.065 C 
ATOM     10  C   LIG A   1     -10.101   1.072 122.468  0.00  0.00    +0.016 C 
ENDROOT
BRANCH   1  15
ATOM     11  C   LIG A   1      -7.675  -0.565 127.957  0.00  0.00    +0.166 A 
ATOM     12  C   LIG A   1      -7.693  -1.946 127.663  0.00  0.00    +0.203 A 
ATOM     13  C   LIG A   1      -8.283  -2.384 126.456  0.00  0.00    +0.166 A 
ATOM     14  C   LIG A   1      -8.866  -1.455 125.590  0.00  0.00    +0.057 A 
ATOM     15  C   LIG A   1      -8.862  -0.084 125.872  0.00  0.00    +0.000 A 
ATOM     16  C   LIG A   1      -8.226   0.346 127.040  0.00  0.00    +0.057 A 
BRANCH  11  18
ATOM     17  C   LIG A   1      -7.933   0.627 130.000  0.00  0.00    +0.277 C 
ATOM     18  O   LIG A   1      -7.103  -0.132 129.126  0.00  0.00    -0.491 OA
ENDBRANCH  11  18
BRANCH  12  19
ATOM     19  O   LIG A   1      -7.269  -2.959 128.493  0.00  0.00    -0.488 OA
ATOM     20  C   LIG A   1      -8.063  -3.297 129.620  0.00  0.00    +0.277 C 
ENDBRANCH  12  19
BRANCH  13  21
ATOM     21  O   LIG A   1      -8.260  -3.737 126.190  0.00  0.00    -0.491 OA
ATOM     22  C   LIG A   1      -8.183  -4.124 124.820  0.00  0.00    +0.277 C 
ENDBRANCH  13  21
ENDBRANCH   1  15
BRANCH   5  23
ATOM     23  O   LIG A   1      -6.079   5.571 124.617  0.00  0.00    -0.503 OA
ATOM     24  H   LIG A   1      -5.499   5.352 125.362  0.00  0.00    +0.292 HD
ENDBRANCH   5  23
BRANCH   6  25
ATOM     25  O   LIG A   1      -5.388   4.011 122.212  0.00  0.00    -0.491 OA
ATOM     26  C   LIG A   1      -5.684   3.975 120.822  0.00  0.00    +0.277 C 
ENDBRANCH   6  25
TORSDOF 6
ENDMDL
MODEL 3
REMARK VINA RESULT:      -6.4      3.191      6.300
REMARK  Name = NuBBE_2345
REMARK  11 active torsions:
REMARK  status: ('A' for Active; 'I' for Inactive)
REMARK    1  A    between atoms: C_1  and  O_2
REMARK    2  A    between atoms: O_2  and  C_3
REMARK    3  A    between atoms: C_4  and  O_5
REMARK    4  A    between atoms: O_5  and  C_6
REMARK    5  A    between atoms: C_7  and  O_8
REMARK    6  A    between atoms: O_8  and  C_9
REMARK    7  A    between atoms: C_11  and  C_12
REMARK    8  A    between atoms: C_17  and  O_18
REMARK    9  A    between atoms: C_19  and  O_20
REMARK   10  A    between atoms: O_20  and  C_21
REMARK   11  A    between atoms: C_24  and  C_26
REMARK                            x       y       z     vdW  Elec       q    Type
REMARK                         _______ _______ _______ _____ _____    ______ ____
ROOT
ATOM      1  C   LIG A   1      -7.221  -1.622 128.856  0.00  0.00    +0.211 C 
ATOM      2  O   LIG A   1      -8.289  -2.514 128.434  0.00  0.00    -0.483 OA
ATOM      3  C   LIG A   1      -8.173  -2.552 127.069  0.00  0.00    +0.129 A 
ATOM      4  C   LIG A   1      -9.166  -3.037 126.236  0.00  0.00    +0.095 A 
ATOM      5  C   LIG A   1      -8.971  -2.914 124.856  0.00  0.00    +0.162 A 
ATOM      6  C   LIG A   1      -7.802  -2.331 124.333  0.00  0.00    +0.162 A 
ATOM      7  C   LIG A   1      -6.811  -1.858 125.213  0.00  0.00    +0.057 A 
ATOM      8  C   LIG A   1      -7.015  -1.984 126.578  0.00  0.00    +0.005 A 
ATOM      9  C   LIG A   1      -6.169  -1.530 127.716  0.00  0.00    +0.065 C 
ATOM     10  C   LIG A   1      -4.992  -2.471 127.953  0.00  0.00    +0.016 C 
ENDROOT
BRANCH   1  15
ATOM     11  C   LIG A   1      -8.622   1.252 130.981  0.00  0.00    +0.166 A 
ATOM     12  C   LIG A   1      -8.781   2.276 130.023  0.00  0.00    +0.203 A 
ATOM     13  C   LIG A   1      -8.470   2.008 128.671  0.00  0.00    +0.166 A 
ATOM     14  C   LIG A   1      -7.981   0.750 128.308  0.00  0.00    +0.057 A 
ATOM     15  C   LIG A   1      -7.812  -0.273 129.248  0.00  0.00    +0.000 A 
ATOM     16  C   LIG A   1      -8.176  -0.016 130.573  0.00  0.00    +0.057 A 
BRANCH  11  18
ATOM     17  C   LIG A   1      -7.880   2.051 133.096  0.00  0.00    +0.277 C 
ATOM     18  O   LIG A   1      -8.924   1.505 132.295  0.00  0.00    -0.491 OA
ENDBRANCH  11  18
BRANCH  12  19
ATOM     19  O   LIG A   1      -9.129   3.583 130.281  0.00  0.00    -0.488 OA
ATOM     20  C   LIG A   1     -10.495   3.895 130.507  0.00  0.00    +0.277 C 
ENDBRANCH  12  19
BRANCH  13  21
ATOM     21  O   LIG A   1      -8.661   3.024 127.759  0.00  0.00    -0.491 OA
ATOM     22  C   LIG A   1      -7.677   3.168 126.738  0.00  0.00    +0.277 C 
ENDBRANCH  13  21
ENDBRANCH   1  15
BRANCH   5  23
ATOM     23  O   LIG A   1      -9.984  -3.339 124.034  0.00  0.00    -0.503 OA
ATOM     24  H   LIG A   1     -10.774  -2.802 124.197  0.00  0.00    +0.292 HD
ENDBRANCH   5  23
BRANCH   6  25
ATOM     25  O   LIG A   1      -7.517  -2.086 123.015  0.00  0.00    -0.491 OA
ATOM     26  C   LIG A   1      -6.144  -1.993 122.660  0.00  0.00    +0.277 C 
ENDBRANCH   6  25
TORSDOF 6
ENDMDL
MODEL 4
REMARK VINA RESULT:      -6.4      2.274      4.326
REMARK  Name = NuBBE_2345
REMARK  11 active torsions:
REMARK  status: ('A' for Active; 'I' for Inactive)
REMARK    1  A    between atoms: C_1  and  O_2
REMARK    2  A    between atoms: O_2  and  C_3
REMARK    3  A    between atoms: C_4  and  O_5
REMARK    4  A    between atoms: O_5  and  C_6
REMARK    5  A    between atoms: C_7  and  O_8
REMARK    6  A    between atoms: O_8  and  C_9
REMARK    7  A    between atoms: C_11  and  C_12
REMARK    8  A    between atoms: C_17  and  O_18
REMARK    9  A    between atoms: C_19  and  O_20
REMARK   10  A    between atoms: O_20  and  C_21
REMARK   11  A    between atoms: C_24  and  C_26
REMARK                            x       y       z     vdW  Elec       q    Type
REMARK                         _______ _______ _______ _____ _____    ______ ____
ROOT
ATOM      1  C   LIG A   1      -7.753  -2.662 126.649  0.00  0.00    +0.211 C 
ATOM      2  O   LIG A   1      -8.973  -1.874 126.581  0.00  0.00    -0.483 OA
ATOM      3  C   LIG A   1      -8.667  -0.857 125.715  0.00  0.00    +0.129 A 
ATOM      4  C   LIG A   1      -9.431   0.290 125.591  0.00  0.00    +0.095 A 
ATOM      5  C   LIG A   1      -8.948   1.303 124.756  0.00  0.00    +0.162 A 
ATOM      6  C   LIG A   1      -7.736   1.156 124.056  0.00  0.00    +0.162 A 
ATOM      7  C   LIG A   1      -6.992  -0.030 124.201  0.00  0.00    +0.057 A 
ATOM      8  C   LIG A   1      -7.480  -1.026 125.033  0.00  0.00    +0.005 A 
ATOM      9  C   LIG A   1      -6.882  -2.339 125.404  0.00  0.00    +0.065 C 
ATOM     10  C   LIG A   1      -7.066  -3.374 124.298  0.00  0.00    +0.016 C 
ENDROOT
BRANCH   1  15
ATOM     11  C   LIG A   1      -7.166  -1.914 130.368  0.00  0.00    +0.166 A 
ATOM     12  C   LIG A   1      -5.762  -2.023 130.472  0.00  0.00    +0.203 A 
ATOM     13  C   LIG A   1      -5.006  -2.297 129.311  0.00  0.00    +0.166 A 
ATOM     14  C   LIG A   1      -5.656  -2.489 128.088  0.00  0.00    +0.057 A 
ATOM     15  C   LIG A   1      -7.047  -2.392 127.971  0.00  0.00    +0.000 A 
ATOM     16  C   LIG A   1      -7.782  -2.064 129.114  0.00  0.00    +0.057 A 
BRANCH  11  18
ATOM     17  C   LIG A   1      -8.417  -0.323 131.619  0.00  0.00    +0.277 C 
ATOM     18  O   LIG A   1      -7.907  -1.647 131.491  0.00  0.00    -0.491 OA
ENDBRANCH  11  18
BRANCH  12  19
ATOM     19  O   LIG A   1      -5.029  -1.982 131.636  0.00  0.00    -0.488 OA
ATOM     20  C   LIG A   1      -4.982  -3.141 132.455  0.00  0.00    +0.277 C 
ENDBRANCH  12  19
BRANCH  13  21
ATOM     21  O   LIG A   1      -3.636  -2.371 129.445  0.00  0.00    -0.491 OA
ATOM     22  C   LIG A   1      -3.028  -3.633 129.177  0.00  0.00    +0.277 C 
ENDBRANCH  13  21
ENDBRANCH   1  15
BRANCH   5  23
ATOM     23  O   LIG A   1      -9.675   2.464 124.683  0.00  0.00    -0.503 OA
ATOM     24  H   LIG A   1     -10.243   2.535 125.465  0.00  0.00    +0.292 HD
ENDBRANCH   5  23
BRANCH   6  25
ATOM     25  O   LIG A   1      -7.117   2.090 123.266  0.00  0.00    -0.491 OA
ATOM     26  C   LIG A   1      -6.327   3.070 123.927  0.00  0.00    +0.277 C 
ENDBRANCH   6  25
TORSDOF 6
ENDMDL
MODEL 5
REMARK VINA RESULT:      -6.3      2.145      7.310
REMARK  Name = NuBBE_2345
REMARK  11 active torsions:
REMARK  status: ('A' for Active; 'I' for Inactive)
REMARK    1  A    between atoms: C_1  and  O_2
REMARK    2  A    between atoms: O_2  and  C_3
REMARK    3  A    between atoms: C_4  and  O_5
REMARK    4  A    between atoms: O_5  and  C_6
REMARK    5  A    between atoms: C_7  and  O_8
REMARK    6  A    between atoms: O_8  and  C_9
REMARK    7  A    between atoms: C_11  and  C_12
REMARK    8  A    between atoms: C_17  and  O_18
REMARK    9  A    between atoms: C_19  and  O_20
REMARK   10  A    between atoms: O_20  and  C_21
REMARK   11  A    between atoms: C_24  and  C_26
REMARK                            x       y       z     vdW  Elec       q    Type
REMARK                         _______ _______ _______ _____ _____    ______ ____
ROOT
ATOM      1  C   LIG A   1      -7.988  -2.336 126.544  0.00  0.00    +0.211 C 
ATOM      2  O   LIG A   1      -6.553  -2.529 126.410  0.00  0.00    -0.483 OA
ATOM      3  C   LIG A   1      -6.094  -2.539 127.702  0.00  0.00    +0.129 A 
ATOM      4  C   LIG A   1      -4.759  -2.396 128.034  0.00  0.00    +0.095 A 
ATOM      5  C   LIG A   1      -4.435  -2.308 129.392  0.00  0.00    +0.162 A 
ATOM      6  C   LIG A   1      -5.429  -2.377 130.385  0.00  0.00    +0.162 A 
ATOM      7  C   LIG A   1      -6.777  -2.532 130.007  0.00  0.00    +0.057 A 
ATOM      8  C   LIG A   1      -7.086  -2.616 128.659  0.00  0.00    +0.005 A 
ATOM      9  C   LIG A   1      -8.410  -2.729 127.987  0.00  0.00    +0.065 C 
ATOM     10  C   LIG A   1      -8.955  -4.153 128.051  0.00  0.00    +0.016 C 
ENDROOT
BRANCH   1  15
ATOM     11  C   LIG A   1      -8.644   1.434 126.841  0.00  0.00    +0.166 A 
ATOM     12  C   LIG A   1      -8.870   1.800 125.496  0.00  0.00    +0.203 A 
ATOM     13  C   LIG A   1      -8.851   0.800 124.499  0.00  0.00    +0.166 A 
ATOM     14  C   LIG A   1      -8.578  -0.525 124.849  0.00  0.00    +0.057 A 
ATOM     15  C   LIG A   1      -8.345  -0.902 126.177  0.00  0.00    +0.000 A 
ATOM     16  C   LIG A   1      -8.422   0.085 127.164  0.00  0.00    +0.057 A 
BRANCH  11  18
ATOM     17  C   LIG A   1      -8.538   1.951 129.161  0.00  0.00    +0.277 C 
ATOM     18  O   LIG A   1      -8.662   2.400 127.815  0.00  0.00    -0.491 OA
ENDBRANCH  11  18
BRANCH  12  19
ATOM     19  O   LIG A   1      -9.020   3.082 125.018  0.00  0.00    -0.488 OA
ATOM     20  C   LIG A   1      -7.865   3.891 124.856  0.00  0.00    +0.277 C 
ENDBRANCH  12  19
BRANCH  13  21
ATOM     21  O   LIG A   1      -9.101   1.190 123.201  0.00  0.00    -0.491 OA
ATOM     22  C   LIG A   1     -10.160   0.523 122.518  0.00  0.00    +0.277 C 
ENDBRANCH  13  21
ENDBRANCH   1  15
BRANCH   5  23
ATOM     23  O   LIG A   1      -3.119  -2.104 129.717  0.00  0.00    -0.503 OA
ATOM     24  H   LIG A   1      -2.638  -2.942 129.646  0.00  0.00    +0.292 HD
ENDBRANCH   5  23
BRANCH   6  25
ATOM     25  O   LIG A   1      -5.261  -2.235 131.738  0.00  0.00    -0.491 OA
ATOM     26  C   LIG A   1      -5.124  -3.428 132.499  0.00  0.00    +0.277 C 
ENDBRANCH   6  25
TORSDOF 6
ENDMDL
MODEL 6
REMARK VINA RESULT:      -6.3      2.248      3.969
REMARK  Name = NuBBE_2345
REMARK  11 active torsions:
REMARK  status: ('A' for Active; 'I' for Inactive)
REMARK    1  A    between atoms: C_1  and  O_2
REMARK    2  A    between atoms: O_2  and  C_3
REMARK    3  A    between atoms: C_4  and  O_5
REMARK    4  A    between atoms: O_5  and  C_6
REMARK    5  A    between atoms: C_7  and  O_8
REMARK    6  A    between atoms: O_8  and  C_9
REMARK    7  A    between atoms: C_11  and  C_12
REMARK    8  A    between atoms: C_17  and  O_18
REMARK    9  A    between atoms: C_19  and  O_20
REMARK   10  A    between atoms: O_20  and  C_21
REMARK   11  A    between atoms: C_24  and  C_26
REMARK                            x       y       z     vdW  Elec       q    Type
REMARK                         _______ _______ _______ _____ _____    ______ ____
ROOT
ATOM      1  C   LIG A   1      -7.750  -2.590 126.553  0.00  0.00    +0.211 C 
ATOM      2  O   LIG A   1      -8.969  -1.801 126.474  0.00  0.00    -0.483 OA
ATOM      3  C   LIG A   1      -8.637  -0.751 125.659  0.00  0.00    +0.129 A 
ATOM      4  C   LIG A   1      -9.400   0.399 125.553  0.00  0.00    +0.095 A 
ATOM      5  C   LIG A   1      -8.891   1.444 124.774  0.00  0.00    +0.162 A 
ATOM      6  C   LIG A   1      -7.656   1.325 124.110  0.00  0.00    +0.162 A 
ATOM      7  C   LIG A   1      -6.914   0.135 124.235  0.00  0.00    +0.057 A 
ATOM      8  C   LIG A   1      -7.426  -0.892 125.010  0.00  0.00    +0.005 A 
ATOM      9  C   LIG A   1      -6.838  -2.217 125.351  0.00  0.00    +0.065 C 
ATOM     10  C   LIG A   1      -6.982  -3.210 124.201  0.00  0.00    +0.016 C 
ENDROOT
BRANCH   1  15
ATOM     11  C   LIG A   1      -5.057  -2.199 129.261  0.00  0.00    +0.166 A 
ATOM     12  C   LIG A   1      -5.824  -1.827 130.387  0.00  0.00    +0.203 A 
ATOM     13  C   LIG A   1      -7.229  -1.749 130.266  0.00  0.00    +0.166 A 
ATOM     14  C   LIG A   1      -7.836  -2.007 129.033  0.00  0.00    +0.057 A 
ATOM     15  C   LIG A   1      -7.089  -2.370 127.908  0.00  0.00    +0.000 A 
ATOM     16  C   LIG A   1      -5.704  -2.500 128.050  0.00  0.00    +0.057 A 
BRANCH  11  18
ATOM     17  C   LIG A   1      -3.122  -3.582 129.303  0.00  0.00    +0.277 C 
ATOM     18  O   LIG A   1      -3.693  -2.278 129.371  0.00  0.00    -0.491 OA
ENDBRANCH  11  18
BRANCH  12  19
ATOM     19  O   LIG A   1      -5.332  -1.427 131.608  0.00  0.00    -0.488 OA
ATOM     20  C   LIG A   1      -4.910  -2.417 132.533  0.00  0.00    +0.277 C 
ENDBRANCH  12  19
BRANCH  13  21
ATOM     21  O   LIG A   1      -7.948  -1.407 131.392  0.00  0.00    -0.491 OA
ATOM     22  C   LIG A   1      -8.648  -0.165 131.360  0.00  0.00    +0.277 C 
ENDBRANCH  13  21
ENDBRANCH   1  15
BRANCH   5  23
ATOM     23  O   LIG A   1      -9.619   2.605 124.721  0.00  0.00    -0.503 OA
ATOM     24  H   LIG A   1      -9.782   2.838 123.795  0.00  0.00    +0.292 HD
ENDBRANCH   5  23
BRANCH   6  25
ATOM     25  O   LIG A   1      -7.013   2.289 123.378  0.00  0.00    -0.491 OA
ATOM     26  C   LIG A   1      -6.245   3.242 124.102  0.00  0.00    +0.277 C 
ENDBRANCH   6  25
TORSDOF 6
ENDMDL
MODEL 7
REMARK VINA RESULT:      -6.3      2.476      6.095
REMARK  Name = NuBBE_2345
REMARK  11 active torsions:
REMARK  status: ('A' for Active; 'I' for Inactive)
REMARK    1  A    between atoms: C_1  and  O_2
REMARK    2  A    between atoms: O_2  and  C_3
REMARK    3  A    between atoms: C_4  and  O_5
REMARK    4  A    between atoms: O_5  and  C_6
REMARK    5  A    between atoms: C_7  and  O_8
REMARK    6  A    between atoms: O_8  and  C_9
REMARK    7  A    between atoms: C_11  and  C_12
REMARK    8  A    between atoms: C_17  and  O_18
REMARK    9  A    between atoms: C_19  and  O_20
REMARK   10  A    between atoms: O_20  and  C_21
REMARK   11  A    between atoms: C_24  and  C_26
REMARK                            x       y       z     vdW  Elec       q    Type
REMARK                         _______ _______ _______ _____ _____    ______ ____
ROOT
ATOM      1  C   LIG A   1      -7.832   1.772 123.713  0.00  0.00    +0.211 C 
ATOM      2  O   LIG A   1      -6.807   0.898 123.164  0.00  0.00    -0.483 OA
ATOM      3  C   LIG A   1      -7.162  -0.350 123.604  0.00  0.00    +0.129 A 
ATOM      4  C   LIG A   1      -6.307  -1.438 123.570  0.00  0.00    +0.095 A 
ATOM      5  C   LIG A   1      -6.751  -2.629 124.155  0.00  0.00    +0.162 A 
ATOM      6  C   LIG A   1      -8.026  -2.722 124.743  0.00  0.00    +0.162 A 
ATOM      7  C   LIG A   1      -8.870  -1.596 124.749  0.00  0.00    +0.057 A 
ATOM      8  C   LIG A   1      -8.419  -0.421 124.168  0.00  0.00    +0.005 A 
ATOM      9  C   LIG A   1      -9.074   0.914 124.081  0.00  0.00    +0.065 C 
ATOM     10  C   LIG A   1     -10.134   0.950 122.984  0.00  0.00    +0.016 C 
ENDROOT
BRANCH   1  15
ATOM     11  C   LIG A   1      -5.390   3.745 125.923  0.00  0.00    +0.166 A 
ATOM     12  C   LIG A   1      -6.210   4.113 127.012  0.00  0.00    +0.203 A 
ATOM     13  C   LIG A   1      -7.553   3.675 127.040  0.00  0.00    +0.166 A 
ATOM     14  C   LIG A   1      -8.058   2.915 125.981  0.00  0.00    +0.057 A 
ATOM     15  C   LIG A   1      -7.259   2.549 124.892  0.00  0.00    +0.000 A 
ATOM     16  C   LIG A   1      -5.917   2.938 124.900  0.00  0.00    +0.057 A 
BRANCH  11  18
ATOM     17  C   LIG A   1      -3.107   3.250 126.373  0.00  0.00    +0.277 C 
ATOM     18  O   LIG A   1      -4.085   4.166 125.890  0.00  0.00    -0.491 OA
ENDBRANCH  11  18
BRANCH  12  19
ATOM     19  O   LIG A   1      -5.864   4.960 128.040  0.00  0.00    -0.488 OA
ATOM     20  C   LIG A   1      -5.156   4.432 129.151  0.00  0.00    +0.277 C 
ENDBRANCH  12  19
BRANCH  13  21
ATOM     21  O   LIG A   1      -8.317   4.033 128.130  0.00  0.00    -0.491 OA
ATOM     22  C   LIG A   1      -8.590   3.014 129.090  0.00  0.00    +0.277 C 
ENDBRANCH  13  21
ENDBRANCH   1  15
BRANCH   5  23
ATOM     23  O   LIG A   1      -5.878  -3.687 124.176  0.00  0.00    -0.503 OA
ATOM     24  H   LIG A   1      -6.346  -4.481 124.475  0.00  0.00    +0.292 HD
ENDBRANCH   5  23
BRANCH   6  25
ATOM     25  O   LIG A   1      -8.555  -3.798 125.407  0.00  0.00    -0.491 OA
ATOM     26  C   LIG A   1      -8.816  -3.634 126.795  0.00  0.00    +0.277 C 
ENDBRANCH   6  25
TORSDOF 6
ENDMDL
MODEL 8
REMARK VINA RESULT:      -6.2      2.783      7.652
REMARK  Name = NuBBE_2345
REMARK  11 active torsions:
REMARK  status: ('A' for Active; 'I' for Inactive)
REMARK    1  A    between atoms: C_1  and  O_2
REMARK    2  A    between atoms: O_2  and  C_3
REMARK    3  A    between atoms: C_4  and  O_5
REMARK    4  A    between atoms: O_5  and  C_6
REMARK    5  A    between atoms: C_7  and  O_8
REMARK    6  A    between atoms: O_8  and  C_9
REMARK    7  A    between atoms: C_11  and  C_12
REMARK    8  A    between atoms: C_17  and  O_18
REMARK    9  A    between atoms: C_19  and  O_20
REMARK   10  A    between atoms: O_20  and  C_21
REMARK   11  A    between atoms: C_24  and  C_26
REMARK                            x       y       z     vdW  Elec       q    Type
REMARK                         _______ _______ _______ _____ _____    ______ ____
ROOT
ATOM      1  C   LIG A   1      -7.640  -1.815 127.572  0.00  0.00    +0.211 C 
ATOM      2  O   LIG A   1      -6.215  -2.022 127.371  0.00  0.00    -0.483 OA
ATOM      3  C   LIG A   1      -5.818  -2.719 128.482  0.00  0.00    +0.129 A 
ATOM      4  C   LIG A   1      -4.493  -2.866 128.852  0.00  0.00    +0.095 A 
ATOM      5  C   LIG A   1      -4.227  -3.502 130.070  0.00  0.00    +0.162 A 
ATOM      6  C   LIG A   1      -5.269  -3.988 130.882  0.00  0.00    +0.162 A 
ATOM      7  C   LIG A   1      -6.604  -3.827 130.466  0.00  0.00    +0.057 A 
ATOM      8  C   LIG A   1      -6.855  -3.194 129.259  0.00  0.00    +0.005 A 
ATOM      9  C   LIG A   1      -8.152  -2.850 128.613  0.00  0.00    +0.065 C 
ATOM     10  C   LIG A   1      -8.785  -4.064 127.940  0.00  0.00    +0.016 C 
ENDROOT
BRANCH   1  15
ATOM     11  C   LIG A   1      -8.390   1.944 127.356  0.00  0.00    +0.166 A 
ATOM     12  C   LIG A   1      -8.498   2.301 128.718  0.00  0.00    +0.203 A 
ATOM     13  C   LIG A   1      -8.280   1.316 129.706  0.00  0.00    +0.166 A 
ATOM     14  C   LIG A   1      -7.994   0.002 129.326  0.00  0.00    +0.057 A 
ATOM     15  C   LIG A   1      -7.891  -0.369 127.981  0.00  0.00    +0.000 A 
ATOM     16  C   LIG A   1      -8.052   0.625 127.010  0.00  0.00    +0.057 A 
BRANCH  11  18
ATOM     17  C   LIG A   1      -7.440   3.428 125.758  0.00  0.00    +0.277 C 
ATOM     18  O   LIG A   1      -8.599   2.896 126.391  0.00  0.00    -0.491 OA
ENDBRANCH  11  18
BRANCH  12  19
ATOM     19  O   LIG A   1      -8.898   3.524 129.207  0.00  0.00    -0.488 OA
ATOM     20  C   LIG A   1      -7.938   4.565 129.315  0.00  0.00    +0.277 C 
ENDBRANCH  12  19
BRANCH  13  21
ATOM     21  O   LIG A   1      -8.368   1.707 131.025  0.00  0.00    -0.491 OA
ATOM     22  C   LIG A   1      -9.430   1.147 131.795  0.00  0.00    +0.277 C 
ENDBRANCH  13  21
ENDBRANCH   1  15
BRANCH   5  23
ATOM     23  O   LIG A   1      -2.917  -3.591 130.464  0.00  0.00    -0.503 OA
ATOM     24  H   LIG A   1      -2.729  -4.499 130.748  0.00  0.00    +0.292 HD
ENDBRANCH   5  23
BRANCH   6  25
ATOM     25  O   LIG A   1      -5.154  -4.563 132.121  0.00  0.00    -0.491 OA
ATOM     26  C   LIG A   1      -5.916  -3.985 133.172  0.00  0.00    +0.277 C 
ENDBRANCH   6  25
TORSDOF 6
ENDMDL
MODEL 9
REMARK VINA RESULT:      -6.2      2.845      6.273
REMARK  Name = NuBBE_2345
REMARK  11 active torsions:
REMARK  status: ('A' for Active; 'I' for Inactive)
REMARK    1  A    between atoms: C_1  and  O_2
REMARK    2  A    between atoms: O_2  and  C_3
REMARK    3  A    between atoms: C_4  and  O_5
REMARK    4  A    between atoms: O_5  and  C_6
REMARK    5  A    between atoms: C_7  and  O_8
REMARK    6  A    between atoms: O_8  and  C_9
REMARK    7  A    between atoms: C_11  and  C_12
REMARK    8  A    between atoms: C_17  and  O_18
REMARK    9  A    between atoms: C_19  and  O_20
REMARK   10  A    between atoms: O_20  and  C_21
REMARK   11  A    between atoms: C_24  and  C_26
REMARK                            x       y       z     vdW  Elec       q    Type
REMARK                         _______ _______ _______ _____ _____    ______ ____
ROOT
ATOM      1  C   LIG A   1      -7.083  -1.535 129.245  0.00  0.00    +0.211 C 
ATOM      2  O   LIG A   1      -8.089  -2.454 128.737  0.00  0.00    -0.483 OA
ATOM      3  C   LIG A   1      -7.713  -2.678 127.439  0.00  0.00    +0.129 A 
ATOM      4  C   LIG A   1      -8.547  -3.251 126.495  0.00  0.00    +0.095 A 
ATOM      5  C   LIG A   1      -8.082  -3.320 125.177  0.00  0.00    +0.162 A 
ATOM      6  C   LIG A   1      -6.808  -2.838 124.826  0.00  0.00    +0.162 A 
ATOM      7  C   LIG A   1      -5.985  -2.270 125.817  0.00  0.00    +0.057 A 
ATOM      8  C   LIG A   1      -6.456  -2.206 127.119  0.00  0.00    +0.005 A 
ATOM      9  C   LIG A   1      -5.827  -1.619 128.335  0.00  0.00    +0.065 C 
ATOM     10  C   LIG A   1      -4.764  -2.544 128.920  0.00  0.00    +0.016 C 
ENDROOT
BRANCH   1  15
ATOM     11  C   LIG A   1      -8.353   1.944 128.235  0.00  0.00    +0.166 A 
ATOM     12  C   LIG A   1      -8.897   2.423 129.446  0.00  0.00    +0.203 A 
ATOM     13  C   LIG A   1      -8.806   1.619 130.605  0.00  0.00    +0.166 A 
ATOM     14  C   LIG A   1      -8.212   0.356 130.530  0.00  0.00    +0.057 A 
ATOM     15  C   LIG A   1      -7.675  -0.133 129.335  0.00  0.00    +0.000 A 
ATOM     16  C   LIG A   1      -7.718   0.691 128.207  0.00  0.00    +0.057 A 
BRANCH  11  18
ATOM     17  C   LIG A   1      -8.347   2.040 125.857  0.00  0.00    +0.277 C 
ATOM     18  O   LIG A   1      -8.436   2.719 127.106  0.00  0.00    -0.491 OA
ENDBRANCH  11  18
BRANCH  12  19
ATOM     19  O   LIG A   1      -9.615   3.585 129.611  0.00  0.00    -0.488 OA
ATOM     20  C   LIG A   1      -8.911   4.812 129.733  0.00  0.00    +0.277 C 
ENDBRANCH  12  19
BRANCH  13  21
ATOM     21  O   LIG A   1      -9.326   2.129 131.776  0.00  0.00    -0.491 OA
ATOM     22  C   LIG A   1      -8.416   2.323 132.856  0.00  0.00    +0.277 C 
ENDBRANCH  13  21
ENDBRANCH   1  15
BRANCH   5  23
ATOM     23  O   LIG A   1      -8.935  -3.831 124.232  0.00  0.00    -0.503 OA
ATOM     24  H   LIG A   1      -8.507  -3.796 123.363  0.00  0.00    +0.292 HD
ENDBRANCH   5  23
BRANCH   6  25
ATOM     25  O   LIG A   1      -6.261  -2.779 123.571  0.00  0.00    -0.491 OA
ATOM     26  C   LIG A   1      -4.879  -3.094 123.455  0.00  0.00    +0.277 C 
ENDBRANCH   6  25
TORSDOF 6
ENDMDL
