MODEL 1
REMARK VINA RESULT:      -7.4      0.000      0.000
REMARK  Name = NuBBE_241
REMARK  7 active torsions:
REMARK  status: ('A' for Active; 'I' for Inactive)
REMARK    1  A    between atoms: O_1  and  C_2
REMARK    2  A    between atoms: C_6  and  O_7
REMARK    3  A    between atoms: C_9  and  O_10
REMARK    4  A    between atoms: C_14  and  C_16
REMARK    5  A    between atoms: C_18  and  O_19
REMARK    6  A    between atoms: C_20  and  O_21
REMARK    7  A    between atoms: C_22  and  O_23
REMARK                            x       y       z     vdW  Elec       q    Type
REMARK                         _______ _______ _______ _____ _____    ______ ____
ROOT
ATOM      1  C   LIG A   1      -8.023   2.905 123.953  0.00  0.00    +0.164 C 
ATOM      2  C   LIG A   1      -8.154   1.895 125.096  0.00  0.00    +0.078 C 
ATOM      3  C   LIG A   1      -6.933   1.876 125.980  0.00  0.00    +0.038 A 
ATOM      4  C   LIG A   1      -6.916   1.205 127.211  0.00  0.00    +0.127 A 
ATOM      5  C   LIG A   1      -5.783   1.215 128.026  0.00  0.00    +0.091 A 
ATOM      6  C   LIG A   1      -4.651   1.905 127.613  0.00  0.00    +0.124 A 
ATOM      7  C   LIG A   1      -4.632   2.564 126.393  0.00  0.00    +0.091 A 
ATOM      8  C   LIG A   1      -5.760   2.533 125.573  0.00  0.00    +0.132 A 
ATOM      9  O   LIG A   1      -5.647   3.213 124.388  0.00  0.00    -0.481 OA
ATOM     10  C   LIG A   1      -6.596   2.815 123.381  0.00  0.00    +0.233 C 
ENDROOT
BRANCH  10  11
ATOM     11  C   LIG A   1      -6.286   3.629 122.133  0.00  0.00    +0.002 A 
ATOM     12  C   LIG A   1      -5.178   4.507 122.168  0.00  0.00    +0.056 A 
ATOM     13  C   LIG A   1      -4.844   5.269 121.050  0.00  0.00    +0.162 A 
ATOM     14  C   LIG A   1      -5.600   5.171 119.891  0.00  0.00    +0.201 A 
ATOM     15  C   LIG A   1      -6.691   4.317 119.843  0.00  0.00    +0.162 A 
ATOM     16  C   LIG A   1      -7.041   3.549 120.948  0.00  0.00    +0.056 A 
BRANCH  13  17
ATOM     17  O   LIG A   1      -3.780   6.127 121.048  0.00  0.00    -0.503 OA
ATOM     18  H   LIG A   1      -4.123   7.034 120.967  0.00  0.00    +0.292 HD
ENDBRANCH  13  17
BRANCH  14  19
ATOM     19  O   LIG A   1      -5.282   5.913 118.785  0.00  0.00    -0.501 OA
ATOM     20  H   LIG A   1      -6.150   6.109 118.374  0.00  0.00    +0.292 HD
ENDBRANCH  14  19
BRANCH  15  21
ATOM     21  O   LIG A   1      -7.436   4.226 118.701  0.00  0.00    -0.503 OA
ATOM     22  H   LIG A   1      -7.152   4.991 118.162  0.00  0.00    +0.292 HD
ENDBRANCH  15  21
ENDBRANCH  10  11
BRANCH   1  23
ATOM     23  O   LIG A   1      -8.325   4.210 124.471  0.00  0.00    -0.388 OA
ATOM     24  H   LIG A   1      -8.575   4.769 123.710  0.00  0.00    +0.210 HD
ENDBRANCH   1  23
BRANCH   4  25
ATOM     25  O   LIG A   1      -7.984   0.504 127.696  0.00  0.00    -0.506 OA
ATOM     26  H   LIG A   1      -7.680  -0.279 128.179  0.00  0.00    +0.292 HD
ENDBRANCH   4  25
BRANCH   6  27
ATOM     27  O   LIG A   1      -3.527   1.953 128.383  0.00  0.00    -0.506 OA
ATOM     28  H   LIG A   1      -3.294   1.047 128.648  0.00  0.00    +0.292 HD
ENDBRANCH   6  27
TORSDOF 7
ENDMDL
MODEL 2
REMARK VINA RESULT:      -7.4      0.185      1.771
REMARK  Name = NuBBE_241
REMARK  7 active torsions:
REMARK  status: ('A' for Active; 'I' for Inactive)
REMARK    1  A    between atoms: O_1  and  C_2
REMARK    2  A    between atoms: C_6  and  O_7
REMARK    3  A    between atoms: C_9  and  O_10
REMARK    4  A    between atoms: C_14  and  C_16
REMARK    5  A    between atoms: C_18  and  O_19
REMARK    6  A    between atoms: C_20  and  O_21
REMARK    7  A    between atoms: C_22  and  O_23
REMARK                            x       y       z     vdW  Elec       q    Type
REMARK                         _______ _______ _______ _____ _____    ______ ____
ROOT
ATOM      1  C   LIG A   1      -8.052   2.913 123.855  0.00  0.00    +0.164 C 
ATOM      2  C   LIG A   1      -8.261   1.869 124.954  0.00  0.00    +0.078 C 
ATOM      3  C   LIG A   1      -7.082   1.784 125.889  0.00  0.00    +0.038 A 
ATOM      4  C   LIG A   1      -7.138   1.070 127.095  0.00  0.00    +0.127 A 
ATOM      5  C   LIG A   1      -6.044   1.020 127.959  0.00  0.00    +0.091 A 
ATOM      6  C   LIG A   1      -4.876   1.692 127.622  0.00  0.00    +0.124 A 
ATOM      7  C   LIG A   1      -4.784   2.393 126.428  0.00  0.00    +0.091 A 
ATOM      8  C   LIG A   1      -5.875   2.421 125.558  0.00  0.00    +0.132 A 
ATOM      9  O   LIG A   1      -5.690   3.140 124.405  0.00  0.00    -0.481 OA
ATOM     10  C   LIG A   1      -6.603   2.804 123.343  0.00  0.00    +0.233 C 
ENDROOT
BRANCH  10  11
ATOM     11  C   LIG A   1      -6.216   3.652 122.140  0.00  0.00    +0.002 A 
ATOM     12  C   LIG A   1      -6.990   3.531 120.963  0.00  0.00    +0.056 A 
ATOM     13  C   LIG A   1      -6.685   4.291 119.836  0.00  0.00    +0.162 A 
ATOM     14  C   LIG A   1      -5.615   5.173 119.861  0.00  0.00    +0.201 A 
ATOM     15  C   LIG A   1      -4.845   5.300 121.006  0.00  0.00    +0.162 A 
ATOM     16  C   LIG A   1      -5.133   4.550 122.142  0.00  0.00    +0.056 A 
BRANCH  13  17
ATOM     17  O   LIG A   1      -7.412   4.200 118.681  0.00  0.00    -0.503 OA
ATOM     18  H   LIG A   1      -7.094   4.888 118.069  0.00  0.00    +0.292 HD
ENDBRANCH  13  17
BRANCH  14  19
ATOM     19  O   LIG A   1      -5.306   5.927 118.760  0.00  0.00    -0.501 OA
ATOM     20  H   LIG A   1      -4.602   6.530 119.077  0.00  0.00    +0.292 HD
ENDBRANCH  14  19
BRANCH  15  21
ATOM     21  O   LIG A   1      -3.791   6.168 121.026  0.00  0.00    -0.503 OA
ATOM     22  H   LIG A   1      -3.012   5.602 121.200  0.00  0.00    +0.292 HD
ENDBRANCH  15  21
ENDBRANCH  10  11
BRANCH   1  23
ATOM     23  O   LIG A   1      -8.342   4.208 124.406  0.00  0.00    -0.388 OA
ATOM     24  H   LIG A   1      -8.449   4.091 125.370  0.00  0.00    +0.210 HD
ENDBRANCH   1  23
BRANCH   4  25
ATOM     25  O   LIG A   1      -8.245   0.383 127.507  0.00  0.00    -0.506 OA
ATOM     26  H   LIG A   1      -9.049   0.809 127.172  0.00  0.00    +0.292 HD
ENDBRANCH   4  25
BRANCH   6  27
ATOM     27  O   LIG A   1      -3.786   1.681 128.441  0.00  0.00    -0.506 OA
ATOM     28  H   LIG A   1      -3.081   2.204 128.025  0.00  0.00    +0.292 HD
ENDBRANCH   6  27
TORSDOF 7
ENDMDL
MODEL 3
REMARK VINA RESULT:      -7.3      1.959      7.239
REMARK  Name = NuBBE_241
REMARK  7 active torsions:
REMARK  status: ('A' for Active; 'I' for Inactive)
REMARK    1  A    between atoms: O_1  and  C_2
REMARK    2  A    between atoms: C_6  and  O_7
REMARK    3  A    between atoms: C_9  and  O_10
REMARK    4  A    between atoms: C_14  and  C_16
REMARK    5  A    between atoms: C_18  and  O_19
REMARK    6  A    between atoms: C_20  and  O_21
REMARK    7  A    between atoms: C_22  and  O_23
REMARK                            x       y       z     vdW  Elec       q    Type
REMARK                         _______ _______ _______ _____ _____    ______ ____
ROOT
ATOM      1  C   LIG A   1      -6.019   3.569 124.010  0.00  0.00    +0.164 C 
ATOM      2  C   LIG A   1      -5.061   4.380 123.133  0.00  0.00    +0.078 C 
ATOM      3  C   LIG A   1      -5.551   4.495 121.712  0.00  0.00    +0.038 A 
ATOM      4  C   LIG A   1      -4.964   5.375 120.792  0.00  0.00    +0.127 A 
ATOM      5  C   LIG A   1      -5.444   5.484 119.486  0.00  0.00    +0.091 A 
ATOM      6  C   LIG A   1      -6.525   4.708 119.089  0.00  0.00    +0.124 A 
ATOM      7  C   LIG A   1      -7.115   3.816 119.972  0.00  0.00    +0.091 A 
ATOM      8  C   LIG A   1      -6.618   3.696 121.270  0.00  0.00    +0.132 A 
ATOM      9  O   LIG A   1      -7.267   2.790 122.069  0.00  0.00    -0.481 OA
ATOM     10  C   LIG A   1      -6.503   2.347 123.206  0.00  0.00    +0.233 C 
ENDROOT
BRANCH  10  11
ATOM     11  C   LIG A   1      -7.352   1.316 123.936  0.00  0.00    +0.002 A 
ATOM     12  C   LIG A   1      -8.194   0.481 123.166  0.00  0.00    +0.056 A 
ATOM     13  C   LIG A   1      -8.985  -0.486 123.784  0.00  0.00    +0.162 A 
ATOM     14  C   LIG A   1      -8.952  -0.635 125.162  0.00  0.00    +0.201 A 
ATOM     15  C   LIG A   1      -8.135   0.179 125.930  0.00  0.00    +0.162 A 
ATOM     16  C   LIG A   1      -7.338   1.151 125.333  0.00  0.00    +0.056 A 
BRANCH  13  17
ATOM     17  O   LIG A   1      -9.810  -1.311 123.071  0.00  0.00    -0.503 OA
ATOM     18  H   LIG A   1     -10.563  -1.551 123.640  0.00  0.00    +0.292 HD
ENDBRANCH  13  17
BRANCH  14  19
ATOM     19  O   LIG A   1      -9.724  -1.582 125.780  0.00  0.00    -0.501 OA
ATOM     20  H   LIG A   1     -10.447  -1.752 125.141  0.00  0.00    +0.292 HD
ENDBRANCH  14  19
BRANCH  15  21
ATOM     21  O   LIG A   1      -8.108   0.032 127.288  0.00  0.00    -0.503 OA
ATOM     22  H   LIG A   1      -8.092  -0.935 127.429  0.00  0.00    +0.292 HD
ENDBRANCH  15  21
ENDBRANCH  10  11
BRANCH   1  23
ATOM     23  O   LIG A   1      -7.100   4.427 124.406  0.00  0.00    -0.388 OA
ATOM     24  H   LIG A   1      -7.850   4.238 123.809  0.00  0.00    +0.210 HD
ENDBRANCH   1  23
BRANCH   4  25
ATOM     25  O   LIG A   1      -3.900   6.176 121.096  0.00  0.00    -0.506 OA
ATOM     26  H   LIG A   1      -4.155   6.836 121.758  0.00  0.00    +0.292 HD
ENDBRANCH   4  25
BRANCH   6  27
ATOM     27  O   LIG A   1      -7.035   4.790 117.827  0.00  0.00    -0.506 OA
ATOM     28  H   LIG A   1      -6.296   4.839 117.197  0.00  0.00    +0.292 HD
ENDBRANCH   6  27
TORSDOF 7
ENDMDL
MODEL 4
REMARK VINA RESULT:      -7.2      1.628      6.680
REMARK  Name = NuBBE_241
REMARK  7 active torsions:
REMARK  status: ('A' for Active; 'I' for Inactive)
REMARK    1  A    between atoms: O_1  and  C_2
REMARK    2  A    between atoms: C_6  and  O_7
REMARK    3  A    between atoms: C_9  and  O_10
REMARK    4  A    between atoms: C_14  and  C_16
REMARK    5  A    between atoms: C_18  and  O_19
REMARK    6  A    between atoms: C_20  and  O_21
REMARK    7  A    between atoms: C_22  and  O_23
REMARK                            x       y       z     vdW  Elec       q    Type
REMARK                         _______ _______ _______ _____ _____    ______ ____
ROOT
ATOM      1  C   LIG A   1      -7.701   2.249 123.440  0.00  0.00    +0.164 C 
ATOM      2  C   LIG A   1      -8.569   2.838 122.326  0.00  0.00    +0.078 C 
ATOM      3  C   LIG A   1      -7.748   3.567 121.292  0.00  0.00    +0.038 A 
ATOM      4  C   LIG A   1      -8.294   3.987 120.070  0.00  0.00    +0.127 A 
ATOM      5  C   LIG A   1      -7.514   4.641 119.116  0.00  0.00    +0.091 A 
ATOM      6  C   LIG A   1      -6.172   4.881 119.378  0.00  0.00    +0.124 A 
ATOM      7  C   LIG A   1      -5.608   4.492 120.585  0.00  0.00    +0.091 A 
ATOM      8  C   LIG A   1      -6.398   3.857 121.544  0.00  0.00    +0.132 A 
ATOM      9  O   LIG A   1      -5.752   3.510 122.703  0.00  0.00    -0.481 OA
ATOM     10  C   LIG A   1      -6.627   3.284 123.824  0.00  0.00    +0.233 C 
ENDROOT
BRANCH  10  11
ATOM     11  C   LIG A   1      -5.741   2.968 125.021  0.00  0.00    +0.002 A 
ATOM     12  C   LIG A   1      -4.827   3.956 125.453  0.00  0.00    +0.056 A 
ATOM     13  C   LIG A   1      -3.999   3.722 126.549  0.00  0.00    +0.162 A 
ATOM     14  C   LIG A   1      -4.066   2.514 127.225  0.00  0.00    +0.201 A 
ATOM     15  C   LIG A   1      -4.954   1.533 126.811  0.00  0.00    +0.162 A 
ATOM     16  C   LIG A   1      -5.788   1.747 125.718  0.00  0.00    +0.056 A 
BRANCH  13  17
ATOM     17  O   LIG A   1      -3.104   4.655 126.994  0.00  0.00    -0.503 OA
ATOM     18  H   LIG A   1      -3.480   5.538 126.829  0.00  0.00    +0.292 HD
ENDBRANCH  13  17
BRANCH  14  19
ATOM     19  O   LIG A   1      -3.258   2.272 128.304  0.00  0.00    -0.501 OA
ATOM     20  H   LIG A   1      -3.612   1.440 128.682  0.00  0.00    +0.292 HD
ENDBRANCH  14  19
BRANCH  15  21
ATOM     21  O   LIG A   1      -5.014   0.343 127.477  0.00  0.00    -0.503 OA
ATOM     22  H   LIG A   1      -5.951   0.069 127.406  0.00  0.00    +0.292 HD
ENDBRANCH  15  21
ENDBRANCH  10  11
BRANCH   1  23
ATOM     23  O   LIG A   1      -7.132   1.020 122.964  0.00  0.00    -0.388 OA
ATOM     24  H   LIG A   1      -7.068   0.418 123.730  0.00  0.00    +0.210 HD
ENDBRANCH   1  23
BRANCH   4  25
ATOM     25  O   LIG A   1      -9.602   3.792 119.728  0.00  0.00    -0.506 OA
ATOM     26  H   LIG A   1      -9.783   4.177 118.858  0.00  0.00    +0.292 HD
ENDBRANCH   4  25
BRANCH   6  27
ATOM     27  O   LIG A   1      -5.369   5.505 118.470  0.00  0.00    -0.506 OA
ATOM     28  H   LIG A   1      -5.245   6.428 118.749  0.00  0.00    +0.292 HD
ENDBRANCH   6  27
TORSDOF 7
ENDMDL
MODEL 5
REMARK VINA RESULT:      -7.0      8.161      9.736
REMARK  Name = NuBBE_241
REMARK  7 active torsions:
REMARK  status: ('A' for Active; 'I' for Inactive)
REMARK    1  A    between atoms: O_1  and  C_2
REMARK    2  A    between atoms: C_6  and  O_7
REMARK    3  A    between atoms: C_9  and  O_10
REMARK    4  A    between atoms: C_14  and  C_16
REMARK    5  A    between atoms: C_18  and  O_19
REMARK    6  A    between atoms: C_20  and  O_21
REMARK    7  A    between atoms: C_22  and  O_23
REMARK                            x       y       z     vdW  Elec       q    Type
REMARK                         _______ _______ _______ _____ _____    ______ ____
ROOT
ATOM      1  C   LIG A   1      -8.215   5.437 132.116  0.00  0.00    +0.164 C 
ATOM      2  C   LIG A   1      -9.694   5.754 132.345  0.00  0.00    +0.078 C 
ATOM      3  C   LIG A   1     -10.274   6.593 131.235  0.00  0.00    +0.038 A 
ATOM      4  C   LIG A   1     -11.653   6.813 131.111  0.00  0.00    +0.127 A 
ATOM      5  C   LIG A   1     -12.174   7.575 130.064  0.00  0.00    +0.091 A 
ATOM      6  C   LIG A   1     -11.312   8.125 129.125  0.00  0.00    +0.124 A 
ATOM      7  C   LIG A   1      -9.941   7.939 129.231  0.00  0.00    +0.091 A 
ATOM      8  C   LIG A   1      -9.425   7.194 130.291  0.00  0.00    +0.132 A 
ATOM      9  O   LIG A   1      -8.060   7.064 130.311  0.00  0.00    -0.481 OA
ATOM     10  C   LIG A   1      -7.516   6.707 131.595  0.00  0.00    +0.233 C 
ENDROOT
BRANCH  10  11
ATOM     11  C   LIG A   1      -6.002   6.663 131.439  0.00  0.00    +0.002 A 
ATOM     12  C   LIG A   1      -5.425   7.348 130.345  0.00  0.00    +0.056 A 
ATOM     13  C   LIG A   1      -4.044   7.348 130.160  0.00  0.00    +0.162 A 
ATOM     14  C   LIG A   1      -3.224   6.673 131.051  0.00  0.00    +0.201 A 
ATOM     15  C   LIG A   1      -3.775   5.995 132.127  0.00  0.00    +0.162 A 
ATOM     16  C   LIG A   1      -5.151   5.981 132.328  0.00  0.00    +0.056 A 
BRANCH  13  17
ATOM     17  O   LIG A   1      -3.452   8.000 129.114  0.00  0.00    -0.503 OA
ATOM     18  H   LIG A   1      -2.732   8.550 129.469  0.00  0.00    +0.292 HD
ENDBRANCH  13  17
BRANCH  14  19
ATOM     19  O   LIG A   1      -1.865   6.667 130.882  0.00  0.00    -0.501 OA
ATOM     20  H   LIG A   1      -1.746   6.833 129.923  0.00  0.00    +0.292 HD
ENDBRANCH  14  19
BRANCH  15  21
ATOM     21  O   LIG A   1      -2.964   5.328 133.001  0.00  0.00    -0.503 OA
ATOM     22  H   LIG A   1      -3.559   4.699 133.456  0.00  0.00    +0.292 HD
ENDBRANCH  15  21
ENDBRANCH  10  11
BRANCH   1  23
ATOM     23  O   LIG A   1      -8.129   4.344 131.188  0.00  0.00    -0.388 OA
ATOM     24  H   LIG A   1      -8.909   4.403 130.603  0.00  0.00    +0.210 HD
ENDBRANCH   1  23
BRANCH   4  25
ATOM     25  O   LIG A   1     -12.573   6.310 131.987  0.00  0.00    -0.506 OA
ATOM     26  H   LIG A   1     -12.708   6.925 132.723  0.00  0.00    +0.292 HD
ENDBRANCH   4  25
BRANCH   6  27
ATOM     27  O   LIG A   1     -11.777   8.866 128.079  0.00  0.00    -0.506 OA
ATOM     28  H   LIG A   1     -12.415   9.515 128.419  0.00  0.00    +0.292 HD
ENDBRANCH   6  27
TORSDOF 7
ENDMDL
MODEL 6
REMARK VINA RESULT:      -6.9      3.495      5.002
REMARK  Name = NuBBE_241
REMARK  7 active torsions:
REMARK  status: ('A' for Active; 'I' for Inactive)
REMARK    1  A    between atoms: O_1  and  C_2
REMARK    2  A    between atoms: C_6  and  O_7
REMARK    3  A    between atoms: C_9  and  O_10
REMARK    4  A    between atoms: C_14  and  C_16
REMARK    5  A    between atoms: C_18  and  O_19
REMARK    6  A    between atoms: C_20  and  O_21
REMARK    7  A    between atoms: C_22  and  O_23
REMARK                            x       y       z     vdW  Elec       q    Type
REMARK                         _______ _______ _______ _____ _____    ______ ____
ROOT
ATOM      1  C   LIG A   1      -7.073   4.330 125.402  0.00  0.00    +0.164 C 
ATOM      2  C   LIG A   1      -6.202   5.076 126.415  0.00  0.00    +0.078 C 
ATOM      3  C   LIG A   1      -4.858   4.419 126.601  0.00  0.00    +0.038 A 
ATOM      4  C   LIG A   1      -3.814   5.045 127.299  0.00  0.00    +0.127 A 
ATOM      5  C   LIG A   1      -2.569   4.431 127.443  0.00  0.00    +0.091 A 
ATOM      6  C   LIG A   1      -2.357   3.178 126.883  0.00  0.00    +0.124 A 
ATOM      7  C   LIG A   1      -3.375   2.527 126.202  0.00  0.00    +0.091 A 
ATOM      8  C   LIG A   1      -4.624   3.137 126.080  0.00  0.00    +0.132 A 
ATOM      9  O   LIG A   1      -5.566   2.417 125.389  0.00  0.00    -0.481 OA
ATOM     10  C   LIG A   1      -6.925   2.817 125.648  0.00  0.00    +0.233 C 
ENDROOT
BRANCH  10  11
ATOM     11  C   LIG A   1      -7.821   1.883 124.847  0.00  0.00    +0.002 A 
ATOM     12  C   LIG A   1      -7.222   0.778 124.199  0.00  0.00    +0.056 A 
ATOM     13  C   LIG A   1      -7.998  -0.113 123.461  0.00  0.00    +0.162 A 
ATOM     14  C   LIG A   1      -9.368   0.078 123.356  0.00  0.00    +0.201 A 
ATOM     15  C   LIG A   1      -9.969   1.159 123.983  0.00  0.00    +0.162 A 
ATOM     16  C   LIG A   1      -9.211   2.061 124.723  0.00  0.00    +0.056 A 
BRANCH  13  17
ATOM     17  O   LIG A   1      -7.453  -1.193 122.822  0.00  0.00    -0.503 OA
ATOM     18  H   LIG A   1      -6.681  -0.886 122.314  0.00  0.00    +0.292 HD
ENDBRANCH  13  17
BRANCH  14  19
ATOM     19  O   LIG A   1     -10.141  -0.791 122.634  0.00  0.00    -0.501 OA
ATOM     20  H   LIG A   1     -10.837  -0.221 122.245  0.00  0.00    +0.292 HD
ENDBRANCH  14  19
BRANCH  15  21
ATOM     21  O   LIG A   1     -11.317   1.347 123.874  0.00  0.00    -0.503 OA
ATOM     22  H   LIG A   1     -11.647   0.522 123.466  0.00  0.00    +0.292 HD
ENDBRANCH  15  21
ENDBRANCH  10  11
BRANCH   1  23
ATOM     23  O   LIG A   1      -6.656   4.715 124.083  0.00  0.00    -0.388 OA
ATOM     24  H   LIG A   1      -7.383   5.238 123.693  0.00  0.00    +0.210 HD
ENDBRANCH   1  23
BRANCH   4  25
ATOM     25  O   LIG A   1      -3.935   6.276 127.879  0.00  0.00    -0.506 OA
ATOM     26  H   LIG A   1      -4.373   6.892 127.272  0.00  0.00    +0.292 HD
ENDBRANCH   4  25
BRANCH   6  27
ATOM     27  O   LIG A   1      -1.153   2.546 126.988  0.00  0.00    -0.506 OA
ATOM     28  H   LIG A   1      -0.953   2.417 127.930  0.00  0.00    +0.292 HD
ENDBRANCH   6  27
TORSDOF 7
ENDMDL
MODEL 7
REMARK VINA RESULT:      -6.8      8.559      9.599
REMARK  Name = NuBBE_241
REMARK  7 active torsions:
REMARK  status: ('A' for Active; 'I' for Inactive)
REMARK    1  A    between atoms: O_1  and  C_2
REMARK    2  A    between atoms: C_6  and  O_7
REMARK    3  A    between atoms: C_9  and  O_10
REMARK    4  A    between atoms: C_14  and  C_16
REMARK    5  A    between atoms: C_18  and  O_19
REMARK    6  A    between atoms: C_20  and  O_21
REMARK    7  A    between atoms: C_22  and  O_23
REMARK                            x       y       z     vdW  Elec       q    Type
REMARK                         _______ _______ _______ _____ _____    ______ ____
ROOT
ATOM      1  C   LIG A   1      -8.921   5.301 133.012  0.00  0.00    +0.164 C 
ATOM      2  C   LIG A   1      -7.688   4.454 133.337  0.00  0.00    +0.078 C 
ATOM      3  C   LIG A   1      -6.416   5.084 132.832  0.00  0.00    +0.038 A 
ATOM      4  C   LIG A   1      -5.150   4.612 133.209  0.00  0.00    +0.127 A 
ATOM      5  C   LIG A   1      -3.983   5.221 132.748  0.00  0.00    +0.091 A 
ATOM      6  C   LIG A   1      -4.073   6.318 131.901  0.00  0.00    +0.124 A 
ATOM      7  C   LIG A   1      -5.310   6.798 131.498  0.00  0.00    +0.091 A 
ATOM      8  C   LIG A   1      -6.474   6.171 131.945  0.00  0.00    +0.132 A 
ATOM      9  O   LIG A   1      -7.648   6.717 131.493  0.00  0.00    -0.481 OA
ATOM     10  C   LIG A   1      -8.783   5.834 131.573  0.00  0.00    +0.233 C 
ENDROOT
BRANCH  10  11
ATOM     11  C   LIG A   1      -9.970   6.583 130.984  0.00  0.00    +0.002 A 
ATOM     12  C   LIG A   1      -9.759   7.354 129.818  0.00  0.00    +0.056 A 
ATOM     13  C   LIG A   1     -10.813   8.052 129.232  0.00  0.00    +0.162 A 
ATOM     14  C   LIG A   1     -12.081   7.995 129.791  0.00  0.00    +0.201 A 
ATOM     15  C   LIG A   1     -12.302   7.246 130.937  0.00  0.00    +0.162 A 
ATOM     16  C   LIG A   1     -11.263   6.543 131.538  0.00  0.00    +0.056 A 
BRANCH  13  17
ATOM     17  O   LIG A   1     -10.646   8.806 128.104  0.00  0.00    -0.503 OA
ATOM     18  H   LIG A   1      -9.944   8.397 127.568  0.00  0.00    +0.292 HD
ENDBRANCH  13  17
BRANCH  14  19
ATOM     19  O   LIG A   1     -13.125   8.675 129.225  0.00  0.00    -0.501 OA
ATOM     20  H   LIG A   1     -12.699   9.444 128.791  0.00  0.00    +0.292 HD
ENDBRANCH  14  19
BRANCH  15  21
ATOM     21  O   LIG A   1     -13.551   7.195 131.487  0.00  0.00    -0.503 OA
ATOM     22  H   LIG A   1     -13.743   8.119 131.743  0.00  0.00    +0.292 HD
ENDBRANCH  15  21
ENDBRANCH  10  11
BRANCH   1  23
ATOM     23  O   LIG A   1      -9.008   6.356 133.982  0.00  0.00    -0.388 OA
ATOM     24  H   LIG A   1      -8.099   6.677 134.139  0.00  0.00    +0.210 HD
ENDBRANCH   1  23
BRANCH   4  25
ATOM     25  O   LIG A   1      -4.968   3.541 134.038  0.00  0.00    -0.506 OA
ATOM     26  H   LIG A   1      -4.478   2.842 133.580  0.00  0.00    +0.292 HD
ENDBRANCH   4  25
BRANCH   6  27
ATOM     27  O   LIG A   1      -2.960   6.953 131.437  0.00  0.00    -0.506 OA
ATOM     28  H   LIG A   1      -2.818   6.692 130.511  0.00  0.00    +0.292 HD
ENDBRANCH   6  27
TORSDOF 7
ENDMDL
MODEL 8
REMARK VINA RESULT:      -6.7      3.760      5.673
REMARK  Name = NuBBE_241
REMARK  7 active torsions:
REMARK  status: ('A' for Active; 'I' for Inactive)
REMARK    1  A    between atoms: O_1  and  C_2
REMARK    2  A    between atoms: C_6  and  O_7
REMARK    3  A    between atoms: C_9  and  O_10
REMARK    4  A    between atoms: C_14  and  C_16
REMARK    5  A    between atoms: C_18  and  O_19
REMARK    6  A    between atoms: C_20  and  O_21
REMARK    7  A    between atoms: C_22  and  O_23
REMARK                            x       y       z     vdW  Elec       q    Type
REMARK                         _______ _______ _______ _____ _____    ______ ____
ROOT
ATOM      1  C   LIG A   1      -7.961   3.164 125.100  0.00  0.00    +0.164 C 
ATOM      2  C   LIG A   1      -8.887   2.499 124.079  0.00  0.00    +0.078 C 
ATOM      3  C   LIG A   1      -8.579   1.033 123.903  0.00  0.00    +0.038 A 
ATOM      4  C   LIG A   1      -9.434   0.173 123.200  0.00  0.00    +0.127 A 
ATOM      5  C   LIG A   1      -9.145  -1.186 123.066  0.00  0.00    +0.091 A 
ATOM      6  C   LIG A   1      -7.989  -1.697 123.641  0.00  0.00    +0.124 A 
ATOM      7  C   LIG A   1      -7.115  -0.868 124.328  0.00  0.00    +0.091 A 
ATOM      8  C   LIG A   1      -7.400   0.494 124.441  0.00  0.00    +0.132 A 
ATOM      9  O   LIG A   1      -6.479   1.232 125.139  0.00  0.00    -0.481 OA
ATOM     10  C   LIG A   1      -6.528   2.647 124.873  0.00  0.00    +0.233 C 
ENDROOT
BRANCH  10  11
ATOM     11  C   LIG A   1      -5.412   3.290 125.684  0.00  0.00    +0.002 A 
ATOM     12  C   LIG A   1      -4.248   2.527 125.935  0.00  0.00    +0.056 A 
ATOM     13  C   LIG A   1      -3.191   3.070 126.664  0.00  0.00    +0.162 A 
ATOM     14  C   LIG A   1      -3.276   4.367 127.150  0.00  0.00    +0.201 A 
ATOM     15  C   LIG A   1      -4.412   5.125 126.914  0.00  0.00    +0.162 A 
ATOM     16  C   LIG A   1      -5.478   4.601 126.190  0.00  0.00    +0.056 A 
BRANCH  13  17
ATOM     17  O   LIG A   1      -2.051   2.363 126.926  0.00  0.00    -0.503 OA
ATOM     18  H   LIG A   1      -2.264   1.677 127.583  0.00  0.00    +0.292 HD
ENDBRANCH  13  17
BRANCH  14  19
ATOM     19  O   LIG A   1      -2.244   4.912 127.866  0.00  0.00    -0.501 OA
ATOM     20  H   LIG A   1      -1.452   4.437 127.540  0.00  0.00    +0.292 HD
ENDBRANCH  14  19
BRANCH  15  21
ATOM     21  O   LIG A   1      -4.493   6.400 127.397  0.00  0.00    -0.503 OA
ATOM     22  H   LIG A   1      -5.453   6.567 127.485  0.00  0.00    +0.292 HD
ENDBRANCH  15  21
ENDBRANCH  10  11
BRANCH   1  23
ATOM     23  O   LIG A   1      -8.452   2.860 126.415  0.00  0.00    -0.388 OA
ATOM     24  H   LIG A   1      -8.254   1.918 126.584  0.00  0.00    +0.210 HD
ENDBRANCH   1  23
BRANCH   4  25
ATOM     25  O   LIG A   1     -10.591   0.590 122.605  0.00  0.00    -0.506 OA
ATOM     26  H   LIG A   1     -10.415   1.340 122.017  0.00  0.00    +0.292 HD
ENDBRANCH   4  25
BRANCH   6  27
ATOM     27  O   LIG A   1      -7.672  -3.020 123.546  0.00  0.00    -0.506 OA
ATOM     28  H   LIG A   1      -7.122  -3.150 122.754  0.00  0.00    +0.292 HD
ENDBRANCH   6  27
TORSDOF 7
ENDMDL
MODEL 9
REMARK VINA RESULT:      -6.7      1.844      2.735
REMARK  Name = NuBBE_241
REMARK  7 active torsions:
REMARK  status: ('A' for Active; 'I' for Inactive)
REMARK    1  A    between atoms: O_1  and  C_2
REMARK    2  A    between atoms: C_6  and  O_7
REMARK    3  A    between atoms: C_9  and  O_10
REMARK    4  A    between atoms: C_14  and  C_16
REMARK    5  A    between atoms: C_18  and  O_19
REMARK    6  A    between atoms: C_20  and  O_21
REMARK    7  A    between atoms: C_22  and  O_23
REMARK                            x       y       z     vdW  Elec       q    Type
REMARK                         _______ _______ _______ _____ _____    ______ ____
ROOT
ATOM      1  C   LIG A   1      -7.213   4.319 125.104  0.00  0.00    +0.164 C 
ATOM      2  C   LIG A   1      -6.877   3.818 126.510  0.00  0.00    +0.078 C 
ATOM      3  C   LIG A   1      -5.395   3.617 126.703  0.00  0.00    +0.038 A 
ATOM      4  C   LIG A   1      -4.834   3.387 127.968  0.00  0.00    +0.127 A 
ATOM      5  C   LIG A   1      -3.458   3.224 128.130  0.00  0.00    +0.091 A 
ATOM      6  C   LIG A   1      -2.626   3.294 127.020  0.00  0.00    +0.124 A 
ATOM      7  C   LIG A   1      -3.154   3.504 125.755  0.00  0.00    +0.091 A 
ATOM      8  C   LIG A   1      -4.533   3.645 125.596  0.00  0.00    +0.132 A 
ATOM      9  O   LIG A   1      -4.959   3.849 124.309  0.00  0.00    -0.481 OA
ATOM     10  C   LIG A   1      -6.350   3.546 124.089  0.00  0.00    +0.233 C 
ENDROOT
BRANCH  10  11
ATOM     11  C   LIG A   1      -6.626   3.777 122.610  0.00  0.00    +0.002 A 
ATOM     12  C   LIG A   1      -7.915   3.470 122.117  0.00  0.00    +0.056 A 
ATOM     13  C   LIG A   1      -8.224   3.672 120.773  0.00  0.00    +0.162 A 
ATOM     14  C   LIG A   1      -7.265   4.176 119.908  0.00  0.00    +0.201 A 
ATOM     15  C   LIG A   1      -5.996   4.479 120.375  0.00  0.00    +0.162 A 
ATOM     16  C   LIG A   1      -5.667   4.283 121.713  0.00  0.00    +0.056 A 
BRANCH  13  17
ATOM     17  O   LIG A   1      -9.460   3.387 120.262  0.00  0.00    -0.503 OA
ATOM     18  H   LIG A   1     -10.118   3.912 120.751  0.00  0.00    +0.292 HD
ENDBRANCH  13  17
BRANCH  14  19
ATOM     19  O   LIG A   1      -7.557   4.380 118.585  0.00  0.00    -0.501 OA
ATOM     20  H   LIG A   1      -6.896   5.044 118.297  0.00  0.00    +0.292 HD
ENDBRANCH  14  19
BRANCH  15  21
ATOM     21  O   LIG A   1      -5.053   4.972 119.519  0.00  0.00    -0.503 OA
ATOM     22  H   LIG A   1      -4.630   4.177 119.137  0.00  0.00    +0.292 HD
ENDBRANCH  15  21
ENDBRANCH  10  11
BRANCH   1  23
ATOM     23  O   LIG A   1      -6.973   5.734 125.062  0.00  0.00    -0.388 OA
ATOM     24  H   LIG A   1      -7.370   6.116 125.868  0.00  0.00    +0.210 HD
ENDBRANCH   1  23
BRANCH   4  25
ATOM     25  O   LIG A   1      -5.576   3.305 129.112  0.00  0.00    -0.506 OA
ATOM     26  H   LIG A   1      -5.622   4.171 129.545  0.00  0.00    +0.292 HD
ENDBRANCH   4  25
BRANCH   6  27
ATOM     27  O   LIG A   1      -1.275   3.153 127.134  0.00  0.00    -0.506 OA
ATOM     28  H   LIG A   1      -0.863   3.443 126.303  0.00  0.00    +0.292 HD
ENDBRANCH   6  27
TORSDOF 7
ENDMDL
