MODEL 1
REMARK VINA RESULT:      -8.3      0.000      0.000
REMARK  Name = NuBBE_61
REMARK  17 active torsions:
REMARK  status: ('A' for Active; 'I' for Inactive)
REMARK    1  A    between atoms: O_1  and  C_2
REMARK    2  A    between atoms: C_6  and  O_15
REMARK    3  A    between atoms: C_9  and  O_11
REMARK    4  A    between atoms: O_11  and  C_12
REMARK    5  A    between atoms: C_12  and  C_13
REMARK    6  A    between atoms: O_15  and  C_16
REMARK    7  A    between atoms: C_16  and  C_17
REMARK    8  A    between atoms: C_20  and  O_22
REMARK    9  A    between atoms: O_22  and  C_23
REMARK   10  A    between atoms: C_23  and  C_24
REMARK   11  A    between atoms: C_25  and  C_26
REMARK   12  A    between atoms: C_34  and  C_36
REMARK   13  A    between atoms: C_37  and  C_38
REMARK   14  A    between atoms: C_37  and  C_39
REMARK   15  A    between atoms: C_39  and  C_40
REMARK   16  A    between atoms: C_41  and  C_42
REMARK   17  A    between atoms: C_41  and  C_43
REMARK                            x       y       z     vdW  Elec       q    Type
REMARK                         _______ _______ _______ _____ _____    ______ ____
ROOT
ATOM      1  C   LIG A   1      -8.977   2.125 132.347  0.00  0.00    +0.138 C 
ATOM      2  C   LIG A   1      -8.424   3.320 131.645  0.00  0.00    +0.010 C 
ATOM      3  C   LIG A   1      -7.832   3.225 130.440  0.00  0.00    +0.012 C 
ATOM      4  C   LIG A   1      -8.182   4.205 129.328  0.00  0.00    +0.343 C 
ATOM      5  O   LIG A   1      -8.166   3.399 128.139  0.00  0.00    -0.297 OA
ATOM      6  C   LIG A   1      -8.268   2.029 128.571  0.00  0.00    +0.328 C 
ATOM      7  C   LIG A   1      -7.295   1.933 129.803  0.00  0.00    +0.100 C 
ATOM      8  C   LIG A   1      -5.767   2.168 129.480  0.00  0.00    +0.194 C 
ATOM      9  C   LIG A   1      -4.905   1.802 130.708  0.00  0.00    +0.049 C 
ATOM     10  C   LIG A   1      -5.014   0.348 131.223  0.00  0.00    -0.004 C 
ATOM     11  C   LIG A   1      -4.221  -0.664 130.398  0.00  0.00    +0.008 C 
ATOM     12  C   LIG A   1      -6.478  -0.049 131.631  0.00  0.00    -0.022 C 
ATOM     13  C   LIG A   1      -6.584   0.379 133.123  0.00  0.00    +0.012 C 
ATOM     14  C   LIG A   1      -7.601   0.642 130.688  0.00  0.00    +0.018 C 
ATOM     15  C   LIG A   1      -8.946   0.869 131.456  0.00  0.00    +0.040 C 
ENDROOT
BRANCH   1  16
ATOM     16  O   LIG A   1     -10.350   2.401 132.635  0.00  0.00    -0.388 OA
ATOM     17  H   LIG A   1     -10.498   3.353 132.508  0.00  0.00    +0.210 HD
ENDBRANCH   1  16
BRANCH   6  18
ATOM     18  O   LIG A   1      -8.037   1.154 127.466  0.00  0.00    -0.434 OA
BRANCH  18  19
ATOM     19  C   LIG A   1      -8.787   1.482 126.369  0.00  0.00    +0.306 C 
ATOM     20  C   LIG A   1      -9.714   0.360 125.971  0.00  0.00    +0.136 C 
ATOM     21  O   LIG A   1      -8.672   2.503 125.731  0.00  0.00    -0.251 OA
ENDBRANCH  18  19
ENDBRANCH   6  18
BRANCH   4  22
ATOM     22  O   LIG A   1      -9.531   4.660 129.524  0.00  0.00    -0.431 OA
BRANCH  22  23
ATOM     23  C   LIG A   1      -9.786   5.959 129.253  0.00  0.00    +0.306 C 
ATOM     24  C   LIG A   1      -9.826   6.767 130.522  0.00  0.00    +0.136 C 
ATOM     25  O   LIG A   1      -9.941   6.439 128.143  0.00  0.00    -0.251 OA
ENDBRANCH  22  23
ENDBRANCH   4  22
BRANCH   8  26
ATOM     26  O   LIG A   1      -5.259   1.410 128.357  0.00  0.00    -0.457 OA
BRANCH  26  27
ATOM     27  C   LIG A   1      -4.825   2.040 127.217  0.00  0.00    +0.332 C 
ATOM     28  O   LIG A   1      -4.410   3.166 127.108  0.00  0.00    -0.246 OA
BRANCH  27  29
ATOM     29  C   LIG A   1      -5.059   1.144 126.041  0.00  0.00    +0.092 C 
ATOM     30  C   LIG A   1      -5.403  -0.152 126.143  0.00  0.00    +0.015 C 
BRANCH  30  31
ATOM     31  C   LIG A   1      -5.825  -1.022 125.029  0.00  0.00    -0.025 A 
ATOM     32  C   LIG A   1      -5.531  -2.395 125.015  0.00  0.00    +0.008 A 
ATOM     33  C   LIG A   1      -6.081  -3.234 124.032  0.00  0.00    +0.001 A 
ATOM     34  C   LIG A   1      -6.941  -2.714 123.068  0.00  0.00    +0.000 A 
ATOM     35  C   LIG A   1      -7.205  -1.349 123.049  0.00  0.00    +0.001 A 
ATOM     36  C   LIG A   1      -6.646  -0.512 124.017  0.00  0.00    +0.008 A 
ENDBRANCH  30  31
ENDBRANCH  27  29
ENDBRANCH  26  27
ENDBRANCH   8  26
BRANCH  12  37
ATOM     37  C   LIG A   1      -6.796  -1.620 131.622  0.00  0.00    +0.034 C 
BRANCH  37  38
ATOM     38  C   LIG A   1      -7.686  -2.200 130.539  0.00  0.00    -0.023 C 
ATOM     39  C   LIG A   1      -7.349  -2.803 129.377  0.00  0.00    -0.055 C 
ATOM     40  C   LIG A   1      -5.960  -3.051 128.848  0.00  0.00    +0.043 C 
BRANCH  39  41
ATOM     41  C   LIG A   1      -8.394  -3.277 128.475  0.00  0.00    -0.005 C 
ATOM     42  C   LIG A   1      -8.499  -2.880 127.201  0.00  0.00    +0.008 C 
ENDBRANCH  39  41
ENDBRANCH  37  38
ENDBRANCH  12  37
TORSDOF 12
ENDMDL
MODEL 2
REMARK VINA RESULT:      -8.2      2.193      5.574
REMARK  Name = NuBBE_61
REMARK  17 active torsions:
REMARK  status: ('A' for Active; 'I' for Inactive)
REMARK    1  A    between atoms: O_1  and  C_2
REMARK    2  A    between atoms: C_6  and  O_15
REMARK    3  A    between atoms: C_9  and  O_11
REMARK    4  A    between atoms: O_11  and  C_12
REMARK    5  A    between atoms: C_12  and  C_13
REMARK    6  A    between atoms: O_15  and  C_16
REMARK    7  A    between atoms: C_16  and  C_17
REMARK    8  A    between atoms: C_20  and  O_22
REMARK    9  A    between atoms: O_22  and  C_23
REMARK   10  A    between atoms: C_23  and  C_24
REMARK   11  A    between atoms: C_25  and  C_26
REMARK   12  A    between atoms: C_34  and  C_36
REMARK   13  A    between atoms: C_37  and  C_38
REMARK   14  A    between atoms: C_37  and  C_39
REMARK   15  A    between atoms: C_39  and  C_40
REMARK   16  A    between atoms: C_41  and  C_42
REMARK   17  A    between atoms: C_41  and  C_43
REMARK                            x       y       z     vdW  Elec       q    Type
REMARK                         _______ _______ _______ _____ _____    ______ ____
ROOT
ATOM      1  C   LIG A   1      -5.729   4.265 126.360  0.00  0.00    +0.138 C 
ATOM      2  C   LIG A   1      -6.293   2.997 125.810  0.00  0.00    +0.010 C 
ATOM      3  C   LIG A   1      -6.950   2.117 126.586  0.00  0.00    +0.012 C 
ATOM      4  C   LIG A   1      -8.272   1.517 126.126  0.00  0.00    +0.343 C 
ATOM      5  O   LIG A   1      -9.053   1.436 127.328  0.00  0.00    -0.297 OA
ATOM      6  C   LIG A   1      -8.435   2.324 128.279  0.00  0.00    +0.328 C 
ATOM      7  C   LIG A   1      -6.893   2.056 128.121  0.00  0.00    +0.100 C 
ATOM      8  C   LIG A   1      -6.414   0.603 128.517  0.00  0.00    +0.194 C 
ATOM      9  C   LIG A   1      -4.871   0.549 128.557  0.00  0.00    +0.049 C 
ATOM     10  C   LIG A   1      -4.169   1.513 129.541  0.00  0.00    -0.004 C 
ATOM     11  C   LIG A   1      -4.197   1.045 130.995  0.00  0.00    +0.008 C 
ATOM     12  C   LIG A   1      -4.508   3.022 129.267  0.00  0.00    -0.022 C 
ATOM     13  C   LIG A   1      -3.437   3.467 128.228  0.00  0.00    +0.012 C 
ATOM     14  C   LIG A   1      -6.028   3.240 128.748  0.00  0.00    +0.018 C 
ATOM     15  C   LIG A   1      -6.153   4.496 127.823  0.00  0.00    +0.040 C 
ENDROOT
BRANCH   1  16
ATOM     16  O   LIG A   1      -6.274   5.340 125.591  0.00  0.00    -0.388 OA
ATOM     17  H   LIG A   1      -6.799   5.899 126.187  0.00  0.00    +0.210 HD
ENDBRANCH   1  16
BRANCH   6  18
ATOM     18  O   LIG A   1      -9.018   2.136 129.569  0.00  0.00    -0.434 OA
BRANCH  18  19
ATOM     19  C   LIG A   1      -9.364   3.317 130.167  0.00  0.00    +0.306 C 
ATOM     20  C   LIG A   1      -9.078   3.298 131.648  0.00  0.00    +0.136 C 
ATOM     21  O   LIG A   1      -9.915   4.240 129.611  0.00  0.00    -0.251 OA
ENDBRANCH  18  19
ENDBRANCH   6  18
BRANCH   4  22
ATOM     22  O   LIG A   1      -8.922   2.455 125.251  0.00  0.00    -0.431 OA
BRANCH  22  23
ATOM     23  C   LIG A   1      -9.599   1.945 124.198  0.00  0.00    +0.306 C 
ATOM     24  C   LIG A   1      -8.947   2.345 122.904  0.00  0.00    +0.136 C 
ATOM     25  O   LIG A   1     -10.588   1.235 124.264  0.00  0.00    -0.251 OA
ENDBRANCH  22  23
ENDBRANCH   4  22
BRANCH   8  26
ATOM     26  O   LIG A   1      -6.895   0.132 129.797  0.00  0.00    -0.457 OA
BRANCH  26  27
ATOM     27  C   LIG A   1      -7.368  -1.148 129.948  0.00  0.00    +0.332 C 
ATOM     28  O   LIG A   1      -7.717  -1.690 130.966  0.00  0.00    -0.246 OA
BRANCH  27  29
ATOM     29  C   LIG A   1      -7.277  -1.864 128.637  0.00  0.00    +0.092 C 
ATOM     30  C   LIG A   1      -8.311  -2.008 127.790  0.00  0.00    +0.015 C 
BRANCH  30  31
ATOM     31  C   LIG A   1      -8.230  -2.535 126.414  0.00  0.00    -0.025 A 
ATOM     32  C   LIG A   1      -9.373  -2.970 125.724  0.00  0.00    +0.008 A 
ATOM     33  C   LIG A   1      -9.301  -3.312 124.363  0.00  0.00    +0.001 A 
ATOM     34  C   LIG A   1      -8.093  -3.206 123.678  0.00  0.00    +0.000 A 
ATOM     35  C   LIG A   1      -6.947  -2.816 124.363  0.00  0.00    +0.001 A 
ATOM     36  C   LIG A   1      -7.017  -2.491 125.719  0.00  0.00    +0.008 A 
ENDBRANCH  30  31
ENDBRANCH  27  29
ENDBRANCH  26  27
ENDBRANCH   8  26
BRANCH  12  37
ATOM     37  C   LIG A   1      -4.317   4.011 130.514  0.00  0.00    +0.034 C 
BRANCH  37  38
ATOM     38  C   LIG A   1      -5.523   4.719 131.102  0.00  0.00    -0.023 C 
ATOM     39  C   LIG A   1      -5.803   6.041 131.163  0.00  0.00    -0.055 C 
ATOM     40  C   LIG A   1      -4.955   7.176 130.651  0.00  0.00    +0.043 C 
BRANCH  39  41
ATOM     41  C   LIG A   1      -7.037   6.493 131.796  0.00  0.00    -0.005 C 
ATOM     42  C   LIG A   1      -8.125   6.856 131.105  0.00  0.00    +0.008 C 
ENDBRANCH  39  41
ENDBRANCH  37  38
ENDBRANCH  12  37
TORSDOF 12
ENDMDL
MODEL 3
REMARK VINA RESULT:      -8.2      3.451      7.458
REMARK  Name = NuBBE_61
REMARK  17 active torsions:
REMARK  status: ('A' for Active; 'I' for Inactive)
REMARK    1  A    between atoms: O_1  and  C_2
REMARK    2  A    between atoms: C_6  and  O_15
REMARK    3  A    between atoms: C_9  and  O_11
REMARK    4  A    between atoms: O_11  and  C_12
REMARK    5  A    between atoms: C_12  and  C_13
REMARK    6  A    between atoms: O_15  and  C_16
REMARK    7  A    between atoms: C_16  and  C_17
REMARK    8  A    between atoms: C_20  and  O_22
REMARK    9  A    between atoms: O_22  and  C_23
REMARK   10  A    between atoms: C_23  and  C_24
REMARK   11  A    between atoms: C_25  and  C_26
REMARK   12  A    between atoms: C_34  and  C_36
REMARK   13  A    between atoms: C_37  and  C_38
REMARK   14  A    between atoms: C_37  and  C_39
REMARK   15  A    between atoms: C_39  and  C_40
REMARK   16  A    between atoms: C_41  and  C_42
REMARK   17  A    between atoms: C_41  and  C_43
REMARK                            x       y       z     vdW  Elec       q    Type
REMARK                         _______ _______ _______ _____ _____    ______ ____
ROOT
ATOM      1  C   LIG A   1      -5.355   1.049 129.458  0.00  0.00    +0.138 C 
ATOM      2  C   LIG A   1      -6.684   1.581 129.036  0.00  0.00    +0.010 C 
ATOM      3  C   LIG A   1      -7.102   2.809 129.391  0.00  0.00    +0.012 C 
ATOM      4  C   LIG A   1      -7.725   3.742 128.360  0.00  0.00    +0.343 C 
ATOM      5  O   LIG A   1      -7.232   5.040 128.724  0.00  0.00    -0.297 OA
ATOM      6  C   LIG A   1      -6.085   4.821 129.566  0.00  0.00    +0.328 C 
ATOM      7  C   LIG A   1      -6.523   3.660 130.533  0.00  0.00    +0.100 C 
ATOM      8  C   LIG A   1      -7.714   4.007 131.512  0.00  0.00    +0.194 C 
ATOM      9  C   LIG A   1      -7.876   2.887 132.562  0.00  0.00    +0.049 C 
ATOM     10  C   LIG A   1      -6.653   2.598 133.463  0.00  0.00    -0.004 C 
ATOM     11  C   LIG A   1      -6.469   3.602 134.600  0.00  0.00    +0.008 C 
ATOM     12  C   LIG A   1      -5.373   2.196 132.647  0.00  0.00    -0.022 C 
ATOM     13  C   LIG A   1      -5.493   0.652 132.491  0.00  0.00    +0.012 C 
ATOM     14  C   LIG A   1      -5.263   2.973 131.228  0.00  0.00    +0.018 C 
ATOM     15  C   LIG A   1      -4.501   2.124 130.157  0.00  0.00    +0.040 C 
ENDROOT
BRANCH   1  16
ATOM     16  O   LIG A   1      -4.657   0.665 128.271  0.00  0.00    -0.388 OA
ATOM     17  H   LIG A   1      -4.018  -0.027 128.509  0.00  0.00    +0.210 HD
ENDBRANCH   1  16
BRANCH   6  18
ATOM     18  O   LIG A   1      -5.668   6.057 130.151  0.00  0.00    -0.434 OA
BRANCH  18  19
ATOM     19  C   LIG A   1      -4.371   6.370 129.850  0.00  0.00    +0.306 C 
ATOM     20  C   LIG A   1      -4.001   7.748 130.340  0.00  0.00    +0.136 C 
ATOM     21  O   LIG A   1      -3.625   5.678 129.194  0.00  0.00    -0.251 OA
ENDBRANCH  18  19
ENDBRANCH   6  18
BRANCH   4  22
ATOM     22  O   LIG A   1      -7.186   3.421 127.066  0.00  0.00    -0.431 OA
BRANCH  22  23
ATOM     23  C   LIG A   1      -7.525   4.236 126.041  0.00  0.00    +0.306 C 
ATOM     24  C   LIG A   1      -6.296   4.827 125.406  0.00  0.00    +0.136 C 
ATOM     25  O   LIG A   1      -8.659   4.456 125.652  0.00  0.00    -0.251 OA
ENDBRANCH  22  23
ENDBRANCH   4  22
BRANCH   8  26
ATOM     26  O   LIG A   1      -7.566   5.253 132.231  0.00  0.00    -0.457 OA
BRANCH  26  27
ATOM     27  C   LIG A   1      -8.651   6.057 132.484  0.00  0.00    +0.332 C 
ATOM     28  O   LIG A   1      -9.152   6.305 133.552  0.00  0.00    -0.246 OA
BRANCH  27  29
ATOM     29  C   LIG A   1      -9.238   6.514 131.186  0.00  0.00    +0.092 C 
ATOM     30  C   LIG A   1     -10.499   6.249 130.801  0.00  0.00    +0.015 C 
BRANCH  30  31
ATOM     31  C   LIG A   1     -11.181   6.830 129.629  0.00  0.00    -0.025 A 
ATOM     32  C   LIG A   1     -10.465   7.450 128.591  0.00  0.00    +0.008 A 
ATOM     33  C   LIG A   1     -11.114   7.847 127.411  0.00  0.00    +0.001 A 
ATOM     34  C   LIG A   1     -12.477   7.613 127.249  0.00  0.00    +0.000 A 
ATOM     35  C   LIG A   1     -13.203   7.038 128.286  0.00  0.00    +0.001 A 
ATOM     36  C   LIG A   1     -12.560   6.656 129.465  0.00  0.00    +0.008 A 
ENDBRANCH  30  31
ENDBRANCH  27  29
ENDBRANCH  26  27
ENDBRANCH   8  26
BRANCH  12  37
ATOM     37  C   LIG A   1      -3.974   2.434 133.393  0.00  0.00    +0.034 C 
BRANCH  37  38
ATOM     38  C   LIG A   1      -2.898   3.267 132.724  0.00  0.00    -0.023 C 
ATOM     39  C   LIG A   1      -2.693   4.604 132.762  0.00  0.00    -0.055 C 
ATOM     40  C   LIG A   1      -3.515   5.630 133.497  0.00  0.00    +0.043 C 
BRANCH  39  41
ATOM     41  C   LIG A   1      -1.583   5.189 132.018  0.00  0.00    -0.005 C 
ATOM     42  C   LIG A   1      -1.055   6.385 132.308  0.00  0.00    +0.008 C 
ENDBRANCH  39  41
ENDBRANCH  37  38
ENDBRANCH  12  37
TORSDOF 12
ENDMDL
MODEL 4
REMARK VINA RESULT:      -8.1      2.954      7.253
REMARK  Name = NuBBE_61
REMARK  17 active torsions:
REMARK  status: ('A' for Active; 'I' for Inactive)
REMARK    1  A    between atoms: O_1  and  C_2
REMARK    2  A    between atoms: C_6  and  O_15
REMARK    3  A    between atoms: C_9  and  O_11
REMARK    4  A    between atoms: O_11  and  C_12
REMARK    5  A    between atoms: C_12  and  C_13
REMARK    6  A    between atoms: O_15  and  C_16
REMARK    7  A    between atoms: C_16  and  C_17
REMARK    8  A    between atoms: C_20  and  O_22
REMARK    9  A    between atoms: O_22  and  C_23
REMARK   10  A    between atoms: C_23  and  C_24
REMARK   11  A    between atoms: C_25  and  C_26
REMARK   12  A    between atoms: C_34  and  C_36
REMARK   13  A    between atoms: C_37  and  C_38
REMARK   14  A    between atoms: C_37  and  C_39
REMARK   15  A    between atoms: C_39  and  C_40
REMARK   16  A    between atoms: C_41  and  C_42
REMARK   17  A    between atoms: C_41  and  C_43
REMARK                            x       y       z     vdW  Elec       q    Type
REMARK                         _______ _______ _______ _____ _____    ______ ____
ROOT
ATOM      1  C   LIG A   1      -7.447   0.249 128.832  0.00  0.00    +0.138 C 
ATOM      2  C   LIG A   1      -8.220   1.308 128.120  0.00  0.00    +0.010 C 
ATOM      3  C   LIG A   1      -8.158   2.600 128.487  0.00  0.00    +0.012 C 
ATOM      4  C   LIG A   1      -7.974   3.693 127.441  0.00  0.00    +0.343 C 
ATOM      5  O   LIG A   1      -7.109   4.643 128.081  0.00  0.00    -0.297 OA
ATOM      6  C   LIG A   1      -6.483   3.953 129.179  0.00  0.00    +0.328 C 
ATOM      7  C   LIG A   1      -7.648   3.127 129.838  0.00  0.00    +0.100 C 
ATOM      8  C   LIG A   1      -8.810   3.985 130.478  0.00  0.00    +0.194 C 
ATOM      9  C   LIG A   1      -9.748   3.074 131.299  0.00  0.00    +0.049 C 
ATOM     10  C   LIG A   1      -9.105   2.290 132.466  0.00  0.00    -0.004 C 
ATOM     11  C   LIG A   1      -8.865   3.128 133.720  0.00  0.00    +0.008 C 
ATOM     12  C   LIG A   1      -7.940   1.345 132.001  0.00  0.00    -0.022 C 
ATOM     13  C   LIG A   1      -8.657   0.013 131.635  0.00  0.00    +0.012 C 
ATOM     14  C   LIG A   1      -7.082   1.965 130.772  0.00  0.00    +0.018 C 
ATOM     15  C   LIG A   1      -6.472   0.845 129.866  0.00  0.00    +0.040 C 
ENDROOT
BRANCH   1  16
ATOM     16  O   LIG A   1      -6.656  -0.428 127.852  0.00  0.00    -0.388 OA
ATOM     17  H   LIG A   1      -6.335   0.232 127.217  0.00  0.00    +0.210 HD
ENDBRANCH   1  16
BRANCH   6  18
ATOM     18  O   LIG A   1      -5.777   4.886 129.999  0.00  0.00    -0.434 OA
BRANCH  18  19
ATOM     19  C   LIG A   1      -4.419   4.771 129.877  0.00  0.00    +0.306 C 
ATOM     20  C   LIG A   1      -4.025   3.469 129.224  0.00  0.00    +0.136 C 
ATOM     21  O   LIG A   1      -3.614   5.563 130.313  0.00  0.00    -0.251 OA
ENDBRANCH  18  19
ENDBRANCH   6  18
BRANCH   4  22
ATOM     22  O   LIG A   1      -7.259   3.141 126.322  0.00  0.00    -0.431 OA
BRANCH  22  23
ATOM     23  C   LIG A   1      -7.683   3.495 125.088  0.00  0.00    +0.306 C 
ATOM     24  C   LIG A   1      -6.512   3.729 124.173  0.00  0.00    +0.136 C 
ATOM     25  O   LIG A   1      -8.845   3.594 124.735  0.00  0.00    -0.251 OA
ENDBRANCH  22  23
ENDBRANCH   4  22
BRANCH   8  26
ATOM     26  O   LIG A   1      -8.369   5.050 131.352  0.00  0.00    -0.457 OA
BRANCH  26  27
ATOM     27  C   LIG A   1      -9.248   6.001 131.808  0.00  0.00    +0.332 C 
ATOM     28  O   LIG A   1      -9.304   6.486 132.910  0.00  0.00    -0.246 OA
BRANCH  27  29
ATOM     29  C   LIG A   1     -10.259   6.288 130.743  0.00  0.00    +0.092 C 
ATOM     30  C   LIG A   1     -11.394   6.978 130.954  0.00  0.00    +0.015 C 
BRANCH  30  31
ATOM     31  C   LIG A   1     -12.324   7.446 129.909  0.00  0.00    -0.025 A 
ATOM     32  C   LIG A   1     -12.601   8.811 129.726  0.00  0.00    +0.008 A 
ATOM     33  C   LIG A   1     -13.356   9.247 128.626  0.00  0.00    +0.001 A 
ATOM     34  C   LIG A   1     -13.826   8.328 127.690  0.00  0.00    +0.000 A 
ATOM     35  C   LIG A   1     -13.593   6.971 127.885  0.00  0.00    +0.001 A 
ATOM     36  C   LIG A   1     -12.854   6.537 128.987  0.00  0.00    +0.008 A 
ENDBRANCH  30  31
ENDBRANCH  27  29
ENDBRANCH  26  27
ENDBRANCH   8  26
BRANCH  12  37
ATOM     37  C   LIG A   1      -6.876   0.950 133.132  0.00  0.00    +0.034 C 
BRANCH  37  38
ATOM     38  C   LIG A   1      -5.524   1.639 133.164  0.00  0.00    -0.023 C 
ATOM     39  C   LIG A   1      -4.285   1.112 133.037  0.00  0.00    -0.055 C 
ATOM     40  C   LIG A   1      -3.927  -0.337 132.831  0.00  0.00    +0.043 C 
BRANCH  39  41
ATOM     41  C   LIG A   1      -3.116   1.982 133.114  0.00  0.00    -0.005 C 
ATOM     42  C   LIG A   1      -3.198   3.312 133.239  0.00  0.00    +0.008 C 
ENDBRANCH  39  41
ENDBRANCH  37  38
ENDBRANCH  12  37
TORSDOF 12
ENDMDL
MODEL 5
REMARK VINA RESULT:      -8.0      2.404      3.073
REMARK  Name = NuBBE_61
REMARK  17 active torsions:
REMARK  status: ('A' for Active; 'I' for Inactive)
REMARK    1  A    between atoms: O_1  and  C_2
REMARK    2  A    between atoms: C_6  and  O_15
REMARK    3  A    between atoms: C_9  and  O_11
REMARK    4  A    between atoms: O_11  and  C_12
REMARK    5  A    between atoms: C_12  and  C_13
REMARK    6  A    between atoms: O_15  and  C_16
REMARK    7  A    between atoms: C_16  and  C_17
REMARK    8  A    between atoms: C_20  and  O_22
REMARK    9  A    between atoms: O_22  and  C_23
REMARK   10  A    between atoms: C_23  and  C_24
REMARK   11  A    between atoms: C_25  and  C_26
REMARK   12  A    between atoms: C_34  and  C_36
REMARK   13  A    between atoms: C_37  and  C_38
REMARK   14  A    between atoms: C_37  and  C_39
REMARK   15  A    between atoms: C_39  and  C_40
REMARK   16  A    between atoms: C_41  and  C_42
REMARK   17  A    between atoms: C_41  and  C_43
REMARK                            x       y       z     vdW  Elec       q    Type
REMARK                         _______ _______ _______ _____ _____    ______ ____
ROOT
ATOM      1  C   LIG A   1      -9.148   2.444 131.617  0.00  0.00    +0.138 C 
ATOM      2  C   LIG A   1      -8.948   3.877 131.250  0.00  0.00    +0.010 C 
ATOM      3  C   LIG A   1      -8.331   4.239 130.112  0.00  0.00    +0.012 C 
ATOM      4  C   LIG A   1      -8.926   5.322 129.220  0.00  0.00    +0.343 C 
ATOM      5  O   LIG A   1      -8.655   4.860 127.887  0.00  0.00    -0.297 OA
ATOM      6  C   LIG A   1      -8.366   3.453 127.991  0.00  0.00    +0.328 C 
ATOM      7  C   LIG A   1      -7.432   3.337 129.251  0.00  0.00    +0.100 C 
ATOM      8  C   LIG A   1      -6.030   4.054 129.123  0.00  0.00    +0.194 C 
ATOM      9  C   LIG A   1      -5.124   3.657 130.309  0.00  0.00    +0.049 C 
ATOM     10  C   LIG A   1      -4.820   2.150 130.475  0.00  0.00    -0.004 C 
ATOM     11  C   LIG A   1      -3.751   1.623 129.518  0.00  0.00    +0.008 C 
ATOM     12  C   LIG A   1      -6.114   1.279 130.654  0.00  0.00    -0.022 C 
ATOM     13  C   LIG A   1      -6.369   1.292 132.189  0.00  0.00    +0.012 C 
ATOM     14  C   LIG A   1      -7.370   1.839 129.795  0.00  0.00    +0.018 C 
ATOM     15  C   LIG A   1      -8.738   1.496 130.474  0.00  0.00    +0.040 C 
ENDROOT
BRANCH   1  16
ATOM     16  O   LIG A   1     -10.547   2.255 131.838  0.00  0.00    -0.388 OA
ATOM     17  H   LIG A   1     -11.026   2.673 131.104  0.00  0.00    +0.210 HD
ENDBRANCH   1  16
BRANCH   6  18
ATOM     18  O   LIG A   1      -7.871   2.966 126.743  0.00  0.00    -0.434 OA
BRANCH  18  19
ATOM     19  C   LIG A   1      -8.312   1.702 126.460  0.00  0.00    +0.306 C 
ATOM     20  C   LIG A   1      -7.440   1.023 125.433  0.00  0.00    +0.136 C 
ATOM     21  O   LIG A   1      -9.325   1.206 126.900  0.00  0.00    -0.251 OA
ENDBRANCH  18  19
ENDBRANCH   6  18
BRANCH   4  22
ATOM     22  O   LIG A   1     -10.353   5.326 129.394  0.00  0.00    -0.431 OA
BRANCH  22  23
ATOM     23  C   LIG A   1     -11.011   6.452 129.037  0.00  0.00    +0.306 C 
ATOM     24  C   LIG A   1     -11.480   7.200 130.255  0.00  0.00    +0.136 C 
ATOM     25  O   LIG A   1     -11.190   6.841 127.896  0.00  0.00    -0.251 OA
ENDBRANCH  22  23
ENDBRANCH   4  22
BRANCH   8  26
ATOM     26  O   LIG A   1      -5.303   3.756 127.909  0.00  0.00    -0.457 OA
BRANCH  26  27
ATOM     27  C   LIG A   1      -4.804   4.762 127.118  0.00  0.00    +0.332 C 
ATOM     28  O   LIG A   1      -4.519   5.886 127.447  0.00  0.00    -0.246 OA
BRANCH  27  29
ATOM     29  C   LIG A   1      -4.769   4.299 125.696  0.00  0.00    +0.092 C 
ATOM     30  C   LIG A   1      -5.800   4.426 124.842  0.00  0.00    +0.015 C 
BRANCH  30  31
ATOM     31  C   LIG A   1      -5.755   4.160 123.392  0.00  0.00    -0.025 A 
ATOM     32  C   LIG A   1      -6.813   3.518 122.727  0.00  0.00    +0.008 A 
ATOM     33  C   LIG A   1      -6.825   3.423 121.326  0.00  0.00    +0.001 A 
ATOM     34  C   LIG A   1      -5.792   3.983 120.577  0.00  0.00    +0.000 A 
ATOM     35  C   LIG A   1      -4.721   4.584 121.228  0.00  0.00    +0.001 A 
ATOM     36  C   LIG A   1      -4.702   4.665 122.621  0.00  0.00    +0.008 A 
ENDBRANCH  30  31
ENDBRANCH  27  29
ENDBRANCH  26  27
ENDBRANCH   8  26
BRANCH  12  37
ATOM     37  C   LIG A   1      -5.965  -0.269 130.267  0.00  0.00    +0.034 C 
BRANCH  37  38
ATOM     38  C   LIG A   1      -6.434  -0.752 128.908  0.00  0.00    -0.023 C 
ATOM     39  C   LIG A   1      -7.262  -1.774 128.594  0.00  0.00    -0.055 C 
ATOM     40  C   LIG A   1      -7.941  -2.722 129.547  0.00  0.00    +0.043 C 
BRANCH  39  41
ATOM     41  C   LIG A   1      -7.564  -2.061 127.195  0.00  0.00    -0.005 C 
ATOM     42  C   LIG A   1      -8.757  -2.503 126.777  0.00  0.00    +0.008 C 
ENDBRANCH  39  41
ENDBRANCH  37  38
ENDBRANCH  12  37
TORSDOF 12
ENDMDL
MODEL 6
REMARK VINA RESULT:      -8.0      2.741      4.989
REMARK  Name = NuBBE_61
REMARK  17 active torsions:
REMARK  status: ('A' for Active; 'I' for Inactive)
REMARK    1  A    between atoms: O_1  and  C_2
REMARK    2  A    between atoms: C_6  and  O_15
REMARK    3  A    between atoms: C_9  and  O_11
REMARK    4  A    between atoms: O_11  and  C_12
REMARK    5  A    between atoms: C_12  and  C_13
REMARK    6  A    between atoms: O_15  and  C_16
REMARK    7  A    between atoms: C_16  and  C_17
REMARK    8  A    between atoms: C_20  and  O_22
REMARK    9  A    between atoms: O_22  and  C_23
REMARK   10  A    between atoms: C_23  and  C_24
REMARK   11  A    between atoms: C_25  and  C_26
REMARK   12  A    between atoms: C_34  and  C_36
REMARK   13  A    between atoms: C_37  and  C_38
REMARK   14  A    between atoms: C_37  and  C_39
REMARK   15  A    between atoms: C_39  and  C_40
REMARK   16  A    between atoms: C_41  and  C_42
REMARK   17  A    between atoms: C_41  and  C_43
REMARK                            x       y       z     vdW  Elec       q    Type
REMARK                         _______ _______ _______ _____ _____    ______ ____
ROOT
ATOM      1  C   LIG A   1      -4.554   0.668 129.614  0.00  0.00    +0.138 C 
ATOM      2  C   LIG A   1      -4.465   1.606 128.456  0.00  0.00    +0.010 C 
ATOM      3  C   LIG A   1      -5.561   2.041 127.809  0.00  0.00    +0.012 C 
ATOM      4  C   LIG A   1      -5.725   3.518 127.473  0.00  0.00    +0.343 C 
ATOM      5  O   LIG A   1      -7.127   3.764 127.667  0.00  0.00    -0.297 OA
ATOM      6  C   LIG A   1      -7.624   2.683 128.478  0.00  0.00    +0.328 C 
ATOM      7  C   LIG A   1      -6.955   1.396 127.870  0.00  0.00    +0.100 C 
ATOM      8  C   LIG A   1      -7.378   1.049 126.387  0.00  0.00    +0.194 C 
ATOM      9  C   LIG A   1      -6.855  -0.353 126.004  0.00  0.00    +0.049 C 
ATOM     10  C   LIG A   1      -7.339  -1.536 126.874  0.00  0.00    -0.004 C 
ATOM     11  C   LIG A   1      -8.757  -2.005 126.550  0.00  0.00    +0.008 C 
ATOM     12  C   LIG A   1      -6.967  -1.373 128.391  0.00  0.00    -0.022 C 
ATOM     13  C   LIG A   1      -5.550  -2.006 128.502  0.00  0.00    +0.012 C 
ATOM     14  C   LIG A   1      -7.017   0.170 128.887  0.00  0.00    +0.018 C 
ATOM     15  C   LIG A   1      -6.012   0.437 130.056  0.00  0.00    +0.040 C 
ENDROOT
BRANCH   1  16
ATOM     16  O   LIG A   1      -3.876   1.285 130.711  0.00  0.00    -0.388 OA
ATOM     17  H   LIG A   1      -4.425   1.174 131.504  0.00  0.00    +0.210 HD
ENDBRANCH   1  16
BRANCH   6  18
ATOM     18  O   LIG A   1      -9.051   2.733 128.533  0.00  0.00    -0.434 OA
BRANCH  18  19
ATOM     19  C   LIG A   1      -9.515   3.186 129.737  0.00  0.00    +0.306 C 
ATOM     20  C   LIG A   1      -8.458   3.104 130.810  0.00  0.00    +0.136 C 
ATOM     21  O   LIG A   1     -10.655   3.530 129.956  0.00  0.00    -0.251 OA
ENDBRANCH  18  19
ENDBRANCH   6  18
BRANCH   4  22
ATOM     22  O   LIG A   1      -5.011   4.293 128.450  0.00  0.00    -0.431 OA
BRANCH  22  23
ATOM     23  C   LIG A   1      -4.176   5.248 127.984  0.00  0.00    +0.306 C 
ATOM     24  C   LIG A   1      -2.815   4.672 127.703  0.00  0.00    +0.136 C 
ATOM     25  O   LIG A   1      -4.468   6.416 127.787  0.00  0.00    -0.251 OA
ENDBRANCH  22  23
ENDBRANCH   4  22
BRANCH   8  26
ATOM     26  O   LIG A   1      -8.804   1.058 126.144  0.00  0.00    -0.457 OA
BRANCH  26  27
ATOM     27  C   LIG A   1      -9.319   1.566 124.977  0.00  0.00    +0.332 C 
ATOM     28  O   LIG A   1     -10.455   1.495 124.580  0.00  0.00    -0.246 OA
BRANCH  27  29
ATOM     29  C   LIG A   1      -8.208   2.145 124.159  0.00  0.00    +0.092 C 
ATOM     30  C   LIG A   1      -8.375   2.666 122.931  0.00  0.00    +0.015 C 
BRANCH  30  31
ATOM     31  C   LIG A   1      -7.359   3.412 122.166  0.00  0.00    -0.025 A 
ATOM     32  C   LIG A   1      -6.106   3.726 122.717  0.00  0.00    +0.008 A 
ATOM     33  C   LIG A   1      -5.094   4.289 121.921  0.00  0.00    +0.001 A 
ATOM     34  C   LIG A   1      -5.319   4.526 120.567  0.00  0.00    +0.000 A 
ATOM     35  C   LIG A   1      -6.570   4.257 120.022  0.00  0.00    +0.001 A 
ATOM     36  C   LIG A   1      -7.580   3.711 120.817  0.00  0.00    +0.008 A 
ENDBRANCH  30  31
ENDBRANCH  27  29
ENDBRANCH  26  27
ENDBRANCH   8  26
BRANCH  12  37
ATOM     37  C   LIG A   1      -7.877  -2.201 129.419  0.00  0.00    +0.034 C 
BRANCH  37  38
ATOM     38  C   LIG A   1      -7.217  -3.064 130.478  0.00  0.00    -0.023 C 
ATOM     39  C   LIG A   1      -7.113  -2.864 131.812  0.00  0.00    -0.055 C 
ATOM     40  C   LIG A   1      -7.638  -1.693 132.601  0.00  0.00    +0.043 C 
BRANCH  39  41
ATOM     41  C   LIG A   1      -6.414  -3.841 132.639  0.00  0.00    -0.005 C 
ATOM     42  C   LIG A   1      -6.739  -4.089 133.914  0.00  0.00    +0.008 C 
ENDBRANCH  39  41
ENDBRANCH  37  38
ENDBRANCH  12  37
TORSDOF 12
ENDMDL
MODEL 7
REMARK VINA RESULT:      -8.0      2.854      7.451
REMARK  Name = NuBBE_61
REMARK  17 active torsions:
REMARK  status: ('A' for Active; 'I' for Inactive)
REMARK    1  A    between atoms: O_1  and  C_2
REMARK    2  A    between atoms: C_6  and  O_15
REMARK    3  A    between atoms: C_9  and  O_11
REMARK    4  A    between atoms: O_11  and  C_12
REMARK    5  A    between atoms: C_12  and  C_13
REMARK    6  A    between atoms: O_15  and  C_16
REMARK    7  A    between atoms: C_16  and  C_17
REMARK    8  A    between atoms: C_20  and  O_22
REMARK    9  A    between atoms: O_22  and  C_23
REMARK   10  A    between atoms: C_23  and  C_24
REMARK   11  A    between atoms: C_25  and  C_26
REMARK   12  A    between atoms: C_34  and  C_36
REMARK   13  A    between atoms: C_37  and  C_38
REMARK   14  A    between atoms: C_37  and  C_39
REMARK   15  A    between atoms: C_39  and  C_40
REMARK   16  A    between atoms: C_41  and  C_42
REMARK   17  A    between atoms: C_41  and  C_43
REMARK                            x       y       z     vdW  Elec       q    Type
REMARK                         _______ _______ _______ _____ _____    ______ ____
ROOT
ATOM      1  C   LIG A   1      -3.273   3.984 126.994  0.00  0.00    +0.138 C 
ATOM      2  C   LIG A   1      -3.877   5.213 127.587  0.00  0.00    +0.010 C 
ATOM      3  C   LIG A   1      -4.664   5.162 128.676  0.00  0.00    +0.012 C 
ATOM      4  C   LIG A   1      -4.457   6.141 129.826  0.00  0.00    +0.343 C 
ATOM      5  O   LIG A   1      -4.710   5.355 131.000  0.00  0.00    -0.297 OA
ATOM      6  C   LIG A   1      -4.603   3.975 130.601  0.00  0.00    +0.328 C 
ATOM      7  C   LIG A   1      -5.361   3.907 129.224  0.00  0.00    +0.100 C 
ATOM      8  C   LIG A   1      -6.909   4.216 129.286  0.00  0.00    +0.194 C 
ATOM      9  C   LIG A   1      -7.571   3.873 127.934  0.00  0.00    +0.049 C 
ATOM     10  C   LIG A   1      -7.447   2.409 127.453  0.00  0.00    -0.004 C 
ATOM     11  C   LIG A   1      -8.415   1.446 128.141  0.00  0.00    +0.008 C 
ATOM     12  C   LIG A   1      -5.957   1.938 127.298  0.00  0.00    -0.022 C 
ATOM     13  C   LIG A   1      -5.584   2.339 125.842  0.00  0.00    +0.012 C 
ATOM     14  C   LIG A   1      -4.974   2.590 128.411  0.00  0.00    +0.018 C 
ATOM     15  C   LIG A   1      -3.511   2.743 127.876  0.00  0.00    +0.040 C 
ENDROOT
BRANCH   1  16
ATOM     16  O   LIG A   1      -1.859   4.192 126.938  0.00  0.00    -0.388 OA
ATOM     17  H   LIG A   1      -1.690   4.946 126.350  0.00  0.00    +0.210 HD
ENDBRANCH   1  16
BRANCH   6  18
ATOM     18  O   LIG A   1      -5.056   3.127 131.657  0.00  0.00    -0.434 OA
BRANCH  18  19
ATOM     19  C   LIG A   1      -4.137   2.172 131.996  0.00  0.00    +0.306 C 
ATOM     20  C   LIG A   1      -3.089   2.714 132.935  0.00  0.00    +0.136 C 
ATOM     21  O   LIG A   1      -4.101   1.052 131.538  0.00  0.00    -0.251 OA
ENDBRANCH  18  19
ENDBRANCH   6  18
BRANCH   4  22
ATOM     22  O   LIG A   1      -3.074   6.530 129.854  0.00  0.00    -0.431 OA
BRANCH  22  23
ATOM     23  C   LIG A   1      -2.633   7.147 130.973  0.00  0.00    +0.306 C 
ATOM     24  C   LIG A   1      -1.412   6.455 131.514  0.00  0.00    +0.136 C 
ATOM     25  O   LIG A   1      -3.124   8.142 131.479  0.00  0.00    -0.251 OA
ENDBRANCH  22  23
ENDBRANCH   4  22
BRANCH   8  26
ATOM     26  O   LIG A   1      -7.632   3.499 130.313  0.00  0.00    -0.457 OA
BRANCH  26  27
ATOM     27  C   LIG A   1      -8.273   4.169 131.326  0.00  0.00    +0.332 C 
ATOM     28  O   LIG A   1      -8.074   4.078 132.512  0.00  0.00    -0.246 OA
BRANCH  27  29
ATOM     29  C   LIG A   1      -9.390   4.980 130.750  0.00  0.00    +0.092 C 
ATOM     30  C   LIG A   1      -9.515   6.308 130.919  0.00  0.00    +0.015 C 
BRANCH  30  31
ATOM     31  C   LIG A   1     -10.484   7.177 130.224  0.00  0.00    -0.025 A 
ATOM     32  C   LIG A   1     -10.137   7.884 129.061  0.00  0.00    +0.008 A 
ATOM     33  C   LIG A   1     -11.115   8.572 128.323  0.00  0.00    +0.001 A 
ATOM     34  C   LIG A   1     -12.447   8.544 128.729  0.00  0.00    +0.000 A 
ATOM     35  C   LIG A   1     -12.793   7.882 129.902  0.00  0.00    +0.001 A 
ATOM     36  C   LIG A   1     -11.819   7.210 130.643  0.00  0.00    +0.008 A 
ENDBRANCH  30  31
ENDBRANCH  27  29
ENDBRANCH  26  27
ENDBRANCH   8  26
BRANCH  12  37
ATOM     37  C   LIG A   1      -5.721   0.354 127.370  0.00  0.00    +0.034 C 
BRANCH  37  38
ATOM     38  C   LIG A   1      -5.405  -0.416 126.102  0.00  0.00    -0.023 C 
ATOM     39  C   LIG A   1      -6.171  -1.291 125.410  0.00  0.00    -0.055 C 
ATOM     40  C   LIG A   1      -7.570  -1.737 125.744  0.00  0.00    +0.043 C 
BRANCH  39  41
ATOM     41  C   LIG A   1      -5.642  -1.926 124.208  0.00  0.00    -0.005 C 
ATOM     42  C   LIG A   1      -5.434  -3.245 124.106  0.00  0.00    +0.008 C 
ENDBRANCH  39  41
ENDBRANCH  37  38
ENDBRANCH  12  37
TORSDOF 12
ENDMDL
MODEL 8
REMARK VINA RESULT:      -7.9      3.054      5.119
REMARK  Name = NuBBE_61
REMARK  17 active torsions:
REMARK  status: ('A' for Active; 'I' for Inactive)
REMARK    1  A    between atoms: O_1  and  C_2
REMARK    2  A    between atoms: C_6  and  O_15
REMARK    3  A    between atoms: C_9  and  O_11
REMARK    4  A    between atoms: O_11  and  C_12
REMARK    5  A    between atoms: C_12  and  C_13
REMARK    6  A    between atoms: O_15  and  C_16
REMARK    7  A    between atoms: C_16  and  C_17
REMARK    8  A    between atoms: C_20  and  O_22
REMARK    9  A    between atoms: O_22  and  C_23
REMARK   10  A    between atoms: C_23  and  C_24
REMARK   11  A    between atoms: C_25  and  C_26
REMARK   12  A    between atoms: C_34  and  C_36
REMARK   13  A    between atoms: C_37  and  C_38
REMARK   14  A    between atoms: C_37  and  C_39
REMARK   15  A    between atoms: C_39  and  C_40
REMARK   16  A    between atoms: C_41  and  C_42
REMARK   17  A    between atoms: C_41  and  C_43
REMARK                            x       y       z     vdW  Elec       q    Type
REMARK                         _______ _______ _______ _____ _____    ______ ____
ROOT
ATOM      1  C   LIG A   1      -5.189  -0.797 130.327  0.00  0.00    +0.138 C 
ATOM      2  C   LIG A   1      -4.187   0.310 130.335  0.00  0.00    +0.010 C 
ATOM      3  C   LIG A   1      -4.478   1.533 129.858  0.00  0.00    +0.012 C 
ATOM      4  C   LIG A   1      -4.104   2.780 130.651  0.00  0.00    +0.343 C 
ATOM      5  O   LIG A   1      -5.207   3.673 130.431  0.00  0.00    -0.297 OA
ATOM      6  C   LIG A   1      -6.303   2.864 129.964  0.00  0.00    +0.328 C 
ATOM      7  C   LIG A   1      -5.649   1.880 128.926  0.00  0.00    +0.100 C 
ATOM      8  C   LIG A   1      -5.040   2.561 127.637  0.00  0.00    +0.194 C 
ATOM      9  C   LIG A   1      -4.663   1.482 126.599  0.00  0.00    +0.049 C 
ATOM     10  C   LIG A   1      -5.807   0.570 126.099  0.00  0.00    -0.004 C 
ATOM     11  C   LIG A   1      -6.710   1.223 125.053  0.00  0.00    +0.008 C 
ATOM     12  C   LIG A   1      -6.509  -0.222 127.259  0.00  0.00    -0.022 C 
ATOM     13  C   LIG A   1      -5.667  -1.524 127.391  0.00  0.00    +0.012 C 
ATOM     14  C   LIG A   1      -6.592   0.626 128.638  0.00  0.00    +0.018 C 
ATOM     15  C   LIG A   1      -6.585  -0.305 129.895  0.00  0.00    +0.040 C 
ENDROOT
BRANCH   1  16
ATOM     16  O   LIG A   1      -5.308  -1.270 131.671  0.00  0.00    -0.388 OA
ATOM     17  H   LIG A   1      -6.252  -1.279 131.903  0.00  0.00    +0.210 HD
ENDBRANCH   1  16
BRANCH   6  18
ATOM     18  O   LIG A   1      -7.367   3.703 129.513  0.00  0.00    -0.434 OA
BRANCH  18  19
ATOM     19  C   LIG A   1      -8.377   3.811 130.430  0.00  0.00    +0.306 C 
ATOM     20  C   LIG A   1      -9.371   2.683 130.300  0.00  0.00    +0.136 C 
ATOM     21  O   LIG A   1      -8.521   4.735 131.197  0.00  0.00    -0.251 OA
ENDBRANCH  18  19
ENDBRANCH   6  18
BRANCH   4  22
ATOM     22  O   LIG A   1      -4.089   2.447 132.049  0.00  0.00    -0.431 OA
BRANCH  22  23
ATOM     23  C   LIG A   1      -3.730   3.427 132.909  0.00  0.00    +0.306 C 
ATOM     24  C   LIG A   1      -2.240   3.628 132.891  0.00  0.00    +0.136 C 
ATOM     25  O   LIG A   1      -4.492   4.086 133.596  0.00  0.00    -0.251 OA
ENDBRANCH  22  23
ENDBRANCH   4  22
BRANCH   8  26
ATOM     26  O   LIG A   1      -5.914   3.506 126.978  0.00  0.00    -0.457 OA
BRANCH  26  27
ATOM     27  C   LIG A   1      -5.440   4.713 126.526  0.00  0.00    +0.332 C 
ATOM     28  O   LIG A   1      -4.883   5.572 127.162  0.00  0.00    -0.246 OA
BRANCH  27  29
ATOM     29  C   LIG A   1      -5.829   4.889 125.092  0.00  0.00    +0.092 C 
ATOM     30  C   LIG A   1      -5.211   4.275 124.068  0.00  0.00    +0.015 C 
BRANCH  30  31
ATOM     31  C   LIG A   1      -5.669   4.266 122.666  0.00  0.00    -0.025 A 
ATOM     32  C   LIG A   1      -4.844   4.708 121.618  0.00  0.00    +0.008 A 
ATOM     33  C   LIG A   1      -5.234   4.538 120.279  0.00  0.00    +0.001 A 
ATOM     34  C   LIG A   1      -6.440   3.911 119.975  0.00  0.00    +0.000 A 
ATOM     35  C   LIG A   1      -7.282   3.508 121.006  0.00  0.00    +0.001 A 
ATOM     36  C   LIG A   1      -6.901   3.690 122.336  0.00  0.00    +0.008 A 
ENDBRANCH  30  31
ENDBRANCH  27  29
ENDBRANCH  26  27
ENDBRANCH   8  26
BRANCH  12  37
ATOM     37  C   LIG A   1      -8.002  -0.718 126.952  0.00  0.00    +0.034 C 
BRANCH  37  38
ATOM     38  C   LIG A   1      -8.245  -1.730 125.848  0.00  0.00    -0.023 C 
ATOM     39  C   LIG A   1      -8.654  -3.017 125.932  0.00  0.00    -0.055 C 
ATOM     40  C   LIG A   1      -8.973  -3.791 127.184  0.00  0.00    +0.043 C 
BRANCH  39  41
ATOM     41  C   LIG A   1      -8.808  -3.810 124.717  0.00  0.00    -0.005 C 
ATOM     42  C   LIG A   1      -9.427  -3.357 123.619  0.00  0.00    +0.008 C 
ENDBRANCH  39  41
ENDBRANCH  37  38
ENDBRANCH  12  37
TORSDOF 12
ENDMDL
MODEL 9
REMARK VINA RESULT:      -7.9      4.269      8.929
REMARK  Name = NuBBE_61
REMARK  17 active torsions:
REMARK  status: ('A' for Active; 'I' for Inactive)
REMARK    1  A    between atoms: O_1  and  C_2
REMARK    2  A    between atoms: C_6  and  O_15
REMARK    3  A    between atoms: C_9  and  O_11
REMARK    4  A    between atoms: O_11  and  C_12
REMARK    5  A    between atoms: C_12  and  C_13
REMARK    6  A    between atoms: O_15  and  C_16
REMARK    7  A    between atoms: C_16  and  C_17
REMARK    8  A    between atoms: C_20  and  O_22
REMARK    9  A    between atoms: O_22  and  C_23
REMARK   10  A    between atoms: C_23  and  C_24
REMARK   11  A    between atoms: C_25  and  C_26
REMARK   12  A    between atoms: C_34  and  C_36
REMARK   13  A    between atoms: C_37  and  C_38
REMARK   14  A    between atoms: C_37  and  C_39
REMARK   15  A    between atoms: C_39  and  C_40
REMARK   16  A    between atoms: C_41  and  C_42
REMARK   17  A    between atoms: C_41  and  C_43
REMARK                            x       y       z     vdW  Elec       q    Type
REMARK                         _______ _______ _______ _____ _____    ______ ____
ROOT
ATOM      1  C   LIG A   1      -8.108   3.815 128.524  0.00  0.00    +0.138 C 
ATOM      2  C   LIG A   1      -9.035   4.039 129.672  0.00  0.00    +0.010 C 
ATOM      3  C   LIG A   1      -8.605   4.544 130.842  0.00  0.00    +0.012 C 
ATOM      4  C   LIG A   1      -9.378   5.661 131.533  0.00  0.00    +0.343 C 
ATOM      5  O   LIG A   1      -8.353   6.496 132.094  0.00  0.00    -0.297 OA
ATOM      6  C   LIG A   1      -7.133   6.167 131.404  0.00  0.00    +0.328 C 
ATOM      7  C   LIG A   1      -7.144   4.596 131.316  0.00  0.00    +0.100 C 
ATOM      8  C   LIG A   1      -7.070   3.840 132.701  0.00  0.00    +0.194 C 
ATOM      9  C   LIG A   1      -6.836   2.332 132.467  0.00  0.00    +0.049 C 
ATOM     10  C   LIG A   1      -5.553   1.940 131.698  0.00  0.00    -0.004 C 
ATOM     11  C   LIG A   1      -4.284   1.978 132.549  0.00  0.00    +0.008 C 
ATOM     12  C   LIG A   1      -5.477   2.582 130.267  0.00  0.00    -0.022 C 
ATOM     13  C   LIG A   1      -6.213   1.558 129.355  0.00  0.00    +0.012 C 
ATOM     14  C   LIG A   1      -6.124   4.067 130.210  0.00  0.00    +0.018 C 
ATOM     15  C   LIG A   1      -6.706   4.394 128.795  0.00  0.00    +0.040 C 
ENDROOT
BRANCH   1  16
ATOM     16  O   LIG A   1      -8.644   4.523 127.403  0.00  0.00    -0.388 OA
ATOM     17  H   LIG A   1      -7.977   5.161 127.104  0.00  0.00    +0.210 HD
ENDBRANCH   1  16
BRANCH   6  18
ATOM     18  O   LIG A   1      -6.025   6.794 132.051  0.00  0.00    -0.434 OA
BRANCH  18  19
ATOM     19  C   LIG A   1      -5.061   7.200 131.169  0.00  0.00    +0.306 C 
ATOM     20  C   LIG A   1      -3.693   7.213 131.804  0.00  0.00    +0.136 C 
ATOM     21  O   LIG A   1      -5.272   7.589 130.043  0.00  0.00    -0.251 OA
ENDBRANCH  18  19
ENDBRANCH   6  18
BRANCH   4  22
ATOM     22  O   LIG A   1     -10.064   6.431 130.532  0.00  0.00    -0.431 OA
BRANCH  22  23
ATOM     23  C   LIG A   1     -11.336   6.799 130.806  0.00  0.00    +0.306 C 
ATOM     24  C   LIG A   1     -11.884   7.670 129.709  0.00  0.00    +0.136 C 
ATOM     25  O   LIG A   1     -11.979   6.465 131.786  0.00  0.00    -0.251 OA
ENDBRANCH  22  23
ENDBRANCH   4  22
BRANCH   8  26
ATOM     26  O   LIG A   1      -6.030   4.304 133.593  0.00  0.00    -0.457 OA
BRANCH  26  27
ATOM     27  C   LIG A   1      -6.135   4.135 134.951  0.00  0.00    +0.332 C 
ATOM     28  O   LIG A   1      -5.775   3.189 135.607  0.00  0.00    -0.246 OA
BRANCH  27  29
ATOM     29  C   LIG A   1      -6.902   5.281 135.532  0.00  0.00    +0.092 C 
ATOM     30  C   LIG A   1      -6.660   5.804 136.747  0.00  0.00    +0.015 C 
BRANCH  30  31
ATOM     31  C   LIG A   1      -7.255   7.042 137.285  0.00  0.00    -0.025 A 
ATOM     32  C   LIG A   1      -6.487   8.200 137.491  0.00  0.00    +0.008 A 
ATOM     33  C   LIG A   1      -7.101   9.413 137.845  0.00  0.00    +0.001 A 
ATOM     34  C   LIG A   1      -8.485   9.484 137.980  0.00  0.00    +0.000 A 
ATOM     35  C   LIG A   1      -9.250   8.334 137.819  0.00  0.00    +0.001 A 
ATOM     36  C   LIG A   1      -8.638   7.125 137.481  0.00  0.00    +0.008 A 
ENDBRANCH  30  31
ENDBRANCH  27  29
ENDBRANCH  26  27
ENDBRANCH   8  26
BRANCH  12  37
ATOM     37  C   LIG A   1      -4.005   2.713 129.646  0.00  0.00    +0.034 C 
BRANCH  37  38
ATOM     38  C   LIG A   1      -3.326   4.069 129.605  0.00  0.00    -0.023 C 
ATOM     39  C   LIG A   1      -2.793   4.736 128.556  0.00  0.00    -0.055 C 
ATOM     40  C   LIG A   1      -2.734   4.279 127.122  0.00  0.00    +0.043 C 
BRANCH  39  41
ATOM     41  C   LIG A   1      -2.174   6.041 128.764  0.00  0.00    -0.005 C 
ATOM     42  C   LIG A   1      -2.540   7.141 128.095  0.00  0.00    +0.008 C 
ENDBRANCH  39  41
ENDBRANCH  37  38
ENDBRANCH  12  37
TORSDOF 12
ENDMDL
