MODEL 1
REMARK VINA RESULT:      -7.2      0.000      0.000
REMARK  Name = NuBBE_409
REMARK  4 active torsions:
REMARK  status: ('A' for Active; 'I' for Inactive)
REMARK    1  A    between atoms: C_1  and  O_2
REMARK    2  A    between atoms: O_2  and  C_3
REMARK    3  A    between atoms: C_4  and  C_5
REMARK    4  A    between atoms: C_6  and  C_7
REMARK                            x       y       z     vdW  Elec       q    Type
REMARK                         _______ _______ _______ _____ _____    ______ ____
ROOT
ATOM      1  C   LIG A   1      -8.618   2.629 122.556  0.00  0.00    +0.131 A 
ATOM      2  C   LIG A   1      -7.306   2.555 123.094  0.00  0.00    +0.021 A 
ATOM      3  C   LIG A   1      -6.223   3.094 122.378  0.00  0.00    +0.061 A 
ATOM      4  C   LIG A   1      -6.483   3.705 121.168  0.00  0.00    +0.167 A 
ATOM      5  O   LIG A   1      -5.563   4.289 120.354  0.00  0.00    -0.453 OA
ATOM      6  C   LIG A   1      -6.407   4.777 119.290  0.00  0.00    +0.466 C 
ATOM      7  O   LIG A   1      -7.800   4.448 119.470  0.00  0.00    -0.453 OA
ATOM      8  C   LIG A   1      -7.757   3.793 120.662  0.00  0.00    +0.170 A 
ATOM      9  C   LIG A   1      -8.843   3.269 121.328  0.00  0.00    +0.095 A 
ENDROOT
BRANCH   1  11
ATOM     10  C   LIG A   1     -10.284   0.967 122.765  0.00  0.00    +0.277 C 
ATOM     11  O   LIG A   1      -9.635   2.108 123.320  0.00  0.00    -0.494 OA
ENDBRANCH   1  11
BRANCH   2  12
ATOM     12  C   LIG A   1      -7.053   1.969 124.419  0.00  0.00    +0.017 C 
ATOM     13  C   LIG A   1      -6.964   0.666 124.725  0.00  0.00    +0.068 C 
BRANCH  13  14
ATOM     14  C   LIG A   1      -7.108  -0.451 123.761  0.00  0.00    +0.239 C 
ATOM     15  N   LIG A   1      -7.950  -1.460 124.170  0.00  0.00    -0.298 N 
ATOM     16  C   LIG A   1      -8.774  -1.471 125.370  0.00  0.00    +0.108 C 
ATOM     17  C   LIG A   1      -9.336  -2.883 125.431  0.00  0.00    +0.020 C 
ATOM     18  C   LIG A   1      -9.434  -3.274 123.962  0.00  0.00    +0.020 C 
ATOM     19  C   LIG A   1      -8.191  -2.635 123.353  0.00  0.00    +0.108 C 
ATOM     20  O   LIG A   1      -6.460  -0.469 122.722  0.00  0.00    -0.271 OA
ENDBRANCH  13  14
ENDBRANCH   2  12
TORSDOF 3
ENDMDL
MODEL 2
REMARK VINA RESULT:      -7.1      9.553     10.977
REMARK  Name = NuBBE_409
REMARK  4 active torsions:
REMARK  status: ('A' for Active; 'I' for Inactive)
REMARK    1  A    between atoms: C_1  and  O_2
REMARK    2  A    between atoms: O_2  and  C_3
REMARK    3  A    between atoms: C_4  and  C_5
REMARK    4  A    between atoms: C_6  and  C_7
REMARK                            x       y       z     vdW  Elec       q    Type
REMARK                         _______ _______ _______ _____ _____    ______ ____
ROOT
ATOM      1  C   LIG A   1     -12.909   7.716 128.344  0.00  0.00    +0.131 A 
ATOM      2  C   LIG A   1     -12.620   7.358 129.687  0.00  0.00    +0.021 A 
ATOM      3  C   LIG A   1     -12.705   8.324 130.704  0.00  0.00    +0.061 A 
ATOM      4  C   LIG A   1     -13.096   9.601 130.357  0.00  0.00    +0.167 A 
ATOM      5  O   LIG A   1     -13.245  10.651 131.210  0.00  0.00    -0.453 OA
ATOM      6  C   LIG A   1     -13.697  11.679 130.304  0.00  0.00    +0.466 C 
ATOM      7  O   LIG A   1     -13.775  11.239 128.933  0.00  0.00    -0.453 OA
ATOM      8  C   LIG A   1     -13.395   9.938 129.060  0.00  0.00    +0.170 A 
ATOM      9  C   LIG A   1     -13.314   9.023 128.032  0.00  0.00    +0.095 A 
ENDROOT
BRANCH   1  11
ATOM     10  C   LIG A   1     -12.024   7.016 126.268  0.00  0.00    +0.277 C 
ATOM     11  O   LIG A   1     -12.834   6.717 127.402  0.00  0.00    -0.494 OA
ENDBRANCH   1  11
BRANCH   2  12
ATOM     12  C   LIG A   1     -12.279   5.975 130.054  0.00  0.00    +0.017 C 
ATOM     13  C   LIG A   1     -11.052   5.447 130.171  0.00  0.00    +0.068 C 
BRANCH  13  14
ATOM     14  C   LIG A   1      -9.781   6.176 129.945  0.00  0.00    +0.239 C 
ATOM     15  N   LIG A   1      -8.913   6.165 131.012  0.00  0.00    -0.298 N 
ATOM     16  C   LIG A   1      -9.074   5.427 132.256  0.00  0.00    +0.108 C 
ATOM     17  C   LIG A   1      -7.945   5.926 133.143  0.00  0.00    +0.020 C 
ATOM     18  C   LIG A   1      -6.850   6.269 132.140  0.00  0.00    +0.020 C 
ATOM     19  C   LIG A   1      -7.631   6.845 130.964  0.00  0.00    +0.108 C 
ATOM     20  O   LIG A   1      -9.586   6.785 128.900  0.00  0.00    -0.271 OA
ENDBRANCH  13  14
ENDBRANCH   2  12
TORSDOF 3
ENDMDL
MODEL 3
REMARK VINA RESULT:      -7.1      1.671      2.673
REMARK  Name = NuBBE_409
REMARK  4 active torsions:
REMARK  status: ('A' for Active; 'I' for Inactive)
REMARK    1  A    between atoms: C_1  and  O_2
REMARK    2  A    between atoms: O_2  and  C_3
REMARK    3  A    between atoms: C_4  and  C_5
REMARK    4  A    between atoms: C_6  and  C_7
REMARK                            x       y       z     vdW  Elec       q    Type
REMARK                         _______ _______ _______ _____ _____    ______ ____
ROOT
ATOM      1  C   LIG A   1      -6.752   3.091 123.083  0.00  0.00    +0.131 A 
ATOM      2  C   LIG A   1      -8.162   2.931 123.019  0.00  0.00    +0.021 A 
ATOM      3  C   LIG A   1      -8.853   3.271 121.844  0.00  0.00    +0.061 A 
ATOM      4  C   LIG A   1      -8.121   3.735 120.769  0.00  0.00    +0.167 A 
ATOM      5  O   LIG A   1      -8.622   4.095 119.556  0.00  0.00    -0.453 OA
ATOM      6  C   LIG A   1      -7.412   4.445 118.852  0.00  0.00    +0.466 C 
ATOM      7  O   LIG A   1      -6.224   4.323 119.661  0.00  0.00    -0.453 OA
ATOM      8  C   LIG A   1      -6.756   3.868 120.829  0.00  0.00    +0.170 A 
ATOM      9  C   LIG A   1      -6.042   3.555 121.965  0.00  0.00    +0.095 A 
ENDROOT
BRANCH   1  11
ATOM     10  C   LIG A   1      -5.508   3.770 124.973  0.00  0.00    +0.277 C 
ATOM     11  O   LIG A   1      -6.135   2.712 124.251  0.00  0.00    -0.494 OA
ENDBRANCH   1  11
BRANCH   2  12
ATOM     12  C   LIG A   1      -8.920   2.364 124.144  0.00  0.00    +0.017 C 
ATOM     13  C   LIG A   1      -9.302   1.088 124.303  0.00  0.00    +0.068 C 
BRANCH  13  14
ATOM     14  C   LIG A   1      -9.025  -0.012 123.350  0.00  0.00    +0.239 C 
ATOM     15  N   LIG A   1      -7.887  -0.737 123.623  0.00  0.00    -0.298 N 
ATOM     16  C   LIG A   1      -7.027  -0.600 124.789  0.00  0.00    +0.108 C 
ATOM     17  C   LIG A   1      -5.831  -1.488 124.486  0.00  0.00    +0.020 C 
ATOM     18  C   LIG A   1      -6.435  -2.588 123.623  0.00  0.00    +0.020 C 
ATOM     19  C   LIG A   1      -7.462  -1.840 122.780  0.00  0.00    +0.108 C 
ATOM     20  O   LIG A   1      -9.740  -0.189 122.371  0.00  0.00    -0.271 OA
ENDBRANCH  13  14
ENDBRANCH   2  12
TORSDOF 3
ENDMDL
MODEL 4
REMARK VINA RESULT:      -6.8      2.233      6.224
REMARK  Name = NuBBE_409
REMARK  4 active torsions:
REMARK  status: ('A' for Active; 'I' for Inactive)
REMARK    1  A    between atoms: C_1  and  O_2
REMARK    2  A    between atoms: O_2  and  C_3
REMARK    3  A    between atoms: C_4  and  C_5
REMARK    4  A    between atoms: C_6  and  C_7
REMARK                            x       y       z     vdW  Elec       q    Type
REMARK                         _______ _______ _______ _____ _____    ______ ____
ROOT
ATOM      1  C   LIG A   1      -8.419   0.844 125.680  0.00  0.00    +0.131 A 
ATOM      2  C   LIG A   1      -7.296   0.888 124.812  0.00  0.00    +0.021 A 
ATOM      3  C   LIG A   1      -7.025  -0.196 123.960  0.00  0.00    +0.061 A 
ATOM      4  C   LIG A   1      -7.889  -1.273 123.983  0.00  0.00    +0.167 A 
ATOM      5  O   LIG A   1      -7.789  -2.395 123.220  0.00  0.00    -0.453 OA
ATOM      6  C   LIG A   1      -8.963  -3.120 123.642  0.00  0.00    +0.466 C 
ATOM      7  O   LIG A   1      -9.717  -2.441 124.666  0.00  0.00    -0.453 OA
ATOM      8  C   LIG A   1      -8.986  -1.301 124.809  0.00  0.00    +0.170 A 
ATOM      9  C   LIG A   1      -9.281  -0.263 125.666  0.00  0.00    +0.095 A 
ENDROOT
BRANCH   1  11
ATOM     10  C   LIG A   1      -8.545   1.722 127.870  0.00  0.00    +0.277 C 
ATOM     11  O   LIG A   1      -8.642   1.950 126.466  0.00  0.00    -0.494 OA
ENDBRANCH   1  11
BRANCH   2  12
ATOM     12  C   LIG A   1      -6.427   2.073 124.742  0.00  0.00    +0.017 C 
ATOM     13  C   LIG A   1      -6.503   3.084 123.864  0.00  0.00    +0.068 C 
BRANCH  13  14
ATOM     14  C   LIG A   1      -7.501   3.195 122.774  0.00  0.00    +0.239 C 
ATOM     15  N   LIG A   1      -7.018   3.736 121.604  0.00  0.00    -0.298 N 
ATOM     16  C   LIG A   1      -5.635   4.086 121.314  0.00  0.00    +0.108 C 
ATOM     17  C   LIG A   1      -5.699   4.815 119.982  0.00  0.00    +0.020 C 
ATOM     18  C   LIG A   1      -6.891   4.162 119.294  0.00  0.00    +0.020 C 
ATOM     19  C   LIG A   1      -7.867   3.930 120.442  0.00  0.00    +0.108 C 
ATOM     20  O   LIG A   1      -8.671   2.882 122.960  0.00  0.00    -0.271 OA
ENDBRANCH  13  14
ENDBRANCH   2  12
TORSDOF 3
ENDMDL
MODEL 5
REMARK VINA RESULT:      -6.5      2.081      2.937
REMARK  Name = NuBBE_409
REMARK  4 active torsions:
REMARK  status: ('A' for Active; 'I' for Inactive)
REMARK    1  A    between atoms: C_1  and  O_2
REMARK    2  A    between atoms: O_2  and  C_3
REMARK    3  A    between atoms: C_4  and  C_5
REMARK    4  A    between atoms: C_6  and  C_7
REMARK                            x       y       z     vdW  Elec       q    Type
REMARK                         _______ _______ _______ _____ _____    ______ ____
ROOT
ATOM      1  C   LIG A   1      -7.841   3.619 124.966  0.00  0.00    +0.131 A 
ATOM      2  C   LIG A   1      -8.486   2.724 124.073  0.00  0.00    +0.021 A 
ATOM      3  C   LIG A   1      -7.985   2.548 122.772  0.00  0.00    +0.061 A 
ATOM      4  C   LIG A   1      -6.850   3.248 122.412  0.00  0.00    +0.167 A 
ATOM      5  O   LIG A   1      -6.223   3.188 121.206  0.00  0.00    -0.453 OA
ATOM      6  C   LIG A   1      -5.109   4.077 121.431  0.00  0.00    +0.466 C 
ATOM      7  O   LIG A   1      -5.110   4.673 122.744  0.00  0.00    -0.453 OA
ATOM      8  C   LIG A   1      -6.217   4.097 123.287  0.00  0.00    +0.170 A 
ATOM      9  C   LIG A   1      -6.683   4.304 124.567  0.00  0.00    +0.095 A 
ENDROOT
BRANCH   1  11
ATOM     10  C   LIG A   1      -7.410   3.934 127.268  0.00  0.00    +0.277 C 
ATOM     11  O   LIG A   1      -8.366   3.723 126.233  0.00  0.00    -0.494 OA
ENDBRANCH   1  11
BRANCH   2  12
ATOM     12  C   LIG A   1      -9.649   1.928 124.494  0.00  0.00    +0.017 C 
ATOM     13  C   LIG A   1      -9.635   0.756 125.146  0.00  0.00    +0.068 C 
BRANCH  13  14
ATOM     14  C   LIG A   1      -8.416   0.028 125.571  0.00  0.00    +0.239 C 
ATOM     15  N   LIG A   1      -8.199  -1.164 124.917  0.00  0.00    -0.298 N 
ATOM     16  C   LIG A   1      -8.969  -1.696 123.803  0.00  0.00    +0.108 C 
ATOM     17  C   LIG A   1      -8.432  -3.105 123.609  0.00  0.00    +0.020 C 
ATOM     18  C   LIG A   1      -6.979  -2.979 124.050  0.00  0.00    +0.020 C 
ATOM     19  C   LIG A   1      -7.060  -2.009 125.224  0.00  0.00    +0.108 C 
ATOM     20  O   LIG A   1      -7.717   0.454 126.482  0.00  0.00    -0.271 OA
ENDBRANCH  13  14
ENDBRANCH   2  12
TORSDOF 3
ENDMDL
MODEL 6
REMARK VINA RESULT:      -6.4      2.414      6.555
REMARK  Name = NuBBE_409
REMARK  4 active torsions:
REMARK  status: ('A' for Active; 'I' for Inactive)
REMARK    1  A    between atoms: C_1  and  O_2
REMARK    2  A    between atoms: O_2  and  C_3
REMARK    3  A    between atoms: C_4  and  C_5
REMARK    4  A    between atoms: C_6  and  C_7
REMARK                            x       y       z     vdW  Elec       q    Type
REMARK                         _______ _______ _______ _____ _____    ______ ____
ROOT
ATOM      1  C   LIG A   1      -6.638   0.608 125.460  0.00  0.00    +0.131 A 
ATOM      2  C   LIG A   1      -7.953   1.144 125.507  0.00  0.00    +0.021 A 
ATOM      3  C   LIG A   1      -9.062   0.281 125.518  0.00  0.00    +0.061 A 
ATOM      4  C   LIG A   1      -8.827  -1.079 125.505  0.00  0.00    +0.167 A 
ATOM      5  O   LIG A   1      -9.776  -2.054 125.527  0.00  0.00    -0.453 OA
ATOM      6  C   LIG A   1      -8.953  -3.239 125.540  0.00  0.00    +0.466 C 
ATOM      7  O   LIG A   1      -7.540  -2.954 125.490  0.00  0.00    -0.453 OA
ATOM      8  C   LIG A   1      -7.554  -1.593 125.481  0.00  0.00    +0.170 A 
ATOM      9  C   LIG A   1      -6.441  -0.781 125.460  0.00  0.00    +0.095 A 
ENDROOT
BRANCH   1  11
ATOM     10  C   LIG A   1      -4.825   1.509 126.677  0.00  0.00    +0.277 C 
ATOM     11  O   LIG A   1      -5.598   1.507 125.480  0.00  0.00    -0.494 OA
ENDBRANCH   1  11
BRANCH   2  12
ATOM     12  C   LIG A   1      -8.186   2.593 125.597  0.00  0.00    +0.017 C 
ATOM     13  C   LIG A   1      -8.274   3.465 124.582  0.00  0.00    +0.068 C 
BRANCH  13  14
ATOM     14  C   LIG A   1      -8.148   3.120 123.146  0.00  0.00    +0.239 C 
ATOM     15  N   LIG A   1      -6.975   3.532 122.556  0.00  0.00    -0.298 N 
ATOM     16  C   LIG A   1      -5.837   4.149 123.222  0.00  0.00    +0.108 C 
ATOM     17  C   LIG A   1      -4.918   4.575 122.088  0.00  0.00    +0.020 C 
ATOM     18  C   LIG A   1      -5.198   3.532 121.013  0.00  0.00    +0.020 C 
ATOM     19  C   LIG A   1      -6.696   3.289 121.152  0.00  0.00    +0.108 C 
ATOM     20  O   LIG A   1      -9.065   2.570 122.550  0.00  0.00    -0.271 OA
ENDBRANCH  13  14
ENDBRANCH   2  12
TORSDOF 3
ENDMDL
MODEL 7
REMARK VINA RESULT:      -6.4      8.637      9.986
REMARK  Name = NuBBE_409
REMARK  4 active torsions:
REMARK  status: ('A' for Active; 'I' for Inactive)
REMARK    1  A    between atoms: C_1  and  O_2
REMARK    2  A    between atoms: O_2  and  C_3
REMARK    3  A    between atoms: C_4  and  C_5
REMARK    4  A    between atoms: C_6  and  C_7
REMARK                            x       y       z     vdW  Elec       q    Type
REMARK                         _______ _______ _______ _____ _____    ______ ____
ROOT
ATOM      1  C   LIG A   1      -9.781   5.115 131.186  0.00  0.00    +0.131 A 
ATOM      2  C   LIG A   1      -8.818   6.149 131.328  0.00  0.00    +0.021 A 
ATOM      3  C   LIG A   1      -8.848   7.258 130.466  0.00  0.00    +0.061 A 
ATOM      4  C   LIG A   1      -9.843   7.313 129.511  0.00  0.00    +0.167 A 
ATOM      5  O   LIG A   1     -10.030   8.314 128.608  0.00  0.00    -0.453 OA
ATOM      6  C   LIG A   1     -11.212   7.849 127.923  0.00  0.00    +0.466 C 
ATOM      7  O   LIG A   1     -11.685   6.573 128.402  0.00  0.00    -0.453 OA
ATOM      8  C   LIG A   1     -10.784   6.320 129.391  0.00  0.00    +0.170 A 
ATOM      9  C   LIG A   1     -10.784   5.212 130.209  0.00  0.00    +0.095 A 
ENDROOT
BRANCH   1  11
ATOM     10  C   LIG A   1      -9.615   2.778 131.491  0.00  0.00    +0.277 C 
ATOM     11  O   LIG A   1      -9.712   4.072 132.080  0.00  0.00    -0.494 OA
ENDBRANCH   1  11
BRANCH   2  12
ATOM     12  C   LIG A   1      -7.811   6.115 132.399  0.00  0.00    +0.017 C 
ATOM     13  C   LIG A   1      -6.551   5.662 132.313  0.00  0.00    +0.068 C 
BRANCH  13  14
ATOM     14  C   LIG A   1      -5.928   5.095 131.094  0.00  0.00    +0.239 C 
ATOM     15  N   LIG A   1      -5.117   5.967 130.404  0.00  0.00    -0.298 N 
ATOM     16  C   LIG A   1      -4.735   7.310 130.815  0.00  0.00    +0.108 C 
ATOM     17  C   LIG A   1      -4.008   7.884 129.610  0.00  0.00    +0.020 C 
ATOM     18  C   LIG A   1      -3.379   6.652 128.973  0.00  0.00    +0.020 C 
ATOM     19  C   LIG A   1      -4.441   5.578 129.179  0.00  0.00    +0.108 C 
ATOM     20  O   LIG A   1      -6.192   3.957 130.725  0.00  0.00    -0.271 OA
ENDBRANCH  13  14
ENDBRANCH   2  12
TORSDOF 3
ENDMDL
MODEL 8
REMARK VINA RESULT:      -6.3      7.814     10.325
REMARK  Name = NuBBE_409
REMARK  4 active torsions:
REMARK  status: ('A' for Active; 'I' for Inactive)
REMARK    1  A    between atoms: C_1  and  O_2
REMARK    2  A    between atoms: O_2  and  C_3
REMARK    3  A    between atoms: C_4  and  C_5
REMARK    4  A    between atoms: C_6  and  C_7
REMARK                            x       y       z     vdW  Elec       q    Type
REMARK                         _______ _______ _______ _____ _____    ______ ____
ROOT
ATOM      1  C   LIG A   1      -8.471   3.881 129.420  0.00  0.00    +0.131 A 
ATOM      2  C   LIG A   1      -8.231   4.525 130.662  0.00  0.00    +0.021 A 
ATOM      3  C   LIG A   1      -8.192   3.771 131.847  0.00  0.00    +0.061 A 
ATOM      4  C   LIG A   1      -8.368   2.405 131.755  0.00  0.00    +0.167 A 
ATOM      5  O   LIG A   1      -8.346   1.524 132.792  0.00  0.00    -0.453 OA
ATOM      6  C   LIG A   1      -8.542   0.275 132.095  0.00  0.00    +0.466 C 
ATOM      7  O   LIG A   1      -8.711   0.434 130.672  0.00  0.00    -0.453 OA
ATOM      8  C   LIG A   1      -8.579   1.784 130.548  0.00  0.00    +0.170 A 
ATOM      9  C   LIG A   1      -8.635   2.488 129.365  0.00  0.00    +0.095 A 
ENDROOT
BRANCH   1  11
ATOM     10  C   LIG A   1      -7.688   4.181 127.211  0.00  0.00    +0.277 C 
ATOM     11  O   LIG A   1      -8.469   4.674 128.296  0.00  0.00    -0.494 OA
ENDBRANCH   1  11
BRANCH   2  12
ATOM     12  C   LIG A   1      -7.969   5.970 130.738  0.00  0.00    +0.017 C 
ATOM     13  C   LIG A   1      -8.871   6.951 130.888  0.00  0.00    +0.068 C 
BRANCH  13  14
ATOM     14  C   LIG A   1     -10.336   6.755 131.008  0.00  0.00    +0.239 C 
ATOM     15  N   LIG A   1     -11.073   7.270 129.966  0.00  0.00    -0.298 N 
ATOM     16  C   LIG A   1     -10.552   7.864 128.743  0.00  0.00    +0.108 C 
ATOM     17  C   LIG A   1     -11.777   8.436 128.048  0.00  0.00    +0.020 C 
ATOM     18  C   LIG A   1     -12.890   7.493 128.487  0.00  0.00    +0.020 C 
ATOM     19  C   LIG A   1     -12.521   7.177 129.933  0.00  0.00    +0.108 C 
ATOM     20  O   LIG A   1     -10.819   6.229 132.003  0.00  0.00    -0.271 OA
ENDBRANCH  13  14
ENDBRANCH   2  12
TORSDOF 3
ENDMDL
MODEL 9
REMARK VINA RESULT:      -6.3      3.044      5.785
REMARK  Name = NuBBE_409
REMARK  4 active torsions:
REMARK  status: ('A' for Active; 'I' for Inactive)
REMARK    1  A    between atoms: C_1  and  O_2
REMARK    2  A    between atoms: O_2  and  C_3
REMARK    3  A    between atoms: C_4  and  C_5
REMARK    4  A    between atoms: C_6  and  C_7
REMARK                            x       y       z     vdW  Elec       q    Type
REMARK                         _______ _______ _______ _____ _____    ______ ____
ROOT
ATOM      1  C   LIG A   1      -8.404   2.731 122.763  0.00  0.00    +0.131 A 
ATOM      2  C   LIG A   1      -7.095   2.596 123.296  0.00  0.00    +0.021 A 
ATOM      3  C   LIG A   1      -6.756   1.456 124.044  0.00  0.00    +0.061 A 
ATOM      4  C   LIG A   1      -7.719   0.482 124.217  0.00  0.00    +0.167 A 
ATOM      5  O   LIG A   1      -7.561  -0.686 124.896  0.00  0.00    -0.453 OA
ATOM      6  C   LIG A   1      -8.856  -1.293 124.704  0.00  0.00    +0.466 C 
ATOM      7  O   LIG A   1      -9.768  -0.468 123.951  0.00  0.00    -0.453 OA
ATOM      8  C   LIG A   1      -8.977   0.607 123.681  0.00  0.00    +0.170 A 
ATOM      9  C   LIG A   1      -9.352   1.714 122.951  0.00  0.00    +0.095 A 
ENDROOT
BRANCH   1  11
ATOM     10  C   LIG A   1      -8.868   3.627 120.626  0.00  0.00    +0.277 C 
ATOM     11  O   LIG A   1      -8.660   3.858 122.017  0.00  0.00    -0.494 OA
ENDBRANCH   1  11
BRANCH   2  12
ATOM     12  C   LIG A   1      -6.056   3.606 123.040  0.00  0.00    +0.017 C 
ATOM     13  C   LIG A   1      -5.613   4.546 123.888  0.00  0.00    +0.068 C 
BRANCH  13  14
ATOM     14  C   LIG A   1      -6.101   4.747 125.273  0.00  0.00    +0.239 C 
ATOM     15  N   LIG A   1      -5.303   4.197 126.250  0.00  0.00    -0.298 N 
ATOM     16  C   LIG A   1      -4.008   3.562 126.059  0.00  0.00    +0.108 C 
ATOM     17  C   LIG A   1      -3.673   2.967 127.418  0.00  0.00    +0.020 C 
ATOM     18  C   LIG A   1      -4.355   3.925 128.386  0.00  0.00    +0.020 C 
ATOM     19  C   LIG A   1      -5.644   4.289 127.658  0.00  0.00    +0.108 C 
ATOM     20  O   LIG A   1      -7.170   5.306 125.486  0.00  0.00    -0.271 OA
ENDBRANCH  13  14
ENDBRANCH   2  12
TORSDOF 3
ENDMDL
