MODEL 1
REMARK VINA RESULT:      -9.0      0.000      0.000
REMARK  Name = NuBBE_347
REMARK  10 active torsions:
REMARK  status: ('A' for Active; 'I' for Inactive)
REMARK    1  A    between atoms: C_5  and  C_32
REMARK    2  A    between atoms: C_11  and  C_15
REMARK    3  A    between atoms: C_18  and  C_20
REMARK    4  A    between atoms: C_20  and  C_22
REMARK    5  A    between atoms: C_20  and  C_30
REMARK    6  A    between atoms: C_23  and  C_24
REMARK    7  A    between atoms: C_24  and  C_26
REMARK    8  A    between atoms: C_24  and  C_27
REMARK    9  A    between atoms: C_27  and  C_28
REMARK   10  A    between atoms: C_27  and  C_29
REMARK                            x       y       z     vdW  Elec       q    Type
REMARK                         _______ _______ _______ _____ _____    ______ ____
ROOT
ATOM      1  O   LIG A   1      -3.129  -3.654 130.761  0.00  0.00    -0.293 OA
ATOM      2  C   LIG A   1      -4.153  -3.092 130.380  0.00  0.00    +0.156 C 
ATOM      3  C   LIG A   1      -4.167  -1.652 129.945  0.00  0.00    +0.080 C 
ATOM      4  C   LIG A   1      -5.484  -0.991 130.332  0.00  0.00    +0.019 C 
ATOM      5  C   LIG A   1      -6.757  -1.749 129.858  0.00  0.00    +0.000 C 
ATOM      6  C   LIG A   1      -6.544  -3.261 129.886  0.00  0.00    -0.038 C 
ATOM      7  C   LIG A   1      -7.692  -4.037 129.468  0.00  0.00    +0.004 C 
ATOM      8  C   LIG A   1      -8.501  -3.580 128.498  0.00  0.00    +0.004 C 
ATOM      9  C   LIG A   1      -8.233  -2.341 127.784  0.00  0.00    -0.044 C 
ATOM     10  C   LIG A   1      -8.618  -2.154 126.503  0.00  0.00    -0.060 C 
ATOM     11  C   LIG A   1      -8.193  -0.939 125.666  0.00  0.00    -0.007 C 
ATOM     12  C   LIG A   1      -6.849  -0.334 126.142  0.00  0.00    +0.012 C 
ATOM     13  C   LIG A   1      -6.232  -0.968 127.398  0.00  0.00    +0.010 C 
ATOM     14  C   LIG A   1      -7.303  -1.309 128.443  0.00  0.00    +0.029 C 
ATOM     15  C   LIG A   1      -9.297   0.139 125.835  0.00  0.00    +0.016 C 
ATOM     16  C   LIG A   1      -9.273  -3.166 125.605  0.00  0.00    +0.032 C 
ATOM     17  C   LIG A   1      -8.437  -3.009 124.347  0.00  0.00    +0.009 C 
ATOM     18  C   LIG A   1      -8.275  -1.488 124.188  0.00  0.00    +0.006 C 
ATOM     19  C   LIG A   1      -5.397  -3.877 130.201  0.00  0.00    +0.050 C 
ATOM     20  C   LIG A   1      -7.854  -1.384 130.910  0.00  0.00    +0.016 C 
ENDROOT
BRANCH  18  21
ATOM     21  C   LIG A   1      -7.263  -1.100 123.073  0.00  0.00    +0.012 C 
ATOM     22  C   LIG A   1      -6.030  -2.003 122.936  0.00  0.00    +0.012 C 
BRANCH  21  23
ATOM     23  C   LIG A   1      -6.877   0.364 123.111  0.00  0.00    -0.027 C 
ATOM     24  C   LIG A   1      -7.722   1.376 122.849  0.00  0.00    -0.027 C 
BRANCH  24  25
ATOM     25  C   LIG A   1      -7.328   2.839 122.899  0.00  0.00    +0.011 C 
ATOM     26  C   LIG A   1      -6.337   3.088 121.756  0.00  0.00    +0.012 C 
BRANCH  25  27
ATOM     27  C   LIG A   1      -6.742   3.233 124.284  0.00  0.00    -0.011 C 
ATOM     28  C   LIG A   1      -5.634   4.286 124.156  0.00  0.00    +0.008 C 
ATOM     29  C   LIG A   1      -7.819   3.780 125.231  0.00  0.00    +0.008 C 
ENDBRANCH  25  27
ENDBRANCH  24  25
ENDBRANCH  21  23
ENDBRANCH  18  21
TORSDOF 4
ENDMDL
MODEL 2
REMARK VINA RESULT:      -8.7      7.171      9.730
REMARK  Name = NuBBE_347
REMARK  10 active torsions:
REMARK  status: ('A' for Active; 'I' for Inactive)
REMARK    1  A    between atoms: C_5  and  C_32
REMARK    2  A    between atoms: C_11  and  C_15
REMARK    3  A    between atoms: C_18  and  C_20
REMARK    4  A    between atoms: C_20  and  C_22
REMARK    5  A    between atoms: C_20  and  C_30
REMARK    6  A    between atoms: C_23  and  C_24
REMARK    7  A    between atoms: C_24  and  C_26
REMARK    8  A    between atoms: C_24  and  C_27
REMARK    9  A    between atoms: C_27  and  C_28
REMARK   10  A    between atoms: C_27  and  C_29
REMARK                            x       y       z     vdW  Elec       q    Type
REMARK                         _______ _______ _______ _____ _____    ______ ____
ROOT
ATOM      1  O   LIG A   1      -2.077   7.054 127.784  0.00  0.00    -0.293 OA
ATOM      2  C   LIG A   1      -2.658   6.994 128.864  0.00  0.00    +0.156 C 
ATOM      3  C   LIG A   1      -3.742   7.963 129.251  0.00  0.00    +0.080 C 
ATOM      4  C   LIG A   1      -3.694   8.249 130.747  0.00  0.00    +0.019 C 
ATOM      5  C   LIG A   1      -3.700   6.984 131.652  0.00  0.00    +0.000 C 
ATOM      6  C   LIG A   1      -2.941   5.831 131.000  0.00  0.00    -0.038 C 
ATOM      7  C   LIG A   1      -2.892   4.619 131.789  0.00  0.00    +0.004 C 
ATOM      8  C   LIG A   1      -3.940   4.268 132.553  0.00  0.00    +0.004 C 
ATOM      9  C   LIG A   1      -5.176   5.034 132.574  0.00  0.00    -0.044 C 
ATOM     10  C   LIG A   1      -6.374   4.456 132.813  0.00  0.00    -0.060 C 
ATOM     11  C   LIG A   1      -7.710   5.196 132.661  0.00  0.00    -0.007 C 
ATOM     12  C   LIG A   1      -7.629   6.360 131.643  0.00  0.00    +0.012 C 
ATOM     13  C   LIG A   1      -6.241   6.638 131.046  0.00  0.00    +0.010 C 
ATOM     14  C   LIG A   1      -5.134   6.496 132.100  0.00  0.00    +0.029 C 
ATOM     15  C   LIG A   1      -8.062   5.792 134.051  0.00  0.00    +0.016 C 
ATOM     16  C   LIG A   1      -6.642   2.989 133.000  0.00  0.00    +0.032 C 
ATOM     17  C   LIG A   1      -7.837   2.802 132.082  0.00  0.00    +0.009 C 
ATOM     18  C   LIG A   1      -8.726   4.025 132.365  0.00  0.00    +0.006 C 
ATOM     19  C   LIG A   1      -2.395   5.856 129.776  0.00  0.00    +0.050 C 
ATOM     20  C   LIG A   1      -2.933   7.414 132.944  0.00  0.00    +0.016 C 
ENDROOT
BRANCH  18  21
ATOM     21  C   LIG A   1      -9.915   4.153 131.371  0.00  0.00    +0.012 C 
ATOM     22  C   LIG A   1      -9.649   3.680 129.935  0.00  0.00    +0.012 C 
BRANCH  21  23
ATOM     23  C   LIG A   1     -10.558   5.524 131.394  0.00  0.00    -0.027 C 
ATOM     24  C   LIG A   1     -10.986   6.176 130.300  0.00  0.00    -0.027 C 
BRANCH  24  25
ATOM     25  C   LIG A   1     -11.639   7.544 130.335  0.00  0.00    +0.011 C 
ATOM     26  C   LIG A   1     -12.885   7.436 131.222  0.00  0.00    +0.012 C 
BRANCH  25  27
ATOM     27  C   LIG A   1     -11.974   8.062 128.909  0.00  0.00    -0.011 C 
ATOM     28  C   LIG A   1     -12.933   9.259 128.947  0.00  0.00    +0.008 C 
ATOM     29  C   LIG A   1     -10.714   8.478 128.136  0.00  0.00    +0.008 C 
ENDBRANCH  25  27
ENDBRANCH  24  25
ENDBRANCH  21  23
ENDBRANCH  18  21
TORSDOF 4
ENDMDL
MODEL 3
REMARK VINA RESULT:      -8.6      5.415      7.992
REMARK  Name = NuBBE_347
REMARK  10 active torsions:
REMARK  status: ('A' for Active; 'I' for Inactive)
REMARK    1  A    between atoms: C_5  and  C_32
REMARK    2  A    between atoms: C_11  and  C_15
REMARK    3  A    between atoms: C_18  and  C_20
REMARK    4  A    between atoms: C_20  and  C_22
REMARK    5  A    between atoms: C_20  and  C_30
REMARK    6  A    between atoms: C_23  and  C_24
REMARK    7  A    between atoms: C_24  and  C_26
REMARK    8  A    between atoms: C_24  and  C_27
REMARK    9  A    between atoms: C_27  and  C_28
REMARK   10  A    between atoms: C_27  and  C_29
REMARK                            x       y       z     vdW  Elec       q    Type
REMARK                         _______ _______ _______ _____ _____    ______ ____
ROOT
ATOM      1  O   LIG A   1     -11.786   5.294 129.562  0.00  0.00    -0.293 OA
ATOM      2  C   LIG A   1     -10.684   5.151 130.085  0.00  0.00    +0.156 C 
ATOM      3  C   LIG A   1     -10.100   3.796 130.378  0.00  0.00    +0.080 C 
ATOM      4  C   LIG A   1      -9.277   3.835 131.660  0.00  0.00    +0.019 C 
ATOM      5  C   LIG A   1      -8.195   4.952 131.705  0.00  0.00    +0.000 C 
ATOM      6  C   LIG A   1      -8.666   6.209 130.979  0.00  0.00    -0.038 C 
ATOM      7  C   LIG A   1      -7.715   7.301 130.988  0.00  0.00    +0.004 C 
ATOM      8  C   LIG A   1      -6.397   7.049 130.924  0.00  0.00    +0.004 C 
ATOM      9  C   LIG A   1      -5.870   5.701 130.776  0.00  0.00    -0.044 C 
ATOM     10  C   LIG A   1      -4.705   5.452 130.141  0.00  0.00    -0.060 C 
ATOM     11  C   LIG A   1      -4.214   4.036 129.807  0.00  0.00    -0.007 C 
ATOM     12  C   LIG A   1      -5.379   3.027 129.659  0.00  0.00    +0.012 C 
ATOM     13  C   LIG A   1      -6.784   3.569 129.962  0.00  0.00    +0.010 C 
ATOM     14  C   LIG A   1      -6.775   4.520 131.167  0.00  0.00    +0.029 C 
ATOM     15  C   LIG A   1      -3.318   3.574 130.987  0.00  0.00    +0.016 C 
ATOM     16  C   LIG A   1      -3.836   6.454 129.433  0.00  0.00    +0.032 C 
ATOM     17  C   LIG A   1      -3.570   5.725 128.127  0.00  0.00    +0.009 C 
ATOM     18  C   LIG A   1      -3.281   4.276 128.556  0.00  0.00    +0.006 C 
ATOM     19  C   LIG A   1      -9.824   6.335 130.316  0.00  0.00    +0.050 C 
ATOM     20  C   LIG A   1      -8.032   5.288 133.223  0.00  0.00    +0.016 C 
ENDROOT
BRANCH  18  21
ATOM     21  C   LIG A   1      -3.193   3.295 127.353  0.00  0.00    +0.012 C 
ATOM     22  C   LIG A   1      -1.795   3.082 126.755  0.00  0.00    +0.012 C 
BRANCH  21  23
ATOM     23  C   LIG A   1      -4.218   3.587 126.277  0.00  0.00    -0.027 C 
ATOM     24  C   LIG A   1      -5.110   2.692 125.820  0.00  0.00    -0.027 C 
BRANCH  24  25
ATOM     25  C   LIG A   1      -6.139   2.997 124.750  0.00  0.00    +0.011 C 
ATOM     26  C   LIG A   1      -5.640   4.217 123.967  0.00  0.00    +0.012 C 
BRANCH  25  27
ATOM     27  C   LIG A   1      -7.553   3.222 125.355  0.00  0.00    -0.011 C 
ATOM     28  C   LIG A   1      -7.804   2.322 126.572  0.00  0.00    +0.008 C 
ATOM     29  C   LIG A   1      -7.774   4.681 125.780  0.00  0.00    +0.008 C 
ENDBRANCH  25  27
ENDBRANCH  24  25
ENDBRANCH  21  23
ENDBRANCH  18  21
TORSDOF 4
ENDMDL
MODEL 4
REMARK VINA RESULT:      -8.5      2.517      6.464
REMARK  Name = NuBBE_347
REMARK  10 active torsions:
REMARK  status: ('A' for Active; 'I' for Inactive)
REMARK    1  A    between atoms: C_5  and  C_32
REMARK    2  A    between atoms: C_11  and  C_15
REMARK    3  A    between atoms: C_18  and  C_20
REMARK    4  A    between atoms: C_20  and  C_22
REMARK    5  A    between atoms: C_20  and  C_30
REMARK    6  A    between atoms: C_23  and  C_24
REMARK    7  A    between atoms: C_24  and  C_26
REMARK    8  A    between atoms: C_24  and  C_27
REMARK    9  A    between atoms: C_27  and  C_28
REMARK   10  A    between atoms: C_27  and  C_29
REMARK                            x       y       z     vdW  Elec       q    Type
REMARK                         _______ _______ _______ _____ _____    ______ ____
ROOT
ATOM      1  O   LIG A   1      -4.010   4.233 130.011  0.00  0.00    -0.293 OA
ATOM      2  C   LIG A   1      -4.340   3.872 128.885  0.00  0.00    +0.156 C 
ATOM      3  C   LIG A   1      -3.515   2.912 128.072  0.00  0.00    +0.080 C 
ATOM      4  C   LIG A   1      -3.598   3.259 126.590  0.00  0.00    +0.019 C 
ATOM      5  C   LIG A   1      -5.044   3.392 126.033  0.00  0.00    +0.000 C 
ATOM      6  C   LIG A   1      -5.989   3.977 127.079  0.00  0.00    -0.038 C 
ATOM      7  C   LIG A   1      -7.355   4.144 126.629  0.00  0.00    +0.004 C 
ATOM      8  C   LIG A   1      -7.901   3.255 125.782  0.00  0.00    +0.004 C 
ATOM      9  C   LIG A   1      -7.187   2.069 125.336  0.00  0.00    -0.044 C 
ATOM     10  C   LIG A   1      -7.829   0.925 125.014  0.00  0.00    -0.060 C 
ATOM     11  C   LIG A   1      -7.100  -0.394 124.718  0.00  0.00    -0.007 C 
ATOM     12  C   LIG A   1      -5.724  -0.479 125.423  0.00  0.00    +0.012 C 
ATOM     13  C   LIG A   1      -5.283   0.774 126.194  0.00  0.00    +0.010 C 
ATOM     14  C   LIG A   1      -5.653   2.060 125.443  0.00  0.00    +0.029 C 
ATOM     15  C   LIG A   1      -6.865  -0.452 123.185  0.00  0.00    +0.016 C 
ATOM     16  C   LIG A   1      -9.303   0.657 125.136  0.00  0.00    +0.032 C 
ATOM     17  C   LIG A   1      -9.287  -0.699 125.820  0.00  0.00    +0.009 C 
ATOM     18  C   LIG A   1      -8.186  -1.481 125.082  0.00  0.00    +0.006 C 
ATOM     19  C   LIG A   1      -5.659   4.275 128.343  0.00  0.00    +0.050 C 
ATOM     20  C   LIG A   1      -4.923   4.408 124.851  0.00  0.00    +0.016 C 
ENDROOT
BRANCH  18  21
ATOM     21  C   LIG A   1      -7.845  -2.836 125.765  0.00  0.00    +0.012 C 
ATOM     22  C   LIG A   1      -8.275  -4.101 125.008  0.00  0.00    +0.012 C 
BRANCH  21  23
ATOM     23  C   LIG A   1      -8.267  -2.888 127.218  0.00  0.00    -0.027 C 
ATOM     24  C   LIG A   1      -7.458  -2.598 128.251  0.00  0.00    -0.027 C 
BRANCH  24  25
ATOM     25  C   LIG A   1      -7.894  -2.643 129.702  0.00  0.00    +0.011 C 
ATOM     26  C   LIG A   1      -7.897  -1.201 130.225  0.00  0.00    +0.012 C 
BRANCH  25  27
ATOM     27  C   LIG A   1      -6.987  -3.576 130.551  0.00  0.00    -0.011 C 
ATOM     28  C   LIG A   1      -5.563  -3.657 129.986  0.00  0.00    +0.008 C 
ATOM     29  C   LIG A   1      -6.900  -3.121 132.014  0.00  0.00    +0.008 C 
ENDBRANCH  25  27
ENDBRANCH  24  25
ENDBRANCH  21  23
ENDBRANCH  18  21
TORSDOF 4
ENDMDL
MODEL 5
REMARK VINA RESULT:      -8.4      3.964      6.705
REMARK  Name = NuBBE_347
REMARK  10 active torsions:
REMARK  status: ('A' for Active; 'I' for Inactive)
REMARK    1  A    between atoms: C_5  and  C_32
REMARK    2  A    between atoms: C_11  and  C_15
REMARK    3  A    between atoms: C_18  and  C_20
REMARK    4  A    between atoms: C_20  and  C_22
REMARK    5  A    between atoms: C_20  and  C_30
REMARK    6  A    between atoms: C_23  and  C_24
REMARK    7  A    between atoms: C_24  and  C_26
REMARK    8  A    between atoms: C_24  and  C_27
REMARK    9  A    between atoms: C_27  and  C_28
REMARK   10  A    between atoms: C_27  and  C_29
REMARK                            x       y       z     vdW  Elec       q    Type
REMARK                         _______ _______ _______ _____ _____    ______ ____
ROOT
ATOM      1  O   LIG A   1      -4.883  -4.050 123.652  0.00  0.00    -0.293 OA
ATOM      2  C   LIG A   1      -5.431  -3.098 124.202  0.00  0.00    +0.156 C 
ATOM      3  C   LIG A   1      -5.326  -2.853 125.683  0.00  0.00    +0.080 C 
ATOM      4  C   LIG A   1      -6.622  -2.257 126.219  0.00  0.00    +0.019 C 
ATOM      5  C   LIG A   1      -7.121  -0.995 125.459  0.00  0.00    +0.000 C 
ATOM      6  C   LIG A   1      -6.797  -1.080 123.970  0.00  0.00    -0.038 C 
ATOM      7  C   LIG A   1      -7.242   0.056 123.192  0.00  0.00    +0.004 C 
ATOM      8  C   LIG A   1      -7.220   1.290 123.724  0.00  0.00    +0.004 C 
ATOM      9  C   LIG A   1      -6.696   1.552 125.055  0.00  0.00    -0.044 C 
ATOM     10  C   LIG A   1      -6.123   2.731 125.381  0.00  0.00    -0.060 C 
ATOM     11  C   LIG A   1      -5.398   2.975 126.713  0.00  0.00    -0.007 C 
ATOM     12  C   LIG A   1      -4.830   1.670 127.324  0.00  0.00    +0.012 C 
ATOM     13  C   LIG A   1      -5.162   0.373 126.571  0.00  0.00    +0.010 C 
ATOM     14  C   LIG A   1      -6.604   0.378 126.044  0.00  0.00    +0.029 C 
ATOM     15  C   LIG A   1      -6.444   3.557 127.701  0.00  0.00    +0.016 C 
ATOM     16  C   LIG A   1      -5.856   3.886 124.457  0.00  0.00    +0.032 C 
ATOM     17  C   LIG A   1      -4.415   4.207 124.815  0.00  0.00    +0.009 C 
ATOM     18  C   LIG A   1      -4.381   4.126 126.351  0.00  0.00    +0.006 C 
ATOM     19  C   LIG A   1      -6.107  -2.067 123.381  0.00  0.00    +0.050 C 
ATOM     20  C   LIG A   1      -8.674  -1.015 125.630  0.00  0.00    +0.016 C 
ENDROOT
BRANCH  18  21
ATOM     21  C   LIG A   1      -2.940   4.208 126.929  0.00  0.00    +0.012 C 
ATOM     22  C   LIG A   1      -2.012   3.030 126.603  0.00  0.00    +0.012 C 
BRANCH  21  23
ATOM     23  C   LIG A   1      -2.915   4.542 128.407  0.00  0.00    -0.027 C 
ATOM     24  C   LIG A   1      -2.634   5.758 128.902  0.00  0.00    -0.027 C 
BRANCH  24  25
ATOM     25  C   LIG A   1      -2.622   6.085 130.382  0.00  0.00    +0.011 C 
ATOM     26  C   LIG A   1      -2.928   4.788 131.141  0.00  0.00    +0.012 C 
BRANCH  25  27
ATOM     27  C   LIG A   1      -3.621   7.222 130.733  0.00  0.00    -0.011 C 
ATOM     28  C   LIG A   1      -3.879   8.145 129.534  0.00  0.00    +0.008 C 
ATOM     29  C   LIG A   1      -4.971   6.675 131.219  0.00  0.00    +0.008 C 
ENDBRANCH  25  27
ENDBRANCH  24  25
ENDBRANCH  21  23
ENDBRANCH  18  21
TORSDOF 4
ENDMDL
MODEL 6
REMARK VINA RESULT:      -8.4      3.124      6.078
REMARK  Name = NuBBE_347
REMARK  10 active torsions:
REMARK  status: ('A' for Active; 'I' for Inactive)
REMARK    1  A    between atoms: C_5  and  C_32
REMARK    2  A    between atoms: C_11  and  C_15
REMARK    3  A    between atoms: C_18  and  C_20
REMARK    4  A    between atoms: C_20  and  C_22
REMARK    5  A    between atoms: C_20  and  C_30
REMARK    6  A    between atoms: C_23  and  C_24
REMARK    7  A    between atoms: C_24  and  C_26
REMARK    8  A    between atoms: C_24  and  C_27
REMARK    9  A    between atoms: C_27  and  C_28
REMARK   10  A    between atoms: C_27  and  C_29
REMARK                            x       y       z     vdW  Elec       q    Type
REMARK                         _______ _______ _______ _____ _____    ______ ____
ROOT
ATOM      1  O   LIG A   1      -5.640  -2.149 121.974  0.00  0.00    -0.293 OA
ATOM      2  C   LIG A   1      -6.248  -2.132 123.040  0.00  0.00    +0.156 C 
ATOM      3  C   LIG A   1      -5.841  -2.980 124.215  0.00  0.00    +0.080 C 
ATOM      4  C   LIG A   1      -7.068  -3.434 124.996  0.00  0.00    +0.019 C 
ATOM      5  C   LIG A   1      -8.032  -2.289 125.418  0.00  0.00    +0.000 C 
ATOM      6  C   LIG A   1      -8.077  -1.185 124.364  0.00  0.00    -0.038 C 
ATOM      7  C   LIG A   1      -8.964  -0.087 124.681  0.00  0.00    +0.004 C 
ATOM      8  C   LIG A   1      -9.112   0.317 125.955  0.00  0.00    +0.004 C 
ATOM      9  C   LIG A   1      -8.353  -0.271 127.048  0.00  0.00    -0.044 C 
ATOM     10  C   LIG A   1      -8.021   0.435 128.151  0.00  0.00    -0.060 C 
ATOM     11  C   LIG A   1      -7.071  -0.095 129.234  0.00  0.00    -0.007 C 
ATOM     12  C   LIG A   1      -6.068  -1.138 128.681  0.00  0.00    +0.012 C 
ATOM     13  C   LIG A   1      -6.252  -1.535 127.209  0.00  0.00    +0.010 C 
ATOM     14  C   LIG A   1      -7.736  -1.663 126.838  0.00  0.00    +0.029 C 
ATOM     15  C   LIG A   1      -7.947  -0.787 130.312  0.00  0.00    +0.016 C 
ATOM     16  C   LIG A   1      -8.282   1.895 128.395  0.00  0.00    +0.032 C 
ATOM     17  C   LIG A   1      -6.920   2.344 128.895  0.00  0.00    +0.009 C 
ATOM     18  C   LIG A   1      -6.487   1.230 129.863  0.00  0.00    +0.006 C 
ATOM     19  C   LIG A   1      -7.337  -1.148 123.247  0.00  0.00    +0.050 C 
ATOM     20  C   LIG A   1      -9.441  -2.960 125.494  0.00  0.00    +0.016 C 
ENDROOT
BRANCH  18  21
ATOM     21  C   LIG A   1      -5.012   1.376 130.333  0.00  0.00    +0.012 C 
ATOM     22  C   LIG A   1      -4.802   2.010 131.716  0.00  0.00    +0.012 C 
BRANCH  21  23
ATOM     23  C   LIG A   1      -4.120   2.016 129.289  0.00  0.00    -0.027 C 
ATOM     24  C   LIG A   1      -3.717   3.297 129.321  0.00  0.00    -0.027 C 
BRANCH  24  25
ATOM     25  C   LIG A   1      -2.815   3.924 128.277  0.00  0.00    +0.011 C 
ATOM     26  C   LIG A   1      -3.238   5.390 128.125  0.00  0.00    +0.012 C 
BRANCH  25  27
ATOM     27  C   LIG A   1      -2.866   3.152 126.929  0.00  0.00    -0.011 C 
ATOM     28  C   LIG A   1      -3.816   3.818 125.925  0.00  0.00    +0.008 C 
ATOM     29  C   LIG A   1      -1.481   3.037 126.278  0.00  0.00    +0.008 C 
ENDBRANCH  25  27
ENDBRANCH  24  25
ENDBRANCH  21  23
ENDBRANCH  18  21
TORSDOF 4
ENDMDL
MODEL 7
REMARK VINA RESULT:      -8.4      2.852      6.523
REMARK  Name = NuBBE_347
REMARK  10 active torsions:
REMARK  status: ('A' for Active; 'I' for Inactive)
REMARK    1  A    between atoms: C_5  and  C_32
REMARK    2  A    between atoms: C_11  and  C_15
REMARK    3  A    between atoms: C_18  and  C_20
REMARK    4  A    between atoms: C_20  and  C_22
REMARK    5  A    between atoms: C_20  and  C_30
REMARK    6  A    between atoms: C_23  and  C_24
REMARK    7  A    between atoms: C_24  and  C_26
REMARK    8  A    between atoms: C_24  and  C_27
REMARK    9  A    between atoms: C_27  and  C_28
REMARK   10  A    between atoms: C_27  and  C_29
REMARK                            x       y       z     vdW  Elec       q    Type
REMARK                         _______ _______ _______ _____ _____    ______ ____
ROOT
ATOM      1  O   LIG A   1      -9.222   1.562 123.505  0.00  0.00    -0.293 OA
ATOM      2  C   LIG A   1      -8.567   0.671 124.039  0.00  0.00    +0.156 C 
ATOM      3  C   LIG A   1      -7.098   0.813 124.330  0.00  0.00    +0.080 C 
ATOM      4  C   LIG A   1      -6.390  -0.526 124.169  0.00  0.00    +0.019 C 
ATOM      5  C   LIG A   1      -7.025  -1.699 124.968  0.00  0.00    +0.000 C 
ATOM      6  C   LIG A   1      -8.544  -1.564 125.038  0.00  0.00    -0.038 C 
ATOM      7  C   LIG A   1      -9.211  -2.628 125.758  0.00  0.00    +0.004 C 
ATOM      8  C   LIG A   1      -8.625  -3.189 126.830  0.00  0.00    +0.004 C 
ATOM      9  C   LIG A   1      -7.351  -2.719 127.352  0.00  0.00    -0.044 C 
ATOM     10  C   LIG A   1      -7.036  -2.811 128.662  0.00  0.00    -0.060 C 
ATOM     11  C   LIG A   1      -5.786  -2.164 129.274  0.00  0.00    -0.007 C 
ATOM     12  C   LIG A   1      -5.308  -0.928 128.473  0.00  0.00    +0.012 C 
ATOM     13  C   LIG A   1      -6.080  -0.624 127.180  0.00  0.00    +0.010 C 
ATOM     14  C   LIG A   1      -6.437  -1.908 126.419  0.00  0.00    +0.029 C 
ATOM     15  C   LIG A   1      -4.658  -3.230 129.241  0.00  0.00    +0.016 C 
ATOM     16  C   LIG A   1      -7.928  -3.302 129.768  0.00  0.00    +0.032 C 
ATOM     17  C   LIG A   1      -7.722  -2.209 130.803  0.00  0.00    +0.009 C 
ATOM     18  C   LIG A   1      -6.206  -1.950 130.781  0.00  0.00    +0.006 C 
ATOM     19  C   LIG A   1      -9.255  -0.539 124.547  0.00  0.00    +0.050 C 
ATOM     20  C   LIG A   1      -6.679  -2.980 124.141  0.00  0.00    +0.016 C 
ENDROOT
BRANCH  18  21
ATOM     21  C   LIG A   1      -5.792  -0.706 131.617  0.00  0.00    +0.012 C 
ATOM     22  C   LIG A   1      -5.112  -0.991 132.963  0.00  0.00    +0.012 C 
BRANCH  21  23
ATOM     23  C   LIG A   1      -6.910   0.305 131.763  0.00  0.00    -0.027 C 
ATOM     24  C   LIG A   1      -7.279   1.168 130.802  0.00  0.00    -0.027 C 
BRANCH  24  25
ATOM     25  C   LIG A   1      -8.407   2.169 130.955  0.00  0.00    +0.011 C 
ATOM     26  C   LIG A   1      -9.499   1.505 131.802  0.00  0.00    +0.012 C 
BRANCH  25  27
ATOM     27  C   LIG A   1      -8.942   2.654 129.578  0.00  0.00    -0.011 C 
ATOM     28  C   LIG A   1      -8.405   4.044 129.214  0.00  0.00    +0.008 C 
ATOM     29  C   LIG A   1      -8.579   1.685 128.445  0.00  0.00    +0.008 C 
ENDBRANCH  25  27
ENDBRANCH  24  25
ENDBRANCH  21  23
ENDBRANCH  18  21
TORSDOF 4
ENDMDL
MODEL 8
REMARK VINA RESULT:      -8.3      2.933      6.805
REMARK  Name = NuBBE_347
REMARK  10 active torsions:
REMARK  status: ('A' for Active; 'I' for Inactive)
REMARK    1  A    between atoms: C_5  and  C_32
REMARK    2  A    between atoms: C_11  and  C_15
REMARK    3  A    between atoms: C_18  and  C_20
REMARK    4  A    between atoms: C_20  and  C_22
REMARK    5  A    between atoms: C_20  and  C_30
REMARK    6  A    between atoms: C_23  and  C_24
REMARK    7  A    between atoms: C_24  and  C_26
REMARK    8  A    between atoms: C_24  and  C_27
REMARK    9  A    between atoms: C_27  and  C_28
REMARK   10  A    between atoms: C_27  and  C_29
REMARK                            x       y       z     vdW  Elec       q    Type
REMARK                         _______ _______ _______ _____ _____    ______ ____
ROOT
ATOM      1  O   LIG A   1      -9.068   1.025 123.124  0.00  0.00    -0.293 OA
ATOM      2  C   LIG A   1      -8.481   0.150 123.755  0.00  0.00    +0.156 C 
ATOM      3  C   LIG A   1      -6.987   0.147 123.932  0.00  0.00    +0.080 C 
ATOM      4  C   LIG A   1      -6.453  -1.280 123.947  0.00  0.00    +0.019 C 
ATOM      5  C   LIG A   1      -7.156  -2.227 124.962  0.00  0.00    +0.000 C 
ATOM      6  C   LIG A   1      -8.638  -1.891 125.099  0.00  0.00    -0.038 C 
ATOM      7  C   LIG A   1      -9.365  -2.739 126.020  0.00  0.00    +0.004 C 
ATOM      8  C   LIG A   1      -8.765  -3.198 127.131  0.00  0.00    +0.004 C 
ATOM      9  C   LIG A   1      -7.408  -2.820 127.494  0.00  0.00    -0.044 C 
ATOM     10  C   LIG A   1      -7.004  -2.750 128.781  0.00  0.00    -0.060 C 
ATOM     11  C   LIG A   1      -5.642  -2.180 129.205  0.00  0.00    -0.007 C 
ATOM     12  C   LIG A   1      -5.089  -1.153 128.187  0.00  0.00    +0.012 C 
ATOM     13  C   LIG A   1      -5.920  -0.954 126.910  0.00  0.00    +0.010 C 
ATOM     14  C   LIG A   1      -6.483  -2.284 126.389  0.00  0.00    +0.029 C 
ATOM     15  C   LIG A   1      -4.651  -3.373 129.277  0.00  0.00    +0.016 C 
ATOM     16  C   LIG A   1      -7.856  -2.948 130.003  0.00  0.00    +0.032 C 
ATOM     17  C   LIG A   1      -7.444  -1.745 130.833  0.00  0.00    +0.009 C 
ATOM     18  C   LIG A   1      -5.914  -1.687 130.680  0.00  0.00    +0.006 C 
ATOM     19  C   LIG A   1      -9.262  -0.871 124.493  0.00  0.00    +0.050 C 
ATOM     20  C   LIG A   1      -7.027  -3.652 124.333  0.00  0.00    +0.016 C 
ENDROOT
BRANCH  18  21
ATOM     21  C   LIG A   1      -5.294  -0.392 131.277  0.00  0.00    +0.012 C 
ATOM     22  C   LIG A   1      -4.137  -0.591 132.266  0.00  0.00    +0.012 C 
BRANCH  21  23
ATOM     23  C   LIG A   1      -6.335   0.562 131.824  0.00  0.00    -0.027 C 
ATOM     24  C   LIG A   1      -6.578   1.784 131.322  0.00  0.00    -0.027 C 
BRANCH  24  25
ATOM     25  C   LIG A   1      -7.630   2.728 131.870  0.00  0.00    +0.011 C 
ATOM     26  C   LIG A   1      -7.714   2.493 133.383  0.00  0.00    +0.012 C 
BRANCH  25  27
ATOM     27  C   LIG A   1      -9.003   2.536 131.167  0.00  0.00    -0.011 C 
ATOM     28  C   LIG A   1      -8.840   2.134 129.696  0.00  0.00    +0.008 C 
ATOM     29  C   LIG A   1      -9.865   1.475 131.865  0.00  0.00    +0.008 C 
ENDBRANCH  25  27
ENDBRANCH  24  25
ENDBRANCH  21  23
ENDBRANCH  18  21
TORSDOF 4
ENDMDL
MODEL 9
REMARK VINA RESULT:      -8.3      5.635      8.243
REMARK  Name = NuBBE_347
REMARK  10 active torsions:
REMARK  status: ('A' for Active; 'I' for Inactive)
REMARK    1  A    between atoms: C_5  and  C_32
REMARK    2  A    between atoms: C_11  and  C_15
REMARK    3  A    between atoms: C_18  and  C_20
REMARK    4  A    between atoms: C_20  and  C_22
REMARK    5  A    between atoms: C_20  and  C_30
REMARK    6  A    between atoms: C_23  and  C_24
REMARK    7  A    between atoms: C_24  and  C_26
REMARK    8  A    between atoms: C_24  and  C_27
REMARK    9  A    between atoms: C_27  and  C_28
REMARK   10  A    between atoms: C_27  and  C_29
REMARK                            x       y       z     vdW  Elec       q    Type
REMARK                         _______ _______ _______ _____ _____    ______ ____
ROOT
ATOM      1  O   LIG A   1      -7.299  -0.547 127.865  0.00  0.00    -0.293 OA
ATOM      2  C   LIG A   1      -7.498   0.179 128.835  0.00  0.00    +0.156 C 
ATOM      3  C   LIG A   1      -6.769   0.000 130.139  0.00  0.00    +0.080 C 
ATOM      4  C   LIG A   1      -7.679   0.349 131.311  0.00  0.00    +0.019 C 
ATOM      5  C   LIG A   1      -8.357   1.746 131.216  0.00  0.00    +0.000 C 
ATOM      6  C   LIG A   1      -8.688   2.104 129.770  0.00  0.00    -0.038 C 
ATOM      7  C   LIG A   1      -9.334   3.388 129.601  0.00  0.00    +0.004 C 
ATOM      8  C   LIG A   1      -9.005   4.420 130.396  0.00  0.00    +0.004 C 
ATOM      9  C   LIG A   1      -7.957   4.321 131.401  0.00  0.00    -0.044 C 
ATOM     10  C   LIG A   1      -7.217   5.389 131.771  0.00  0.00    -0.060 C 
ATOM     11  C   LIG A   1      -5.989   5.285 132.687  0.00  0.00    -0.007 C 
ATOM     12  C   LIG A   1      -5.313   3.893 132.612  0.00  0.00    +0.012 C 
ATOM     13  C   LIG A   1      -6.021   2.846 131.739  0.00  0.00    +0.010 C 
ATOM     14  C   LIG A   1      -7.547   2.922 131.889  0.00  0.00    +0.029 C 
ATOM     15  C   LIG A   1      -6.484   5.506 134.141  0.00  0.00    +0.016 C 
ATOM     16  C   LIG A   1      -7.277   6.771 131.184  0.00  0.00    +0.032 C 
ATOM     17  C   LIG A   1      -5.799   7.055 130.979  0.00  0.00    +0.009 C 
ATOM     18  C   LIG A   1      -5.135   6.545 132.270  0.00  0.00    +0.006 C 
ATOM     19  C   LIG A   1      -8.379   1.363 128.697  0.00  0.00    +0.050 C 
ATOM     20  C   LIG A   1      -9.696   1.594 132.009  0.00  0.00    +0.016 C 
ENDROOT
BRANCH  18  21
ATOM     21  C   LIG A   1      -3.582   6.538 132.189  0.00  0.00    +0.012 C 
ATOM     22  C   LIG A   1      -2.858   7.622 133.001  0.00  0.00    +0.012 C 
BRANCH  21  23
ATOM     23  C   LIG A   1      -3.065   6.471 130.768  0.00  0.00    -0.027 C 
ATOM     24  C   LIG A   1      -2.811   5.327 130.109  0.00  0.00    -0.027 C 
BRANCH  24  25
ATOM     25  C   LIG A   1      -2.303   5.270 128.682  0.00  0.00    +0.011 C 
ATOM     26  C   LIG A   1      -2.478   6.668 128.076  0.00  0.00    +0.012 C 
BRANCH  25  27
ATOM     27  C   LIG A   1      -3.028   4.173 127.853  0.00  0.00    -0.011 C 
ATOM     28  C   LIG A   1      -2.043   3.345 127.018  0.00  0.00    +0.008 C 
ATOM     29  C   LIG A   1      -3.830   3.214 128.743  0.00  0.00    +0.008 C 
ENDBRANCH  25  27
ENDBRANCH  24  25
ENDBRANCH  21  23
ENDBRANCH  18  21
TORSDOF 4
ENDMDL
