MODEL 1
REMARK VINA RESULT:      -7.6      0.000      0.000
REMARK  Name = NuBBE_2459
REMARK  18 active torsions:
REMARK  status: ('A' for Active; 'I' for Inactive)
REMARK    1  A    between atoms: C_1  and  O_2
REMARK    2  A    between atoms: O_2  and  C_3
REMARK    3  A    between atoms: C_4  and  O_5
REMARK    4  A    between atoms: O_5  and  C_6
REMARK    5  A    between atoms: C_6  and  C_7
REMARK    6  A    between atoms: C_11  and  C_13
REMARK    7  A    between atoms: C_16  and  O_17
REMARK    8  A    between atoms: O_17  and  C_18
REMARK    9  A    between atoms: C_19  and  O_20
REMARK   10  A    between atoms: O_20  and  C_21
REMARK   11  A    between atoms: C_23  and  C_25
REMARK   12  A    between atoms: C_25  and  O_26
REMARK   13  A    between atoms: O_26  and  C_27
REMARK   14  A    between atoms: C_27  and  C_28
REMARK   15  A    between atoms: C_30  and  C_32
REMARK   16  A    between atoms: C_32  and  O_33
REMARK   17  A    between atoms: O_33  and  C_34
REMARK   18  A    between atoms: C_34  and  C_35
REMARK                            x       y       z     vdW  Elec       q    Type
REMARK                         _______ _______ _______ _____ _____    ______ ____
ROOT
ATOM      1  C   LIG A   1     -10.603   6.374 131.110  0.00  0.00    +0.163 A 
ATOM      2  C   LIG A   1      -9.527   7.001 130.468  0.00  0.00    +0.173 A 
ATOM      3  C   LIG A   1      -8.230   6.844 130.957  0.00  0.00    +0.054 A 
ATOM      4  C   LIG A   1      -7.959   6.014 132.057  0.00  0.00    -0.033 A 
ATOM      5  C   LIG A   1      -6.512   5.814 132.510  0.00  0.00    +0.056 C 
ATOM      6  C   LIG A   1      -6.368   4.955 133.811  0.00  0.00    +0.045 C 
ATOM      7  C   LIG A   1      -7.544   3.961 134.065  0.00  0.00    +0.038 C 
ATOM      8  C   LIG A   1      -8.886   4.677 134.012  0.00  0.00    +0.042 C 
ATOM      9  C   LIG A   1      -9.052   5.460 132.747  0.00  0.00    -0.040 A 
ATOM     10  C   LIG A   1     -10.360   5.666 132.284  0.00  0.00    +0.053 A 
ENDROOT
BRANCH   5  11
ATOM     11  C   LIG A   1      -5.472   5.438 131.433  0.00  0.00    -0.036 A 
ATOM     12  C   LIG A   1      -5.798   4.441 130.498  0.00  0.00    +0.008 A 
ATOM     13  C   LIG A   1      -4.873   3.989 129.546  0.00  0.00    +0.050 A 
ATOM     14  C   LIG A   1      -3.579   4.518 129.482  0.00  0.00    +0.162 A 
ATOM     15  C   LIG A   1      -3.224   5.504 130.423  0.00  0.00    +0.162 A 
ATOM     16  C   LIG A   1      -4.181   5.977 131.353  0.00  0.00    +0.053 A 
BRANCH  14  17
ATOM     17  O   LIG A   1      -2.674   4.094 128.539  0.00  0.00    -0.491 OA
ATOM     18  C   LIG A   1      -3.073   4.206 127.168  0.00  0.00    +0.277 C 
ENDBRANCH  14  17
BRANCH  15  19
ATOM     19  O   LIG A   1      -2.027   6.168 130.528  0.00  0.00    -0.491 OA
ATOM     20  C   LIG A   1      -1.793   6.900 131.723  0.00  0.00    +0.277 C 
ENDBRANCH  15  19
ENDBRANCH   5  11
BRANCH   1  22
ATOM     21  C   LIG A   1     -12.697   7.387 131.387  0.00  0.00    +0.277 C 
ATOM     22  O   LIG A   1     -11.917   6.395 130.727  0.00  0.00    -0.491 OA
ENDBRANCH   1  22
BRANCH   2  23
ATOM     23  O   LIG A   1      -9.805   7.889 129.400  0.00  0.00    -0.422 OA
BRANCH  23  24
ATOM     24  C   LIG A   1     -10.299   7.509 128.143  0.00  0.00    +0.309 C 
ATOM     25  C   LIG A   1     -11.448   8.394 127.787  0.00  0.00    +0.136 C 
ATOM     26  O   LIG A   1      -9.911   6.605 127.439  0.00  0.00    -0.251 OA
ENDBRANCH  23  24
ENDBRANCH   2  23
BRANCH   6  27
ATOM     27  C   LIG A   1      -6.193   5.921 135.014  0.00  0.00    +0.237 C 
BRANCH  27  28
ATOM     28  O   LIG A   1      -6.253   5.178 136.246  0.00  0.00    -0.465 OA
BRANCH  28  29
ATOM     29  C   LIG A   1      -6.592   5.864 137.369  0.00  0.00    +0.304 C 
ATOM     30  C   LIG A   1      -7.941   6.501 137.196  0.00  0.00    +0.136 C 
ATOM     31  O   LIG A   1      -5.947   5.909 138.403  0.00  0.00    -0.251 OA
ENDBRANCH  28  29
ENDBRANCH  27  28
ENDBRANCH   6  27
BRANCH   7  32
ATOM     32  C   LIG A   1      -7.539   2.725 133.143  0.00  0.00    +0.236 C 
BRANCH  32  33
ATOM     33  O   LIG A   1      -8.873   2.191 133.168  0.00  0.00    -0.465 OA
BRANCH  33  34
ATOM     34  C   LIG A   1      -9.298   1.546 132.047  0.00  0.00    +0.304 C 
ATOM     35  C   LIG A   1      -9.002   2.392 130.840  0.00  0.00    +0.136 C 
ATOM     36  O   LIG A   1      -9.774   0.429 131.997  0.00  0.00    -0.251 OA
ENDBRANCH  33  34
ENDBRANCH  32  33
ENDBRANCH   7  32
TORSDOF 12
ENDMDL
MODEL 2
REMARK VINA RESULT:      -7.3      2.690      6.169
REMARK  Name = NuBBE_2459
REMARK  18 active torsions:
REMARK  status: ('A' for Active; 'I' for Inactive)
REMARK    1  A    between atoms: C_1  and  O_2
REMARK    2  A    between atoms: O_2  and  C_3
REMARK    3  A    between atoms: C_4  and  O_5
REMARK    4  A    between atoms: O_5  and  C_6
REMARK    5  A    between atoms: C_6  and  C_7
REMARK    6  A    between atoms: C_11  and  C_13
REMARK    7  A    between atoms: C_16  and  O_17
REMARK    8  A    between atoms: O_17  and  C_18
REMARK    9  A    between atoms: C_19  and  O_20
REMARK   10  A    between atoms: O_20  and  C_21
REMARK   11  A    between atoms: C_23  and  C_25
REMARK   12  A    between atoms: C_25  and  O_26
REMARK   13  A    between atoms: O_26  and  C_27
REMARK   14  A    between atoms: C_27  and  C_28
REMARK   15  A    between atoms: C_30  and  C_32
REMARK   16  A    between atoms: C_32  and  O_33
REMARK   17  A    between atoms: O_33  and  C_34
REMARK   18  A    between atoms: C_34  and  C_35
REMARK                            x       y       z     vdW  Elec       q    Type
REMARK                         _______ _______ _______ _____ _____    ______ ____
ROOT
ATOM      1  C   LIG A   1      -4.742   6.815 130.656  0.00  0.00    +0.163 A 
ATOM      2  C   LIG A   1      -4.504   5.597 130.005  0.00  0.00    +0.173 A 
ATOM      3  C   LIG A   1      -5.540   4.679 129.834  0.00  0.00    +0.054 A 
ATOM      4  C   LIG A   1      -6.849   4.968 130.248  0.00  0.00    -0.033 A 
ATOM      5  C   LIG A   1      -7.967   3.961 129.971  0.00  0.00    +0.056 C 
ATOM      6  C   LIG A   1      -9.350   4.364 130.584  0.00  0.00    +0.045 C 
ATOM      7  C   LIG A   1      -9.543   5.899 130.796  0.00  0.00    +0.038 C 
ATOM      8  C   LIG A   1      -8.386   6.491 131.587  0.00  0.00    +0.042 C 
ATOM      9  C   LIG A   1      -7.060   6.152 130.977  0.00  0.00    -0.040 A 
ATOM     10  C   LIG A   1      -6.004   7.048 131.196  0.00  0.00    +0.053 A 
ENDROOT
BRANCH   5  11
ATOM     11  C   LIG A   1      -8.093   3.413 128.534  0.00  0.00    -0.036 A 
ATOM     12  C   LIG A   1      -8.417   2.057 128.354  0.00  0.00    +0.008 A 
ATOM     13  C   LIG A   1      -8.465   1.471 127.081  0.00  0.00    +0.050 A 
ATOM     14  C   LIG A   1      -8.196   2.215 125.928  0.00  0.00    +0.162 A 
ATOM     15  C   LIG A   1      -7.848   3.570 126.086  0.00  0.00    +0.162 A 
ATOM     16  C   LIG A   1      -7.842   4.158 127.374  0.00  0.00    +0.053 A 
BRANCH  14  17
ATOM     17  O   LIG A   1      -8.260   1.652 124.676  0.00  0.00    -0.491 OA
ATOM     18  C   LIG A   1      -9.561   1.543 124.086  0.00  0.00    +0.277 C 
ENDBRANCH  14  17
BRANCH  15  19
ATOM     19  O   LIG A   1      -7.568   4.483 125.099  0.00  0.00    -0.491 OA
ATOM     20  C   LIG A   1      -6.232   4.959 125.014  0.00  0.00    +0.277 C 
ENDBRANCH  15  19
ENDBRANCH   5  11
BRANCH   1  22
ATOM     21  C   LIG A   1      -3.103   7.713 132.068  0.00  0.00    +0.277 C 
ATOM     22  O   LIG A   1      -3.846   7.829 130.859  0.00  0.00    -0.491 OA
ENDBRANCH   1  22
BRANCH   2  23
ATOM     23  O   LIG A   1      -3.172   5.275 129.644  0.00  0.00    -0.422 OA
BRANCH  23  24
ATOM     24  C   LIG A   1      -2.547   5.652 128.447  0.00  0.00    +0.309 C 
ATOM     25  C   LIG A   1      -2.504   4.472 127.531  0.00  0.00    +0.136 C 
ATOM     26  O   LIG A   1      -2.080   6.732 128.165  0.00  0.00    -0.251 OA
ENDBRANCH  23  24
ENDBRANCH   2  23
BRANCH   6  27
ATOM     27  C   LIG A   1      -9.531   3.597 131.921  0.00  0.00    +0.237 C 
BRANCH  27  28
ATOM     28  O   LIG A   1      -8.450   2.661 132.093  0.00  0.00    -0.465 OA
BRANCH  28  29
ATOM     29  C   LIG A   1      -7.880   2.591 133.325  0.00  0.00    +0.304 C 
ATOM     30  C   LIG A   1      -8.242   3.805 134.131  0.00  0.00    +0.136 C 
ATOM     31  O   LIG A   1      -7.229   1.655 133.761  0.00  0.00    -0.251 OA
ENDBRANCH  28  29
ENDBRANCH  27  28
ENDBRANCH   6  27
BRANCH   7  32
ATOM     32  C   LIG A   1      -9.789   6.691 129.496  0.00  0.00    +0.236 C 
BRANCH  32  33
ATOM     33  O   LIG A   1     -10.965   7.487 129.720  0.00  0.00    -0.465 OA
BRANCH  33  34
ATOM     34  C   LIG A   1     -12.151   6.825 129.796  0.00  0.00    +0.304 C 
ATOM     35  C   LIG A   1     -12.916   7.302 130.998  0.00  0.00    +0.136 C 
ATOM     36  O   LIG A   1     -12.580   6.024 128.988  0.00  0.00    -0.251 OA
ENDBRANCH  33  34
ENDBRANCH  32  33
ENDBRANCH   7  32
TORSDOF 12
ENDMDL
MODEL 3
REMARK VINA RESULT:      -7.1      1.222      1.982
REMARK  Name = NuBBE_2459
REMARK  18 active torsions:
REMARK  status: ('A' for Active; 'I' for Inactive)
REMARK    1  A    between atoms: C_1  and  O_2
REMARK    2  A    between atoms: O_2  and  C_3
REMARK    3  A    between atoms: C_4  and  O_5
REMARK    4  A    between atoms: O_5  and  C_6
REMARK    5  A    between atoms: C_6  and  C_7
REMARK    6  A    between atoms: C_11  and  C_13
REMARK    7  A    between atoms: C_16  and  O_17
REMARK    8  A    between atoms: O_17  and  C_18
REMARK    9  A    between atoms: C_19  and  O_20
REMARK   10  A    between atoms: O_20  and  C_21
REMARK   11  A    between atoms: C_23  and  C_25
REMARK   12  A    between atoms: C_25  and  O_26
REMARK   13  A    between atoms: O_26  and  C_27
REMARK   14  A    between atoms: C_27  and  C_28
REMARK   15  A    between atoms: C_30  and  C_32
REMARK   16  A    between atoms: C_32  and  O_33
REMARK   17  A    between atoms: O_33  and  C_34
REMARK   18  A    between atoms: C_34  and  C_35
REMARK                            x       y       z     vdW  Elec       q    Type
REMARK                         _______ _______ _______ _____ _____    ______ ____
ROOT
ATOM      1  C   LIG A   1     -10.506   6.383 131.152  0.00  0.00    +0.163 A 
ATOM      2  C   LIG A   1      -9.410   6.977 130.513  0.00  0.00    +0.173 A 
ATOM      3  C   LIG A   1      -8.126   6.823 131.034  0.00  0.00    +0.054 A 
ATOM      4  C   LIG A   1      -7.886   6.027 132.166  0.00  0.00    -0.033 A 
ATOM      5  C   LIG A   1      -6.451   5.827 132.655  0.00  0.00    +0.056 C 
ATOM      6  C   LIG A   1      -6.343   5.010 133.987  0.00  0.00    +0.045 C 
ATOM      7  C   LIG A   1      -7.536   4.038 134.249  0.00  0.00    +0.038 C 
ATOM      8  C   LIG A   1      -8.868   4.766 134.144  0.00  0.00    +0.042 C 
ATOM      9  C   LIG A   1      -9.000   5.508 132.850  0.00  0.00    -0.040 A 
ATOM     10  C   LIG A   1     -10.296   5.712 132.354  0.00  0.00    +0.053 A 
ENDROOT
BRANCH   5  11
ATOM     11  C   LIG A   1      -5.394   5.404 131.614  0.00  0.00    -0.036 A 
ATOM     12  C   LIG A   1      -4.555   6.388 131.065  0.00  0.00    +0.008 A 
ATOM     13  C   LIG A   1      -3.629   6.091 130.053  0.00  0.00    +0.050 A 
ATOM     14  C   LIG A   1      -3.498   4.794 129.547  0.00  0.00    +0.162 A 
ATOM     15  C   LIG A   1      -4.344   3.796 130.068  0.00  0.00    +0.162 A 
ATOM     16  C   LIG A   1      -5.245   4.102 131.115  0.00  0.00    +0.053 A 
BRANCH  14  17
ATOM     17  O   LIG A   1      -2.581   4.492 128.569  0.00  0.00    -0.491 OA
ATOM     18  C   LIG A   1      -3.062   4.472 127.221  0.00  0.00    +0.277 C 
ENDBRANCH  14  17
BRANCH  15  19
ATOM     19  O   LIG A   1      -4.371   2.464 129.735  0.00  0.00    -0.491 OA
ATOM     20  C   LIG A   1      -4.255   1.526 130.795  0.00  0.00    +0.277 C 
ENDBRANCH  15  19
ENDBRANCH   5  11
BRANCH   1  22
ATOM     21  C   LIG A   1     -12.608   7.387 131.396  0.00  0.00    +0.277 C 
ATOM     22  O   LIG A   1     -11.812   6.406 130.742  0.00  0.00    -0.491 OA
ENDBRANCH   1  22
BRANCH   2  23
ATOM     23  O   LIG A   1      -9.656   7.833 129.410  0.00  0.00    -0.422 OA
BRANCH  23  24
ATOM     24  C   LIG A   1     -10.184   7.425 128.176  0.00  0.00    +0.309 C 
ATOM     25  C   LIG A   1     -11.263   8.377 127.774  0.00  0.00    +0.136 C 
ATOM     26  O   LIG A   1      -9.872   6.457 127.522  0.00  0.00    -0.251 OA
ENDBRANCH  23  24
ENDBRANCH   2  23
BRANCH   6  27
ATOM     27  C   LIG A   1      -6.183   6.013 135.160  0.00  0.00    +0.237 C 
BRANCH  27  28
ATOM     28  O   LIG A   1      -4.833   5.965 135.659  0.00  0.00    -0.465 OA
BRANCH  28  29
ATOM     29  C   LIG A   1      -4.124   7.125 135.643  0.00  0.00    +0.304 C 
ATOM     30  C   LIG A   1      -3.249   7.178 134.423  0.00  0.00    +0.136 C 
ATOM     31  O   LIG A   1      -4.222   8.036 136.449  0.00  0.00    -0.251 OA
ENDBRANCH  28  29
ENDBRANCH  27  28
ENDBRANCH   6  27
BRANCH   7  32
ATOM     32  C   LIG A   1      -7.526   2.771 133.369  0.00  0.00    +0.236 C 
BRANCH  32  33
ATOM     33  O   LIG A   1      -8.870   2.263 133.368  0.00  0.00    -0.465 OA
BRANCH  33  34
ATOM     34  C   LIG A   1      -9.346   1.785 132.186  0.00  0.00    +0.304 C 
ATOM     35  C   LIG A   1      -8.715   0.453 131.894  0.00  0.00    +0.136 C 
ATOM     36  O   LIG A   1     -10.204   2.300 131.495  0.00  0.00    -0.251 OA
ENDBRANCH  33  34
ENDBRANCH  32  33
ENDBRANCH   7  32
TORSDOF 12
ENDMDL
MODEL 4
REMARK VINA RESULT:      -7.0      3.689      8.511
REMARK  Name = NuBBE_2459
REMARK  18 active torsions:
REMARK  status: ('A' for Active; 'I' for Inactive)
REMARK    1  A    between atoms: C_1  and  O_2
REMARK    2  A    between atoms: O_2  and  C_3
REMARK    3  A    between atoms: C_4  and  O_5
REMARK    4  A    between atoms: O_5  and  C_6
REMARK    5  A    between atoms: C_6  and  C_7
REMARK    6  A    between atoms: C_11  and  C_13
REMARK    7  A    between atoms: C_16  and  O_17
REMARK    8  A    between atoms: O_17  and  C_18
REMARK    9  A    between atoms: C_19  and  O_20
REMARK   10  A    between atoms: O_20  and  C_21
REMARK   11  A    between atoms: C_23  and  C_25
REMARK   12  A    between atoms: C_25  and  O_26
REMARK   13  A    between atoms: O_26  and  C_27
REMARK   14  A    between atoms: C_27  and  C_28
REMARK   15  A    between atoms: C_30  and  C_32
REMARK   16  A    between atoms: C_32  and  O_33
REMARK   17  A    between atoms: O_33  and  C_34
REMARK   18  A    between atoms: C_34  and  C_35
REMARK                            x       y       z     vdW  Elec       q    Type
REMARK                         _______ _______ _______ _____ _____    ______ ____
ROOT
ATOM      1  C   LIG A   1      -4.017   3.502 126.477  0.00  0.00    +0.163 A 
ATOM      2  C   LIG A   1      -4.907   4.353 127.147  0.00  0.00    +0.173 A 
ATOM      3  C   LIG A   1      -6.182   3.905 127.489  0.00  0.00    +0.054 A 
ATOM      4  C   LIG A   1      -6.587   2.585 127.231  0.00  0.00    -0.033 A 
ATOM      5  C   LIG A   1      -7.969   2.118 127.694  0.00  0.00    +0.056 C 
ATOM      6  C   LIG A   1      -8.329   0.662 127.244  0.00  0.00    +0.045 C 
ATOM      7  C   LIG A   1      -7.096  -0.261 126.989  0.00  0.00    +0.038 C 
ATOM      8  C   LIG A   1      -6.111   0.393 126.032  0.00  0.00    +0.042 C 
ATOM      9  C   LIG A   1      -5.722   1.767 126.483  0.00  0.00    -0.040 A 
ATOM     10  C   LIG A   1      -4.461   2.240 126.092  0.00  0.00    +0.053 A 
ENDROOT
BRANCH   5  11
ATOM     11  C   LIG A   1      -8.365   2.401 129.158  0.00  0.00    -0.036 A 
ATOM     12  C   LIG A   1      -8.156   1.399 130.120  0.00  0.00    +0.008 A 
ATOM     13  C   LIG A   1      -8.569   1.555 131.452  0.00  0.00    +0.050 A 
ATOM     14  C   LIG A   1      -9.207   2.723 131.883  0.00  0.00    +0.162 A 
ATOM     15  C   LIG A   1      -9.446   3.732 130.930  0.00  0.00    +0.162 A 
ATOM     16  C   LIG A   1      -8.988   3.576 129.599  0.00  0.00    +0.053 A 
BRANCH  14  17
ATOM     17  O   LIG A   1      -9.597   2.890 133.190  0.00  0.00    -0.491 OA
ATOM     18  C   LIG A   1      -8.735   3.675 134.022  0.00  0.00    +0.277 C 
ENDBRANCH  14  17
BRANCH  15  19
ATOM     19  O   LIG A   1     -10.032   4.956 131.136  0.00  0.00    -0.491 OA
ATOM     20  C   LIG A   1     -11.288   5.189 130.516  0.00  0.00    +0.277 C 
ENDBRANCH  15  19
ENDBRANCH   5  11
BRANCH   1  22
ATOM     21  C   LIG A   1      -1.752   3.012 126.817  0.00  0.00    +0.277 C 
ATOM     22  O   LIG A   1      -2.726   3.779 126.117  0.00  0.00    -0.491 OA
ENDBRANCH   1  22
BRANCH   2  23
ATOM     23  O   LIG A   1      -4.525   5.702 127.349  0.00  0.00    -0.422 OA
BRANCH  23  24
ATOM     24  C   LIG A   1      -4.025   6.227 128.550  0.00  0.00    +0.309 C 
ATOM     25  C   LIG A   1      -2.537   6.318 128.456  0.00  0.00    +0.136 C 
ATOM     26  O   LIG A   1      -4.651   6.542 129.536  0.00  0.00    -0.251 OA
ENDBRANCH  23  24
ENDBRANCH   2  23
BRANCH   6  27
ATOM     27  C   LIG A   1      -9.220   0.752 125.976  0.00  0.00    +0.237 C 
BRANCH  27  28
ATOM     28  O   LIG A   1      -9.261   2.113 125.507  0.00  0.00    -0.465 OA
BRANCH  28  29
ATOM     29  C   LIG A   1      -9.139   2.312 124.167  0.00  0.00    +0.304 C 
ATOM     30  C   LIG A   1      -8.003   3.253 123.886  0.00  0.00    +0.136 C 
ATOM     31  O   LIG A   1      -9.795   1.760 123.299  0.00  0.00    -0.251 OA
ENDBRANCH  28  29
ENDBRANCH  27  28
ENDBRANCH   6  27
BRANCH   7  32
ATOM     32  C   LIG A   1      -6.388  -0.739 128.273  0.00  0.00    +0.236 C 
BRANCH  32  33
ATOM     33  O   LIG A   1      -6.440  -2.175 128.257  0.00  0.00    -0.465 OA
BRANCH  33  34
ATOM     34  C   LIG A   1      -7.609  -2.753 128.648  0.00  0.00    +0.304 C 
ATOM     35  C   LIG A   1      -7.930  -2.330 130.054  0.00  0.00    +0.136 C 
ATOM     36  O   LIG A   1      -8.334  -3.445 127.961  0.00  0.00    -0.251 OA
ENDBRANCH  33  34
ENDBRANCH  32  33
ENDBRANCH   7  32
TORSDOF 12
ENDMDL
MODEL 5
REMARK VINA RESULT:      -7.0      4.960      8.997
REMARK  Name = NuBBE_2459
REMARK  18 active torsions:
REMARK  status: ('A' for Active; 'I' for Inactive)
REMARK    1  A    between atoms: C_1  and  O_2
REMARK    2  A    between atoms: O_2  and  C_3
REMARK    3  A    between atoms: C_4  and  O_5
REMARK    4  A    between atoms: O_5  and  C_6
REMARK    5  A    between atoms: C_6  and  C_7
REMARK    6  A    between atoms: C_11  and  C_13
REMARK    7  A    between atoms: C_16  and  O_17
REMARK    8  A    between atoms: O_17  and  C_18
REMARK    9  A    between atoms: C_19  and  O_20
REMARK   10  A    between atoms: O_20  and  C_21
REMARK   11  A    between atoms: C_23  and  C_25
REMARK   12  A    between atoms: C_25  and  O_26
REMARK   13  A    between atoms: O_26  and  C_27
REMARK   14  A    between atoms: C_27  and  C_28
REMARK   15  A    between atoms: C_30  and  C_32
REMARK   16  A    between atoms: C_32  and  O_33
REMARK   17  A    between atoms: O_33  and  C_34
REMARK   18  A    between atoms: C_34  and  C_35
REMARK                            x       y       z     vdW  Elec       q    Type
REMARK                         _______ _______ _______ _____ _____    ______ ____
ROOT
ATOM      1  C   LIG A   1      -8.158   3.366 129.788  0.00  0.00    +0.163 A 
ATOM      2  C   LIG A   1      -8.545   2.152 130.373  0.00  0.00    +0.173 A 
ATOM      3  C   LIG A   1      -8.492   0.970 129.635  0.00  0.00    +0.054 A 
ATOM      4  C   LIG A   1      -7.999   0.949 128.321  0.00  0.00    -0.033 A 
ATOM      5  C   LIG A   1      -7.889  -0.385 127.579  0.00  0.00    +0.056 C 
ATOM      6  C   LIG A   1      -7.429  -0.245 126.089  0.00  0.00    +0.045 C 
ATOM      7  C   LIG A   1      -6.585   1.033 125.789  0.00  0.00    +0.038 C 
ATOM      8  C   LIG A   1      -7.298   2.286 126.274  0.00  0.00    +0.042 C 
ATOM      9  C   LIG A   1      -7.697   2.181 127.714  0.00  0.00    -0.040 A 
ATOM     10  C   LIG A   1      -7.804   3.375 128.441  0.00  0.00    +0.053 A 
ENDROOT
BRANCH   5  11
ATOM     11  C   LIG A   1      -7.192  -1.552 128.308  0.00  0.00    -0.036 A 
ATOM     12  C   LIG A   1      -7.971  -2.633 128.754  0.00  0.00    +0.008 A 
ATOM     13  C   LIG A   1      -7.419  -3.687 129.497  0.00  0.00    +0.050 A 
ATOM     14  C   LIG A   1      -6.059  -3.711 129.824  0.00  0.00    +0.162 A 
ATOM     15  C   LIG A   1      -5.263  -2.627 129.405  0.00  0.00    +0.162 A 
ATOM     16  C   LIG A   1      -5.826  -1.590 128.623  0.00  0.00    +0.053 A 
BRANCH  14  17
ATOM     17  O   LIG A   1      -5.507  -4.749 130.535  0.00  0.00    -0.491 OA
ATOM     18  C   LIG A   1      -5.504  -4.621 131.961  0.00  0.00    +0.277 C 
ENDBRANCH  14  17
BRANCH  15  19
ATOM     19  O   LIG A   1      -3.914  -2.457 129.596  0.00  0.00    -0.491 OA
ATOM     20  C   LIG A   1      -3.509  -1.641 130.687  0.00  0.00    +0.277 C 
ENDBRANCH  15  19
ENDBRANCH   5  11
BRANCH   1  22
ATOM     21  C   LIG A   1      -9.253   5.406 130.138  0.00  0.00    +0.277 C 
ATOM     22  O   LIG A   1      -8.112   4.594 130.390  0.00  0.00    -0.491 OA
ENDBRANCH   1  22
BRANCH   2  23
ATOM     23  O   LIG A   1      -9.103   2.181 131.675  0.00  0.00    -0.422 OA
BRANCH  23  24
ATOM     24  C   LIG A   1      -8.370   2.106 132.868  0.00  0.00    +0.309 C 
ATOM     25  C   LIG A   1      -8.639   3.332 133.679  0.00  0.00    +0.136 C 
ATOM     26  O   LIG A   1      -7.611   1.231 133.216  0.00  0.00    -0.251 OA
ENDBRANCH  23  24
ENDBRANCH   2  23
BRANCH   6  27
ATOM     27  C   LIG A   1      -8.689  -0.298 125.185  0.00  0.00    +0.237 C 
BRANCH  27  28
ATOM     28  O   LIG A   1      -9.411  -1.520 125.429  0.00  0.00    -0.465 OA
BRANCH  28  29
ATOM     29  C   LIG A   1      -9.223  -2.538 124.549  0.00  0.00    +0.304 C 
ATOM     30  C   LIG A   1      -8.423  -3.634 125.190  0.00  0.00    +0.136 C 
ATOM     31  O   LIG A   1      -9.690  -2.607 123.423  0.00  0.00    -0.251 OA
ENDBRANCH  28  29
ENDBRANCH  27  28
ENDBRANCH   6  27
BRANCH   7  32
ATOM     32  C   LIG A   1      -5.139   0.976 126.322  0.00  0.00    +0.236 C 
BRANCH  32  33
ATOM     33  O   LIG A   1      -4.558   2.266 126.066  0.00  0.00    -0.465 OA
BRANCH  33  34
ATOM     34  C   LIG A   1      -3.568   2.672 126.907  0.00  0.00    +0.304 C 
ATOM     35  C   LIG A   1      -3.982   2.416 128.329  0.00  0.00    +0.136 C 
ATOM     36  O   LIG A   1      -2.481   3.107 126.580  0.00  0.00    -0.251 OA
ENDBRANCH  33  34
ENDBRANCH  32  33
ENDBRANCH   7  32
TORSDOF 12
ENDMDL
MODEL 6
REMARK VINA RESULT:      -7.0      4.370      8.383
REMARK  Name = NuBBE_2459
REMARK  18 active torsions:
REMARK  status: ('A' for Active; 'I' for Inactive)
REMARK    1  A    between atoms: C_1  and  O_2
REMARK    2  A    between atoms: O_2  and  C_3
REMARK    3  A    between atoms: C_4  and  O_5
REMARK    4  A    between atoms: O_5  and  C_6
REMARK    5  A    between atoms: C_6  and  C_7
REMARK    6  A    between atoms: C_11  and  C_13
REMARK    7  A    between atoms: C_16  and  O_17
REMARK    8  A    between atoms: O_17  and  C_18
REMARK    9  A    between atoms: C_19  and  O_20
REMARK   10  A    between atoms: O_20  and  C_21
REMARK   11  A    between atoms: C_23  and  C_25
REMARK   12  A    between atoms: C_25  and  O_26
REMARK   13  A    between atoms: O_26  and  C_27
REMARK   14  A    between atoms: C_27  and  C_28
REMARK   15  A    between atoms: C_30  and  C_32
REMARK   16  A    between atoms: C_32  and  O_33
REMARK   17  A    between atoms: O_33  and  C_34
REMARK   18  A    between atoms: C_34  and  C_35
REMARK                            x       y       z     vdW  Elec       q    Type
REMARK                         _______ _______ _______ _____ _____    ______ ____
ROOT
ATOM      1  C   LIG A   1      -9.624   0.756 125.050  0.00  0.00    +0.163 A 
ATOM      2  C   LIG A   1      -9.235  -0.370 125.788  0.00  0.00    +0.173 A 
ATOM      3  C   LIG A   1      -8.251  -0.260 126.770  0.00  0.00    +0.054 A 
ATOM      4  C   LIG A   1      -7.672   0.979 127.089  0.00  0.00    -0.033 A 
ATOM      5  C   LIG A   1      -6.652   1.063 128.226  0.00  0.00    +0.056 C 
ATOM      6  C   LIG A   1      -6.008   2.479 128.397  0.00  0.00    +0.045 C 
ATOM      7  C   LIG A   1      -6.890   3.659 127.880  0.00  0.00    +0.038 C 
ATOM      8  C   LIG A   1      -7.340   3.418 126.447  0.00  0.00    +0.042 C 
ATOM      9  C   LIG A   1      -8.003   2.085 126.286  0.00  0.00    -0.040 A 
ATOM     10  C   LIG A   1      -8.953   1.958 125.261  0.00  0.00    +0.053 A 
ENDROOT
BRANCH   5  11
ATOM     11  C   LIG A   1      -7.033   0.417 129.575  0.00  0.00    -0.036 A 
ATOM     12  C   LIG A   1      -6.187  -0.565 130.117  0.00  0.00    +0.008 A 
ATOM     13  C   LIG A   1      -6.512  -1.253 131.295  0.00  0.00    +0.050 A 
ATOM     14  C   LIG A   1      -7.697  -0.986 131.989  0.00  0.00    +0.162 A 
ATOM     15  C   LIG A   1      -8.570  -0.020 131.452  0.00  0.00    +0.162 A 
ATOM     16  C   LIG A   1      -8.210   0.694 130.284  0.00  0.00    +0.053 A 
BRANCH  14  17
ATOM     17  O   LIG A   1      -8.014  -1.643 133.154  0.00  0.00    -0.491 OA
ATOM     18  C   LIG A   1      -6.917  -2.055 133.977  0.00  0.00    +0.277 C 
ENDBRANCH  14  17
BRANCH  15  19
ATOM     19  O   LIG A   1      -9.765   0.410 131.974  0.00  0.00    -0.491 OA
ATOM     20  C   LIG A   1      -9.987   1.813 132.021  0.00  0.00    +0.277 C 
ENDBRANCH  15  19
ENDBRANCH   5  11
BRANCH   1  22
ATOM     21  C   LIG A   1     -10.101   0.795 122.757  0.00  0.00    +0.277 C 
ATOM     22  O   LIG A   1     -10.598   0.817 124.091  0.00  0.00    -0.491 OA
ENDBRANCH   1  22
BRANCH   2  23
ATOM     23  O   LIG A   1      -9.770  -1.631 125.424  0.00  0.00    -0.422 OA
BRANCH  23  24
ATOM     24  C   LIG A   1      -9.018  -2.732 124.990  0.00  0.00    +0.309 C 
ATOM     25  C   LIG A   1      -8.976  -2.731 123.497  0.00  0.00    +0.136 C 
ATOM     26  O   LIG A   1      -8.494  -3.583 125.671  0.00  0.00    -0.251 OA
ENDBRANCH  23  24
ENDBRANCH   2  23
BRANCH   6  27
ATOM     27  C   LIG A   1      -4.626   2.474 127.690  0.00  0.00    +0.237 C 
BRANCH  27  28
ATOM     28  O   LIG A   1      -3.670   3.199 128.486  0.00  0.00    -0.465 OA
BRANCH  28  29
ATOM     29  C   LIG A   1      -2.749   3.946 127.821  0.00  0.00    +0.304 C 
ATOM     30  C   LIG A   1      -2.027   3.098 126.814  0.00  0.00    +0.136 C 
ATOM     31  O   LIG A   1      -2.569   5.145 127.954  0.00  0.00    -0.251 OA
ENDBRANCH  28  29
ENDBRANCH  27  28
ENDBRANCH   6  27
BRANCH   7  32
ATOM     32  C   LIG A   1      -8.089   3.998 128.788  0.00  0.00    +0.236 C 
BRANCH  32  33
ATOM     33  O   LIG A   1      -8.704   5.172 128.232  0.00  0.00    -0.465 OA
BRANCH  33  34
ATOM     34  C   LIG A   1      -9.451   5.934 129.077  0.00  0.00    +0.304 C 
ATOM     35  C   LIG A   1      -9.982   5.075 130.189  0.00  0.00    +0.136 C 
ATOM     36  O   LIG A   1      -9.614   7.137 129.006  0.00  0.00    -0.251 OA
ENDBRANCH  33  34
ENDBRANCH  32  33
ENDBRANCH   7  32
TORSDOF 12
ENDMDL
MODEL 7
REMARK VINA RESULT:      -7.0      2.396      4.039
REMARK  Name = NuBBE_2459
REMARK  18 active torsions:
REMARK  status: ('A' for Active; 'I' for Inactive)
REMARK    1  A    between atoms: C_1  and  O_2
REMARK    2  A    between atoms: O_2  and  C_3
REMARK    3  A    between atoms: C_4  and  O_5
REMARK    4  A    between atoms: O_5  and  C_6
REMARK    5  A    between atoms: C_6  and  C_7
REMARK    6  A    between atoms: C_11  and  C_13
REMARK    7  A    between atoms: C_16  and  O_17
REMARK    8  A    between atoms: O_17  and  C_18
REMARK    9  A    between atoms: C_19  and  O_20
REMARK   10  A    between atoms: O_20  and  C_21
REMARK   11  A    between atoms: C_23  and  C_25
REMARK   12  A    between atoms: C_25  and  O_26
REMARK   13  A    between atoms: O_26  and  C_27
REMARK   14  A    between atoms: C_27  and  C_28
REMARK   15  A    between atoms: C_30  and  C_32
REMARK   16  A    between atoms: C_32  and  O_33
REMARK   17  A    between atoms: O_33  and  C_34
REMARK   18  A    between atoms: C_34  and  C_35
REMARK                            x       y       z     vdW  Elec       q    Type
REMARK                         _______ _______ _______ _____ _____    ______ ____
ROOT
ATOM      1  C   LIG A   1     -11.315   6.237 131.085  0.00  0.00    +0.163 A 
ATOM      2  C   LIG A   1     -10.854   6.064 129.773  0.00  0.00    +0.173 A 
ATOM      3  C   LIG A   1      -9.504   5.808 129.532  0.00  0.00    +0.054 A 
ATOM      4  C   LIG A   1      -8.589   5.658 130.585  0.00  0.00    -0.033 A 
ATOM      5  C   LIG A   1      -7.134   5.302 130.273  0.00  0.00    +0.056 C 
ATOM      6  C   LIG A   1      -6.204   5.275 131.532  0.00  0.00    +0.045 C 
ATOM      7  C   LIG A   1      -6.941   4.982 132.877  0.00  0.00    +0.038 C 
ATOM      8  C   LIG A   1      -8.119   5.926 133.071  0.00  0.00    +0.042 C 
ATOM      9  C   LIG A   1      -9.041   5.919 131.891  0.00  0.00    -0.040 A 
ATOM     10  C   LIG A   1     -10.389   6.231 132.125  0.00  0.00    +0.053 A 
ENDROOT
BRANCH   5  11
ATOM     11  C   LIG A   1      -6.877   4.116 129.321  0.00  0.00    -0.036 A 
ATOM     12  C   LIG A   1      -7.536   2.899 129.564  0.00  0.00    +0.008 A 
ATOM     13  C   LIG A   1      -7.287   1.755 128.790  0.00  0.00    +0.050 A 
ATOM     14  C   LIG A   1      -6.369   1.778 127.735  0.00  0.00    +0.162 A 
ATOM     15  C   LIG A   1      -5.681   2.982 127.487  0.00  0.00    +0.162 A 
ATOM     16  C   LIG A   1      -5.972   4.138 128.251  0.00  0.00    +0.053 A 
BRANCH  14  17
ATOM     17  O   LIG A   1      -6.134   0.667 126.961  0.00  0.00    -0.491 OA
ATOM     18  C   LIG A   1      -7.112   0.363 125.960  0.00  0.00    +0.277 C 
ENDBRANCH  14  17
BRANCH  15  19
ATOM     19  O   LIG A   1      -4.761   3.232 126.499  0.00  0.00    -0.491 OA
ATOM     20  C   LIG A   1      -3.390   3.217 126.868  0.00  0.00    +0.277 C 
ENDBRANCH  15  19
ENDBRANCH   5  11
BRANCH   1  22
ATOM     21  C   LIG A   1     -13.004   7.814 131.463  0.00  0.00    +0.277 C 
ATOM     22  O   LIG A   1     -12.607   6.448 131.484  0.00  0.00    -0.491 OA
ENDBRANCH   1  22
BRANCH   2  23
ATOM     23  O   LIG A   1     -11.762   6.279 128.707  0.00  0.00    -0.422 OA
BRANCH  23  24
ATOM     24  C   LIG A   1     -11.524   7.108 127.600  0.00  0.00    +0.309 C 
ATOM     25  C   LIG A   1     -11.508   8.530 128.056  0.00  0.00    +0.136 C 
ATOM     26  O   LIG A   1     -11.378   6.776 126.446  0.00  0.00    -0.251 OA
ENDBRANCH  23  24
ENDBRANCH   2  23
BRANCH   6  27
ATOM     27  C   LIG A   1      -5.444   6.627 131.604  0.00  0.00    +0.237 C 
BRANCH  27  28
ATOM     28  O   LIG A   1      -5.456   7.260 130.311  0.00  0.00    -0.465 OA
BRANCH  28  29
ATOM     29  C   LIG A   1      -4.282   7.780 129.864  0.00  0.00    +0.304 C 
ATOM     30  C   LIG A   1      -3.421   6.693 129.290  0.00  0.00    +0.136 C 
ATOM     31  O   LIG A   1      -3.982   8.963 129.851  0.00  0.00    -0.251 OA
ENDBRANCH  28  29
ENDBRANCH  27  28
ENDBRANCH   6  27
BRANCH   7  32
ATOM     32  C   LIG A   1      -7.373   3.513 133.055  0.00  0.00    +0.236 C 
BRANCH  32  33
ATOM     33  O   LIG A   1      -6.204   2.712 132.817  0.00  0.00    -0.465 OA
BRANCH  33  34
ATOM     34  C   LIG A   1      -6.349   1.363 132.927  0.00  0.00    +0.304 C 
ATOM     35  C   LIG A   1      -5.498   0.682 131.892  0.00  0.00    +0.136 C 
ATOM     36  O   LIG A   1      -6.999   0.776 133.770  0.00  0.00    -0.251 OA
ENDBRANCH  33  34
ENDBRANCH  32  33
ENDBRANCH   7  32
TORSDOF 12
ENDMDL
MODEL 8
REMARK VINA RESULT:      -7.0      3.772      8.489
REMARK  Name = NuBBE_2459
REMARK  18 active torsions:
REMARK  status: ('A' for Active; 'I' for Inactive)
REMARK    1  A    between atoms: C_1  and  O_2
REMARK    2  A    between atoms: O_2  and  C_3
REMARK    3  A    between atoms: C_4  and  O_5
REMARK    4  A    between atoms: O_5  and  C_6
REMARK    5  A    between atoms: C_6  and  C_7
REMARK    6  A    between atoms: C_11  and  C_13
REMARK    7  A    between atoms: C_16  and  O_17
REMARK    8  A    between atoms: O_17  and  C_18
REMARK    9  A    between atoms: C_19  and  O_20
REMARK   10  A    between atoms: O_20  and  C_21
REMARK   11  A    between atoms: C_23  and  C_25
REMARK   12  A    between atoms: C_25  and  O_26
REMARK   13  A    between atoms: O_26  and  C_27
REMARK   14  A    between atoms: C_27  and  C_28
REMARK   15  A    between atoms: C_30  and  C_32
REMARK   16  A    between atoms: C_32  and  O_33
REMARK   17  A    between atoms: O_33  and  C_34
REMARK   18  A    between atoms: C_34  and  C_35
REMARK                            x       y       z     vdW  Elec       q    Type
REMARK                         _______ _______ _______ _____ _____    ______ ____
ROOT
ATOM      1  C   LIG A   1      -4.191   3.492 126.576  0.00  0.00    +0.163 A 
ATOM      2  C   LIG A   1      -5.066   4.257 127.360  0.00  0.00    +0.173 A 
ATOM      3  C   LIG A   1      -6.329   3.763 127.686  0.00  0.00    +0.054 A 
ATOM      4  C   LIG A   1      -6.735   2.477 127.295  0.00  0.00    -0.033 A 
ATOM      5  C   LIG A   1      -8.100   1.951 127.741  0.00  0.00    +0.056 C 
ATOM      6  C   LIG A   1      -8.466   0.551 127.143  0.00  0.00    +0.045 C 
ATOM      7  C   LIG A   1      -7.237  -0.329 126.753  0.00  0.00    +0.038 C 
ATOM      8  C   LIG A   1      -6.283   0.435 125.847  0.00  0.00    +0.042 C 
ATOM      9  C   LIG A   1      -5.888   1.754 126.436  0.00  0.00    -0.040 A 
ATOM     10  C   LIG A   1      -4.640   2.277 126.065  0.00  0.00    +0.053 A 
ENDROOT
BRANCH   5  11
ATOM     11  C   LIG A   1      -8.456   2.067 129.238  0.00  0.00    -0.036 A 
ATOM     12  C   LIG A   1      -9.457   2.973 129.626  0.00  0.00    +0.008 A 
ATOM     13  C   LIG A   1      -9.774   3.193 130.975  0.00  0.00    +0.050 A 
ATOM     14  C   LIG A   1      -9.106   2.511 131.998  0.00  0.00    +0.162 A 
ATOM     15  C   LIG A   1      -8.085   1.613 131.632  0.00  0.00    +0.162 A 
ATOM     16  C   LIG A   1      -7.803   1.373 130.266  0.00  0.00    +0.053 A 
BRANCH  14  17
ATOM     17  O   LIG A   1      -9.424   2.706 133.321  0.00  0.00    -0.491 OA
ATOM     18  C   LIG A   1      -8.843   3.849 133.959  0.00  0.00    +0.277 C 
ENDBRANCH  14  17
BRANCH  15  19
ATOM     19  O   LIG A   1      -7.322   0.829 132.463  0.00  0.00    -0.491 OA
ATOM     20  C   LIG A   1      -6.538  -0.189 131.858  0.00  0.00    +0.277 C 
ENDBRANCH  15  19
ENDBRANCH   5  11
BRANCH   1  22
ATOM     21  C   LIG A   1      -1.909   3.095 126.916  0.00  0.00    +0.277 C 
ATOM     22  O   LIG A   1      -2.913   3.817 126.212  0.00  0.00    -0.491 OA
ENDBRANCH   1  22
BRANCH   2  23
ATOM     23  O   LIG A   1      -4.685   5.578 127.700  0.00  0.00    -0.422 OA
BRANCH  23  24
ATOM     24  C   LIG A   1      -3.976   5.941 128.855  0.00  0.00    +0.309 C 
ATOM     25  C   LIG A   1      -2.640   6.478 128.454  0.00  0.00    +0.136 C 
ATOM     26  O   LIG A   1      -4.331   5.831 130.005  0.00  0.00    -0.251 OA
ENDBRANCH  23  24
ENDBRANCH   2  23
BRANCH   6  27
ATOM     27  C   LIG A   1      -9.394   0.774 125.918  0.00  0.00    +0.237 C 
BRANCH  27  28
ATOM     28  O   LIG A   1      -9.332   2.153 125.506  0.00  0.00    -0.465 OA
BRANCH  28  29
ATOM     29  C   LIG A   1      -9.007   2.399 124.209  0.00  0.00    +0.304 C 
ATOM     30  C   LIG A   1      -9.423   1.244 123.345  0.00  0.00    +0.136 C 
ATOM     31  O   LIG A   1      -8.518   3.430 123.777  0.00  0.00    -0.251 OA
ENDBRANCH  28  29
ENDBRANCH  27  28
ENDBRANCH   6  27
BRANCH   7  32
ATOM     32  C   LIG A   1      -6.490  -0.941 127.955  0.00  0.00    +0.236 C 
BRANCH  32  33
ATOM     33  O   LIG A   1      -6.796  -2.345 127.954  0.00  0.00    -0.465 OA
BRANCH  33  34
ATOM     34  C   LIG A   1      -7.924  -2.729 128.612  0.00  0.00    +0.304 C 
ATOM     35  C   LIG A   1      -8.731  -3.641 127.732  0.00  0.00    +0.136 C 
ATOM     36  O   LIG A   1      -8.217  -2.452 129.759  0.00  0.00    -0.251 OA
ENDBRANCH  33  34
ENDBRANCH  32  33
ENDBRANCH   7  32
TORSDOF 12
ENDMDL
MODEL 9
REMARK VINA RESULT:      -6.7      5.205      7.690
REMARK  Name = NuBBE_2459
REMARK  18 active torsions:
REMARK  status: ('A' for Active; 'I' for Inactive)
REMARK    1  A    between atoms: C_1  and  O_2
REMARK    2  A    between atoms: O_2  and  C_3
REMARK    3  A    between atoms: C_4  and  O_5
REMARK    4  A    between atoms: O_5  and  C_6
REMARK    5  A    between atoms: C_6  and  C_7
REMARK    6  A    between atoms: C_11  and  C_13
REMARK    7  A    between atoms: C_16  and  O_17
REMARK    8  A    between atoms: O_17  and  C_18
REMARK    9  A    between atoms: C_19  and  O_20
REMARK   10  A    between atoms: O_20  and  C_21
REMARK   11  A    between atoms: C_23  and  C_25
REMARK   12  A    between atoms: C_25  and  O_26
REMARK   13  A    between atoms: O_26  and  C_27
REMARK   14  A    between atoms: C_27  and  C_28
REMARK   15  A    between atoms: C_30  and  C_32
REMARK   16  A    between atoms: C_32  and  O_33
REMARK   17  A    between atoms: O_33  and  C_34
REMARK   18  A    between atoms: C_34  and  C_35
REMARK                            x       y       z     vdW  Elec       q    Type
REMARK                         _______ _______ _______ _____ _____    ______ ____
ROOT
ATOM      1  C   LIG A   1      -9.111  -2.157 125.441  0.00  0.00    +0.163 A 
ATOM      2  C   LIG A   1      -8.906  -0.771 125.418  0.00  0.00    +0.173 A 
ATOM      3  C   LIG A   1      -8.382  -0.121 126.534  0.00  0.00    +0.054 A 
ATOM      4  C   LIG A   1      -7.991  -0.834 127.679  0.00  0.00    -0.033 A 
ATOM      5  C   LIG A   1      -7.351  -0.085 128.850  0.00  0.00    +0.056 C 
ATOM      6  C   LIG A   1      -7.068  -0.986 130.099  0.00  0.00    +0.045 C 
ATOM      7  C   LIG A   1      -6.875  -2.501 129.776  0.00  0.00    +0.038 C 
ATOM      8  C   LIG A   1      -8.037  -3.036 128.951  0.00  0.00    +0.042 C 
ATOM      9  C   LIG A   1      -8.281  -2.209 127.727  0.00  0.00    -0.040 A 
ATOM     10  C   LIG A   1      -8.860  -2.850 126.622  0.00  0.00    +0.053 A 
ENDROOT
BRANCH   5  11
ATOM     11  C   LIG A   1      -6.183   0.872 128.532  0.00  0.00    -0.036 A 
ATOM     12  C   LIG A   1      -5.013   0.790 129.306  0.00  0.00    +0.008 A 
ATOM     13  C   LIG A   1      -3.946   1.683 129.129  0.00  0.00    +0.050 A 
ATOM     14  C   LIG A   1      -3.999   2.697 128.167  0.00  0.00    +0.162 A 
ATOM     15  C   LIG A   1      -5.171   2.811 127.395  0.00  0.00    +0.162 A 
ATOM     16  C   LIG A   1      -6.223   1.879 127.558  0.00  0.00    +0.053 A 
BRANCH  14  17
ATOM     17  O   LIG A   1      -2.949   3.564 127.975  0.00  0.00    -0.491 OA
ATOM     18  C   LIG A   1      -1.975   3.186 126.996  0.00  0.00    +0.277 C 
ENDBRANCH  14  17
BRANCH  15  19
ATOM     19  O   LIG A   1      -5.427   3.711 126.390  0.00  0.00    -0.491 OA
ATOM     20  C   LIG A   1      -5.546   3.196 125.071  0.00  0.00    +0.277 C 
ENDBRANCH  15  19
ENDBRANCH   5  11
BRANCH   1  22
ATOM     21  C   LIG A   1      -8.598  -3.215 123.415  0.00  0.00    +0.277 C 
ATOM     22  O   LIG A   1      -9.572  -2.940 124.416  0.00  0.00    -0.491 OA
ENDBRANCH   1  22
BRANCH   2  23
ATOM     23  O   LIG A   1      -9.359  -0.042 124.290  0.00  0.00    -0.422 OA
BRANCH  23  24
ATOM     24  C   LIG A   1     -10.113   1.139 124.343  0.00  0.00    +0.309 C 
ATOM     25  C   LIG A   1      -9.189   2.308 124.231  0.00  0.00    +0.136 C 
ATOM     26  O   LIG A   1     -11.309   1.247 124.485  0.00  0.00    -0.251 OA
ENDBRANCH  23  24
ENDBRANCH   2  23
BRANCH   6  27
ATOM     27  C   LIG A   1      -8.223  -0.782 131.116  0.00  0.00    +0.237 C 
BRANCH  27  28
ATOM     28  O   LIG A   1      -8.838   0.502 130.902  0.00  0.00    -0.465 OA
BRANCH  28  29
ATOM     29  C   LIG A   1      -8.989   1.306 131.988  0.00  0.00    +0.304 C 
ATOM     30  C   LIG A   1      -7.680   1.454 132.708  0.00  0.00    +0.136 C 
ATOM     31  O   LIG A   1     -10.011   1.892 132.308  0.00  0.00    -0.251 OA
ENDBRANCH  28  29
ENDBRANCH  27  28
ENDBRANCH   6  27
BRANCH   7  32
ATOM     32  C   LIG A   1      -5.524  -2.840 129.116  0.00  0.00    +0.236 C 
BRANCH  32  33
ATOM     33  O   LIG A   1      -4.891  -3.818 129.958  0.00  0.00    -0.465 OA
BRANCH  33  34
ATOM     34  C   LIG A   1      -3.775  -3.422 130.629  0.00  0.00    +0.304 C 
ATOM     35  C   LIG A   1      -3.126  -2.283 129.894  0.00  0.00    +0.136 C 
ATOM     36  O   LIG A   1      -3.387  -3.855 131.697  0.00  0.00    -0.251 OA
ENDBRANCH  33  34
ENDBRANCH  32  33
ENDBRANCH   7  32
TORSDOF 12
ENDMDL
