MODEL 1
REMARK VINA RESULT:      -8.1      0.000      0.000
REMARK  Name = NuBBE_2297
REMARK  10 active torsions:
REMARK  status: ('A' for Active; 'I' for Inactive)
REMARK    1  A    between atoms: C_2  and  C_3
REMARK    2  A    between atoms: C_3  and  C_4
REMARK    3  A    between atoms: C_6  and  O_7
REMARK    4  A    between atoms: O_7  and  C_8
REMARK    5  A    between atoms: C_9  and  O_11
REMARK    6  A    between atoms: C_12  and  O_13
REMARK    7  A    between atoms: O_13  and  C_14
REMARK    8  A    between atoms: C_15  and  O_16
REMARK    9  A    between atoms: C_18  and  C_20
REMARK   10  A    between atoms: C_21  and  C_23
REMARK                            x       y       z     vdW  Elec       q    Type
REMARK                         _______ _______ _______ _____ _____    ______ ____
ROOT
ATOM      1  C   LIG A   1      -6.502  -1.770 124.257  0.00  0.00    +0.028 C 
ATOM      2  C   LIG A   1      -7.431  -2.821 124.850  0.00  0.00    +0.027 C 
ATOM      3  C   LIG A   1      -8.354  -2.493 125.761  0.00  0.00    +0.125 C 
ATOM      4  C   LIG A   1      -8.450  -1.055 126.248  0.00  0.00    +0.214 C 
ATOM      5  C   LIG A   1      -7.386  -0.052 125.656  0.00  0.00    +0.135 C 
ATOM      6  C   LIG A   1      -6.066  -0.813 125.396  0.00  0.00    +0.160 C 
ATOM      7  C   LIG A   1      -7.315  -0.816 123.305  0.00  0.00    +0.009 C 
ATOM      8  C   LIG A   1      -8.529  -1.445 122.605  0.00  0.00    +0.009 C 
ATOM      9  C   LIG A   1      -7.716   0.425 124.188  0.00  0.00    +0.060 C 
ENDROOT
BRANCH   9  10
ATOM     10  C   LIG A   1      -7.018   1.684 123.629  0.00  0.00    -0.037 A 
ATOM     11  C   LIG A   1      -6.840   1.930 122.259  0.00  0.00    +0.053 A 
ATOM     12  C   LIG A   1      -6.161   3.061 121.857  0.00  0.00    +0.167 A 
ATOM     13  O   LIG A   1      -5.888   3.391 120.567  0.00  0.00    -0.453 OA
ATOM     14  C   LIG A   1      -5.152   4.615 120.756  0.00  0.00    +0.466 C 
ATOM     15  O   LIG A   1      -5.042   5.011 122.141  0.00  0.00    -0.453 OA
ATOM     16  C   LIG A   1      -5.682   3.979 122.753  0.00  0.00    +0.166 A 
ATOM     17  C   LIG A   1      -5.857   3.812 124.107  0.00  0.00    +0.050 A 
ATOM     18  C   LIG A   1      -6.517   2.652 124.543  0.00  0.00    +0.008 A 
ENDBRANCH   9  10
BRANCH   3  19
ATOM     19  O   LIG A   1      -9.281  -3.340 126.326  0.00  0.00    -0.497 OA
ATOM     20  C   LIG A   1      -8.942  -3.896 127.591  0.00  0.00    +0.276 C 
ENDBRANCH   3  19
BRANCH   4  21
ATOM     21  O   LIG A   1      -9.779  -0.587 125.976  0.00  0.00    -0.381 OA
ATOM     22  H   LIG A   1      -9.733   0.388 126.032  0.00  0.00    +0.210 HD
ENDBRANCH   4  21
BRANCH   5  23
ATOM     23  O   LIG A   1      -7.126   0.988 126.622  0.00  0.00    -0.370 OA
ATOM     24  C   LIG A   1      -7.656   0.757 127.922  0.00  0.00    +0.195 C 
ENDBRANCH   5  23
BRANCH   6  25
ATOM     25  O   LIG A   1      -5.557  -1.464 126.556  0.00  0.00    -0.388 OA
ATOM     26  H   LIG A   1      -6.345  -1.742 127.063  0.00  0.00    +0.210 HD
ENDBRANCH   6  25
BRANCH   1  27
ATOM     27  C   LIG A   1      -5.305  -2.479 123.574  0.00  0.00    +0.040 C 
BRANCH  27  29
ATOM     28  C   LIG A   1      -4.074  -4.665 123.486  0.00  0.00    +0.004 C 
ATOM     29  C   LIG A   1      -5.104  -3.932 123.915  0.00  0.00    -0.034 C 
ENDBRANCH  27  29
ENDBRANCH   1  27
TORSDOF 7
ENDMDL
MODEL 2
REMARK VINA RESULT:      -7.8      2.903      6.653
REMARK  Name = NuBBE_2297
REMARK  10 active torsions:
REMARK  status: ('A' for Active; 'I' for Inactive)
REMARK    1  A    between atoms: C_2  and  C_3
REMARK    2  A    between atoms: C_3  and  C_4
REMARK    3  A    between atoms: C_6  and  O_7
REMARK    4  A    between atoms: O_7  and  C_8
REMARK    5  A    between atoms: C_9  and  O_11
REMARK    6  A    between atoms: C_12  and  O_13
REMARK    7  A    between atoms: O_13  and  C_14
REMARK    8  A    between atoms: C_15  and  O_16
REMARK    9  A    between atoms: C_18  and  C_20
REMARK   10  A    between atoms: C_21  and  C_23
REMARK                            x       y       z     vdW  Elec       q    Type
REMARK                         _______ _______ _______ _____ _____    ______ ____
ROOT
ATOM      1  C   LIG A   1      -6.071  -1.941 124.572  0.00  0.00    +0.028 C 
ATOM      2  C   LIG A   1      -6.836  -0.996 123.653  0.00  0.00    +0.027 C 
ATOM      3  C   LIG A   1      -8.059  -0.559 123.975  0.00  0.00    +0.125 C 
ATOM      4  C   LIG A   1      -8.717  -1.046 125.257  0.00  0.00    +0.214 C 
ATOM      5  C   LIG A   1      -7.896  -2.098 126.099  0.00  0.00    +0.135 C 
ATOM      6  C   LIG A   1      -7.071  -2.982 125.136  0.00  0.00    +0.160 C 
ATOM      7  C   LIG A   1      -5.615  -1.171 125.867  0.00  0.00    +0.009 C 
ATOM      8  C   LIG A   1      -5.350   0.332 125.695  0.00  0.00    +0.009 C 
ATOM      9  C   LIG A   1      -6.728  -1.457 126.945  0.00  0.00    +0.060 C 
ENDROOT
BRANCH   9  10
ATOM     10  C   LIG A   1      -6.106  -2.263 128.105  0.00  0.00    -0.037 A 
ATOM     11  C   LIG A   1      -6.814  -2.637 129.258  0.00  0.00    +0.053 A 
ATOM     12  C   LIG A   1      -6.160  -3.316 130.264  0.00  0.00    +0.167 A 
ATOM     13  O   LIG A   1      -6.720  -3.696 131.443  0.00  0.00    -0.453 OA
ATOM     14  C   LIG A   1      -5.590  -4.313 132.087  0.00  0.00    +0.466 C 
ATOM     15  O   LIG A   1      -4.400  -4.330 131.269  0.00  0.00    -0.453 OA
ATOM     16  C   LIG A   1      -4.842  -3.674 130.163  0.00  0.00    +0.166 A 
ATOM     17  C   LIG A   1      -4.104  -3.368 129.043  0.00  0.00    +0.050 A 
ATOM     18  C   LIG A   1      -4.740  -2.648 128.018  0.00  0.00    +0.008 A 
ENDBRANCH   9  10
BRANCH   3  19
ATOM     19  O   LIG A   1      -8.822   0.333 123.256  0.00  0.00    -0.497 OA
ATOM     20  C   LIG A   1      -9.915  -0.212 122.528  0.00  0.00    +0.276 C 
ENDBRANCH   3  19
BRANCH   4  21
ATOM     21  O   LIG A   1      -9.021   0.105 126.059  0.00  0.00    -0.381 OA
ATOM     22  H   LIG A   1      -8.996  -0.205 126.986  0.00  0.00    +0.210 HD
ENDBRANCH   4  21
BRANCH   5  23
ATOM     23  O   LIG A   1      -8.813  -2.948 126.820  0.00  0.00    -0.370 OA
ATOM     24  C   LIG A   1     -10.032  -3.237 126.144  0.00  0.00    +0.195 C 
ENDBRANCH   5  23
BRANCH   6  25
ATOM     25  O   LIG A   1      -7.868  -3.632 124.152  0.00  0.00    -0.388 OA
ATOM     26  H   LIG A   1      -8.542  -4.132 124.653  0.00  0.00    +0.210 HD
ENDBRANCH   6  25
BRANCH   1  27
ATOM     27  C   LIG A   1      -4.909  -2.589 123.777  0.00  0.00    +0.040 C 
BRANCH  27  29
ATOM     28  C   LIG A   1      -4.202  -4.960 123.350  0.00  0.00    +0.004 C 
ATOM     29  C   LIG A   1      -4.499  -3.975 124.201  0.00  0.00    -0.034 C 
ENDBRANCH  27  29
ENDBRANCH   1  27
TORSDOF 7
ENDMDL
MODEL 3
REMARK VINA RESULT:      -7.6      8.097     10.185
REMARK  Name = NuBBE_2297
REMARK  10 active torsions:
REMARK  status: ('A' for Active; 'I' for Inactive)
REMARK    1  A    between atoms: C_2  and  C_3
REMARK    2  A    between atoms: C_3  and  C_4
REMARK    3  A    between atoms: C_6  and  O_7
REMARK    4  A    between atoms: O_7  and  C_8
REMARK    5  A    between atoms: C_9  and  O_11
REMARK    6  A    between atoms: C_12  and  O_13
REMARK    7  A    between atoms: O_13  and  C_14
REMARK    8  A    between atoms: C_15  and  O_16
REMARK    9  A    between atoms: C_18  and  C_20
REMARK   10  A    between atoms: C_21  and  C_23
REMARK                            x       y       z     vdW  Elec       q    Type
REMARK                         _______ _______ _______ _____ _____    ______ ____
ROOT
ATOM      1  C   LIG A   1      -7.091   3.733 132.970  0.00  0.00    +0.028 C 
ATOM      2  C   LIG A   1      -5.719   3.645 133.628  0.00  0.00    +0.027 C 
ATOM      3  C   LIG A   1      -4.706   4.417 133.220  0.00  0.00    +0.125 C 
ATOM      4  C   LIG A   1      -4.910   5.368 132.051  0.00  0.00    +0.214 C 
ATOM      5  C   LIG A   1      -6.330   5.325 131.364  0.00  0.00    +0.135 C 
ATOM      6  C   LIG A   1      -6.884   3.883 131.442  0.00  0.00    +0.160 C 
ATOM      7  C   LIG A   1      -7.779   5.095 133.355  0.00  0.00    +0.009 C 
ATOM      8  C   LIG A   1      -7.397   5.676 134.724  0.00  0.00    +0.009 C 
ATOM      9  C   LIG A   1      -7.449   6.087 132.177  0.00  0.00    +0.060 C 
ENDROOT
BRANCH   9  10
ATOM     10  C   LIG A   1      -8.762   6.479 131.467  0.00  0.00    -0.037 A 
ATOM     11  C   LIG A   1      -8.810   7.213 130.272  0.00  0.00    +0.053 A 
ATOM     12  C   LIG A   1     -10.034   7.557 129.737  0.00  0.00    +0.167 A 
ATOM     13  O   LIG A   1     -10.215   8.298 128.612  0.00  0.00    -0.453 OA
ATOM     14  C   LIG A   1     -11.653   8.362 128.565  0.00  0.00    +0.466 C 
ATOM     15  O   LIG A   1     -12.296   7.626 129.627  0.00  0.00    -0.453 OA
ATOM     16  C   LIG A   1     -11.214   7.175 130.317  0.00  0.00    +0.166 A 
ATOM     17  C   LIG A   1     -11.233   6.424 131.469  0.00  0.00    +0.050 A 
ATOM     18  C   LIG A   1     -10.000   6.087 132.050  0.00  0.00    +0.008 A 
ENDBRANCH   9  10
BRANCH   3  19
ATOM     19  O   LIG A   1      -3.444   4.466 133.768  0.00  0.00    -0.497 OA
ATOM     20  C   LIG A   1      -2.387   3.944 132.972  0.00  0.00    +0.276 C 
ENDBRANCH   3  19
BRANCH   4  21
ATOM     21  O   LIG A   1      -4.620   6.697 132.509  0.00  0.00    -0.381 OA
ATOM     22  H   LIG A   1      -3.652   6.724 132.645  0.00  0.00    +0.210 HD
ENDBRANCH   4  21
BRANCH   5  23
ATOM     23  O   LIG A   1      -6.196   5.684 129.973  0.00  0.00    -0.370 OA
ATOM     24  C   LIG A   1      -4.876   5.596 129.447  0.00  0.00    +0.195 C 
ENDBRANCH   5  23
BRANCH   6  25
ATOM     25  O   LIG A   1      -6.012   2.917 130.863  0.00  0.00    -0.388 OA
ATOM     26  H   LIG A   1      -6.386   2.727 129.980  0.00  0.00    +0.210 HD
ENDBRANCH   6  25
BRANCH   1  27
ATOM     27  C   LIG A   1      -7.915   2.476 133.347  0.00  0.00    +0.040 C 
BRANCH  27  29
ATOM     28  C   LIG A   1      -9.868   1.815 131.915  0.00  0.00    +0.004 C 
ATOM     29  C   LIG A   1      -9.370   2.487 132.956  0.00  0.00    -0.034 C 
ENDBRANCH  27  29
ENDBRANCH   1  27
TORSDOF 7
ENDMDL
MODEL 4
REMARK VINA RESULT:      -7.3      2.889      5.982
REMARK  Name = NuBBE_2297
REMARK  10 active torsions:
REMARK  status: ('A' for Active; 'I' for Inactive)
REMARK    1  A    between atoms: C_2  and  C_3
REMARK    2  A    between atoms: C_3  and  C_4
REMARK    3  A    between atoms: C_6  and  O_7
REMARK    4  A    between atoms: O_7  and  C_8
REMARK    5  A    between atoms: C_9  and  O_11
REMARK    6  A    between atoms: C_12  and  O_13
REMARK    7  A    between atoms: O_13  and  C_14
REMARK    8  A    between atoms: C_15  and  O_16
REMARK    9  A    between atoms: C_18  and  C_20
REMARK   10  A    between atoms: C_21  and  C_23
REMARK                            x       y       z     vdW  Elec       q    Type
REMARK                         _______ _______ _______ _____ _____    ______ ____
ROOT
ATOM      1  C   LIG A   1      -7.787  -2.129 126.785  0.00  0.00    +0.028 C 
ATOM      2  C   LIG A   1      -7.065  -2.531 125.505  0.00  0.00    +0.027 C 
ATOM      3  C   LIG A   1      -6.911  -1.665 124.497  0.00  0.00    +0.125 C 
ATOM      4  C   LIG A   1      -7.505  -0.269 124.609  0.00  0.00    +0.214 C 
ATOM      5  C   LIG A   1      -8.321   0.031 125.926  0.00  0.00    +0.135 C 
ATOM      6  C   LIG A   1      -9.015  -1.268 126.396  0.00  0.00    +0.160 C 
ATOM      7  C   LIG A   1      -6.903  -1.112 127.598  0.00  0.00    +0.009 C 
ATOM      8  C   LIG A   1      -5.384  -1.260 127.428  0.00  0.00    +0.009 C 
ATOM      9  C   LIG A   1      -7.410   0.320 127.182  0.00  0.00    +0.060 C 
ENDROOT
BRANCH   9  10
ATOM     10  C   LIG A   1      -8.025   1.013 128.417  0.00  0.00    -0.037 A 
ATOM     11  C   LIG A   1      -8.582   2.301 128.387  0.00  0.00    +0.053 A 
ATOM     12  C   LIG A   1      -9.065   2.857 129.553  0.00  0.00    +0.167 A 
ATOM     13  O   LIG A   1      -9.588   4.105 129.666  0.00  0.00    -0.453 OA
ATOM     14  C   LIG A   1      -9.881   4.145 131.075  0.00  0.00    +0.466 C 
ATOM     15  O   LIG A   1      -9.571   2.913 131.762  0.00  0.00    -0.453 OA
ATOM     16  C   LIG A   1      -9.053   2.177 130.743  0.00  0.00    +0.166 A 
ATOM     17  C   LIG A   1      -8.554   0.898 130.828  0.00  0.00    +0.050 A 
ATOM     18  C   LIG A   1      -8.027   0.322 129.661  0.00  0.00    +0.008 A 
ENDBRANCH   9  10
BRANCH   3  19
ATOM     19  O   LIG A   1      -6.234  -1.894 123.320  0.00  0.00    -0.497 OA
ATOM     20  C   LIG A   1      -5.236  -2.906 123.350  0.00  0.00    +0.276 C 
ENDBRANCH   3  19
BRANCH   4  21
ATOM     21  O   LIG A   1      -6.435   0.676 124.461  0.00  0.00    -0.381 OA
ATOM     22  H   LIG A   1      -6.572   1.096 123.588  0.00  0.00    +0.210 HD
ENDBRANCH   4  21
BRANCH   5  23
ATOM     23  O   LIG A   1      -9.340   1.011 125.638  0.00  0.00    -0.370 OA
ATOM     24  C   LIG A   1      -9.603   1.229 124.256  0.00  0.00    +0.195 C 
ENDBRANCH   5  23
BRANCH   6  25
ATOM     25  O   LIG A   1      -9.854  -1.845 125.401  0.00  0.00    -0.388 OA
ATOM     26  H   LIG A   1      -9.913  -2.793 125.630  0.00  0.00    +0.210 HD
ENDBRANCH   6  25
BRANCH   1  27
ATOM     27  C   LIG A   1      -8.172  -3.408 127.572  0.00  0.00    +0.040 C 
BRANCH  27  29
ATOM     28  C   LIG A   1      -7.350  -3.566 129.939  0.00  0.00    +0.004 C 
ATOM     29  C   LIG A   1      -8.311  -3.258 129.065  0.00  0.00    -0.034 C 
ENDBRANCH  27  29
ENDBRANCH   1  27
TORSDOF 7
ENDMDL
MODEL 5
REMARK VINA RESULT:      -7.0      2.742      6.569
REMARK  Name = NuBBE_2297
REMARK  10 active torsions:
REMARK  status: ('A' for Active; 'I' for Inactive)
REMARK    1  A    between atoms: C_2  and  C_3
REMARK    2  A    between atoms: C_3  and  C_4
REMARK    3  A    between atoms: C_6  and  O_7
REMARK    4  A    between atoms: O_7  and  C_8
REMARK    5  A    between atoms: C_9  and  O_11
REMARK    6  A    between atoms: C_12  and  O_13
REMARK    7  A    between atoms: O_13  and  C_14
REMARK    8  A    between atoms: C_15  and  O_16
REMARK    9  A    between atoms: C_18  and  C_20
REMARK   10  A    between atoms: C_21  and  C_23
REMARK                            x       y       z     vdW  Elec       q    Type
REMARK                         _______ _______ _______ _____ _____    ______ ____
ROOT
ATOM      1  C   LIG A   1      -5.767   3.922 125.550  0.00  0.00    +0.028 C 
ATOM      2  C   LIG A   1      -4.994   4.883 126.444  0.00  0.00    +0.027 C 
ATOM      3  C   LIG A   1      -5.221   4.936 127.761  0.00  0.00    +0.125 C 
ATOM      4  C   LIG A   1      -6.299   4.055 128.373  0.00  0.00    +0.214 C 
ATOM      5  C   LIG A   1      -7.119   3.162 127.363  0.00  0.00    +0.135 C 
ATOM      6  C   LIG A   1      -7.245   3.911 126.016  0.00  0.00    +0.160 C 
ATOM      7  C   LIG A   1      -5.310   2.443 125.837  0.00  0.00    +0.009 C 
ATOM      8  C   LIG A   1      -3.858   2.269 126.304  0.00  0.00    +0.009 C 
ATOM      9  C   LIG A   1      -6.342   1.875 126.883  0.00  0.00    +0.060 C 
ENDROOT
BRANCH   9  10
ATOM     10  C   LIG A   1      -7.130   0.717 126.233  0.00  0.00    -0.037 A 
ATOM     11  C   LIG A   1      -7.221   0.522 124.846  0.00  0.00    +0.053 A 
ATOM     12  C   LIG A   1      -7.988  -0.513 124.356  0.00  0.00    +0.167 A 
ATOM     13  O   LIG A   1      -8.190  -0.782 123.040  0.00  0.00    -0.453 OA
ATOM     14  C   LIG A   1      -9.073  -1.916 123.132  0.00  0.00    +0.466 C 
ATOM     15  O   LIG A   1      -9.342  -2.326 124.491  0.00  0.00    -0.453 OA
ATOM     16  C   LIG A   1      -8.642  -1.388 125.183  0.00  0.00    +0.166 A 
ATOM     17  C   LIG A   1      -8.562  -1.271 126.551  0.00  0.00    +0.050 A 
ATOM     18  C   LIG A   1      -7.812  -0.205 127.074  0.00  0.00    +0.008 A 
ENDBRANCH   9  10
BRANCH   3  19
ATOM     19  O   LIG A   1      -4.552   5.720 128.674  0.00  0.00    -0.497 OA
ATOM     20  C   LIG A   1      -3.233   6.118 128.321  0.00  0.00    +0.276 C 
ENDBRANCH   3  19
BRANCH   4  21
ATOM     21  O   LIG A   1      -5.680   3.232 129.373  0.00  0.00    -0.381 OA
ATOM     22  H   LIG A   1      -6.414   2.788 129.842  0.00  0.00    +0.210 HD
ENDBRANCH   4  21
BRANCH   5  23
ATOM     23  O   LIG A   1      -8.446   2.948 127.888  0.00  0.00    -0.370 OA
ATOM     24  C   LIG A   1      -8.702   3.542 129.156  0.00  0.00    +0.195 C 
ENDBRANCH   5  23
BRANCH   6  25
ATOM     25  O   LIG A   1      -7.835   5.201 126.147  0.00  0.00    -0.388 OA
ATOM     26  H   LIG A   1      -8.288   5.366 125.297  0.00  0.00    +0.210 HD
ENDBRANCH   6  25
BRANCH   1  27
ATOM     27  C   LIG A   1      -5.604   4.361 124.072  0.00  0.00    +0.040 C 
BRANCH  27  29
ATOM     28  C   LIG A   1      -5.964   3.472 121.753  0.00  0.00    +0.004 C 
ATOM     29  C   LIG A   1      -6.310   3.520 123.042  0.00  0.00    -0.034 C 
ENDBRANCH  27  29
ENDBRANCH   1  27
TORSDOF 7
ENDMDL
MODEL 6
REMARK VINA RESULT:      -7.0      2.600      4.444
REMARK  Name = NuBBE_2297
REMARK  10 active torsions:
REMARK  status: ('A' for Active; 'I' for Inactive)
REMARK    1  A    between atoms: C_2  and  C_3
REMARK    2  A    between atoms: C_3  and  C_4
REMARK    3  A    between atoms: C_6  and  O_7
REMARK    4  A    between atoms: O_7  and  C_8
REMARK    5  A    between atoms: C_9  and  O_11
REMARK    6  A    between atoms: C_12  and  O_13
REMARK    7  A    between atoms: O_13  and  C_14
REMARK    8  A    between atoms: C_15  and  O_16
REMARK    9  A    between atoms: C_18  and  C_20
REMARK   10  A    between atoms: C_21  and  C_23
REMARK                            x       y       z     vdW  Elec       q    Type
REMARK                         _______ _______ _______ _____ _____    ______ ____
ROOT
ATOM      1  C   LIG A   1      -7.693  -0.934 126.571  0.00  0.00    +0.028 C 
ATOM      2  C   LIG A   1      -8.004  -2.143 125.696  0.00  0.00    +0.027 C 
ATOM      3  C   LIG A   1      -8.154  -2.019 124.373  0.00  0.00    +0.125 C 
ATOM      4  C   LIG A   1      -8.057  -0.642 123.733  0.00  0.00    +0.214 C 
ATOM      5  C   LIG A   1      -7.831   0.566 124.721  0.00  0.00    +0.135 C 
ATOM      6  C   LIG A   1      -8.539   0.261 126.062  0.00  0.00    +0.160 C 
ATOM      7  C   LIG A   1      -6.221  -0.447 126.301  0.00  0.00    +0.009 C 
ATOM      8  C   LIG A   1      -5.223  -1.534 125.877  0.00  0.00    +0.009 C 
ATOM      9  C   LIG A   1      -6.342   0.699 125.227  0.00  0.00    +0.060 C 
ENDROOT
BRANCH   9  10
ATOM     10  C   LIG A   1      -5.875   2.028 125.858  0.00  0.00    -0.037 A 
ATOM     11  C   LIG A   1      -5.671   2.206 127.235  0.00  0.00    +0.053 A 
ATOM     12  C   LIG A   1      -5.300   3.446 127.711  0.00  0.00    +0.167 A 
ATOM     13  O   LIG A   1      -5.113   3.757 129.020  0.00  0.00    -0.453 OA
ATOM     14  C   LIG A   1      -4.781   5.154 128.917  0.00  0.00    +0.466 C 
ATOM     15  O   LIG A   1      -4.732   5.634 127.556  0.00  0.00    -0.453 OA
ATOM     16  C   LIG A   1      -5.085   4.510 126.876  0.00  0.00    +0.166 A 
ATOM     17  C   LIG A   1      -5.233   4.390 125.514  0.00  0.00    +0.050 A 
ATOM     18  C   LIG A   1      -5.642   3.145 125.008  0.00  0.00    +0.008 A 
ENDBRANCH   9  10
BRANCH   3  19
ATOM     19  O   LIG A   1      -8.382  -3.039 123.478  0.00  0.00    -0.497 OA
ATOM     20  C   LIG A   1      -9.735  -3.444 123.311  0.00  0.00    +0.276 C 
ENDBRANCH   3  19
BRANCH   4  21
ATOM     21  O   LIG A   1      -7.008  -0.686 122.754  0.00  0.00    -0.381 OA
ATOM     22  H   LIG A   1      -6.494  -1.494 122.953  0.00  0.00    +0.210 HD
ENDBRANCH   4  21
BRANCH   5  23
ATOM     23  O   LIG A   1      -8.422   1.756 124.158  0.00  0.00    -0.370 OA
ATOM     24  C   LIG A   1      -9.344   1.534 123.097  0.00  0.00    +0.195 C 
ENDBRANCH   5  23
BRANCH   6  25
ATOM     25  O   LIG A   1      -9.927  -0.017 125.910  0.00  0.00    -0.388 OA
ATOM     26  H   LIG A   1     -10.045  -0.240 124.966  0.00  0.00    +0.210 HD
ENDBRANCH   6  25
BRANCH   1  27
ATOM     27  C   LIG A   1      -7.983  -1.291 128.051  0.00  0.00    +0.040 C 
BRANCH  27  29
ATOM     28  C   LIG A   1      -7.662  -3.308 129.511  0.00  0.00    +0.004 C 
ATOM     29  C   LIG A   1      -8.099  -2.757 128.376  0.00  0.00    -0.034 C 
ENDBRANCH  27  29
ENDBRANCH   1  27
TORSDOF 7
ENDMDL
MODEL 7
REMARK VINA RESULT:      -7.0      8.875     10.923
REMARK  Name = NuBBE_2297
REMARK  10 active torsions:
REMARK  status: ('A' for Active; 'I' for Inactive)
REMARK    1  A    between atoms: C_2  and  C_3
REMARK    2  A    between atoms: C_3  and  C_4
REMARK    3  A    between atoms: C_6  and  O_7
REMARK    4  A    between atoms: O_7  and  C_8
REMARK    5  A    between atoms: C_9  and  O_11
REMARK    6  A    between atoms: C_12  and  O_13
REMARK    7  A    between atoms: O_13  and  C_14
REMARK    8  A    between atoms: C_15  and  O_16
REMARK    9  A    between atoms: C_18  and  C_20
REMARK   10  A    between atoms: C_21  and  C_23
REMARK                            x       y       z     vdW  Elec       q    Type
REMARK                         _______ _______ _______ _____ _____    ______ ____
ROOT
ATOM      1  C   LIG A   1      -3.860   4.515 132.302  0.00  0.00    +0.028 C 
ATOM      2  C   LIG A   1      -2.403   4.907 132.512  0.00  0.00    +0.027 C 
ATOM      3  C   LIG A   1      -1.895   6.007 131.944  0.00  0.00    +0.125 C 
ATOM      4  C   LIG A   1      -2.771   6.857 131.038  0.00  0.00    +0.214 C 
ATOM      5  C   LIG A   1      -4.237   6.326 130.796  0.00  0.00    +0.135 C 
ATOM      6  C   LIG A   1      -4.223   4.780 130.819  0.00  0.00    +0.160 C 
ATOM      7  C   LIG A   1      -4.798   5.521 133.066  0.00  0.00    +0.009 C 
ATOM      8  C   LIG A   1      -4.209   6.156 134.334  0.00  0.00    +0.009 C 
ATOM      9  C   LIG A   1      -5.217   6.604 132.001  0.00  0.00    +0.060 C 
ENDROOT
BRANCH   9  10
ATOM     10  C   LIG A   1      -6.741   6.517 131.770  0.00  0.00    -0.037 A 
ATOM     11  C   LIG A   1      -7.402   7.148 130.705  0.00  0.00    +0.053 A 
ATOM     12  C   LIG A   1      -8.775   7.053 130.608  0.00  0.00    +0.167 A 
ATOM     13  O   LIG A   1      -9.534   7.650 129.652  0.00  0.00    -0.453 OA
ATOM     14  C   LIG A   1     -10.851   7.238 130.064  0.00  0.00    +0.466 C 
ATOM     15  O   LIG A   1     -10.848   6.374 131.221  0.00  0.00    -0.453 OA
ATOM     16  C   LIG A   1      -9.518   6.328 131.501  0.00  0.00    +0.166 A 
ATOM     17  C   LIG A   1      -8.924   5.657 132.545  0.00  0.00    +0.050 A 
ATOM     18  C   LIG A   1      -7.532   5.765 132.683  0.00  0.00    +0.008 A 
ENDBRANCH   9  10
BRANCH   3  19
ATOM     19  O   LIG A   1      -0.616   6.491 132.103  0.00  0.00    -0.497 OA
ATOM     20  C   LIG A   1      -0.268   6.947 133.404  0.00  0.00    +0.276 C 
ENDBRANCH   3  19
BRANCH   4  21
ATOM     21  O   LIG A   1      -2.808   8.185 131.581  0.00  0.00    -0.381 OA
ATOM     22  H   LIG A   1      -3.286   8.110 132.431  0.00  0.00    +0.210 HD
ENDBRANCH   4  21
BRANCH   5  23
ATOM     23  O   LIG A   1      -4.689   6.755 129.494  0.00  0.00    -0.370 OA
ATOM     24  C   LIG A   1      -3.669   7.237 128.625  0.00  0.00    +0.195 C 
ENDBRANCH   5  23
BRANCH   6  25
ATOM     25  O   LIG A   1      -3.317   4.214 129.876  0.00  0.00    -0.388 OA
ATOM     26  H   LIG A   1      -3.513   3.257 129.871  0.00  0.00    +0.210 HD
ENDBRANCH   6  25
BRANCH   1  27
ATOM     27  C   LIG A   1      -4.050   3.032 132.714  0.00  0.00    +0.040 C 
BRANCH  27  29
ATOM     28  C   LIG A   1      -3.935   2.404 135.142  0.00  0.00    +0.004 C 
ATOM     29  C   LIG A   1      -3.335   2.588 133.963  0.00  0.00    -0.034 C 
ENDBRANCH  27  29
ENDBRANCH   1  27
TORSDOF 7
ENDMDL
MODEL 8
REMARK VINA RESULT:      -6.9      3.259      7.245
REMARK  Name = NuBBE_2297
REMARK  10 active torsions:
REMARK  status: ('A' for Active; 'I' for Inactive)
REMARK    1  A    between atoms: C_2  and  C_3
REMARK    2  A    between atoms: C_3  and  C_4
REMARK    3  A    between atoms: C_6  and  O_7
REMARK    4  A    between atoms: O_7  and  C_8
REMARK    5  A    between atoms: C_9  and  O_11
REMARK    6  A    between atoms: C_12  and  O_13
REMARK    7  A    between atoms: O_13  and  C_14
REMARK    8  A    between atoms: C_15  and  O_16
REMARK    9  A    between atoms: C_18  and  C_20
REMARK   10  A    between atoms: C_21  and  C_23
REMARK                            x       y       z     vdW  Elec       q    Type
REMARK                         _______ _______ _______ _____ _____    ______ ____
ROOT
ATOM      1  C   LIG A   1      -7.687  -0.970 126.207  0.00  0.00    +0.028 C 
ATOM      2  C   LIG A   1      -7.465   0.022 125.071  0.00  0.00    +0.027 C 
ATOM      3  C   LIG A   1      -6.602   1.036 125.197  0.00  0.00    +0.125 C 
ATOM      4  C   LIG A   1      -5.861   1.231 126.511  0.00  0.00    +0.214 C 
ATOM      5  C   LIG A   1      -6.222   0.220 127.666  0.00  0.00    +0.135 C 
ATOM      6  C   LIG A   1      -7.711  -0.180 127.540  0.00  0.00    +0.160 C 
ATOM      7  C   LIG A   1      -6.414  -1.880 126.374  0.00  0.00    +0.009 C 
ATOM      8  C   LIG A   1      -5.602  -2.139 125.096  0.00  0.00    +0.009 C 
ATOM      9  C   LIG A   1      -5.548  -1.198 127.499  0.00  0.00    +0.060 C 
ENDROOT
BRANCH   9  10
ATOM     10  C   LIG A   1      -5.470  -2.145 128.716  0.00  0.00    -0.037 A 
ATOM     11  C   LIG A   1      -4.372  -2.199 129.589  0.00  0.00    +0.053 A 
ATOM     12  C   LIG A   1      -4.373  -3.112 130.622  0.00  0.00    +0.167 A 
ATOM     13  O   LIG A   1      -3.357  -3.292 131.507  0.00  0.00    -0.453 OA
ATOM     14  C   LIG A   1      -3.889  -4.366 132.306  0.00  0.00    +0.466 C 
ATOM     15  O   LIG A   1      -5.219  -4.770 131.915  0.00  0.00    -0.453 OA
ATOM     16  C   LIG A   1      -5.432  -3.951 130.850  0.00  0.00    +0.166 A 
ATOM     17  C   LIG A   1      -6.551  -3.920 130.052  0.00  0.00    +0.050 A 
ATOM     18  C   LIG A   1      -6.561  -3.021 128.974  0.00  0.00    +0.008 A 
ENDBRANCH   9  10
BRANCH   3  19
ATOM     19  O   LIG A   1      -6.279   1.959 124.228  0.00  0.00    -0.497 OA
ATOM     20  C   LIG A   1      -7.216   2.120 123.170  0.00  0.00    +0.276 C 
ENDBRANCH   3  19
BRANCH   4  21
ATOM     21  O   LIG A   1      -4.454   1.185 126.232  0.00  0.00    -0.381 OA
ATOM     22  H   LIG A   1      -4.115   2.081 126.429  0.00  0.00    +0.210 HD
ENDBRANCH   4  21
BRANCH   5  23
ATOM     23  O   LIG A   1      -6.035   0.869 128.941  0.00  0.00    -0.370 OA
ATOM     24  C   LIG A   1      -5.860   2.280 128.885  0.00  0.00    +0.195 C 
ENDBRANCH   5  23
BRANCH   6  25
ATOM     25  O   LIG A   1      -8.592   0.938 127.551  0.00  0.00    -0.388 OA
ATOM     26  H   LIG A   1      -9.353   0.674 126.997  0.00  0.00    +0.210 HD
ENDBRANCH   6  25
BRANCH   1  27
ATOM     27  C   LIG A   1      -8.998  -1.754 125.946  0.00  0.00    +0.040 C 
BRANCH  27  29
ATOM     28  C   LIG A   1      -9.242  -3.314 123.995  0.00  0.00    +0.004 C 
ATOM     29  C   LIG A   1      -8.858  -3.083 125.253  0.00  0.00    -0.034 C 
ENDBRANCH  27  29
ENDBRANCH   1  27
TORSDOF 7
ENDMDL
MODEL 9
REMARK VINA RESULT:      -6.9      2.850      7.042
REMARK  Name = NuBBE_2297
REMARK  10 active torsions:
REMARK  status: ('A' for Active; 'I' for Inactive)
REMARK    1  A    between atoms: C_2  and  C_3
REMARK    2  A    between atoms: C_3  and  C_4
REMARK    3  A    between atoms: C_6  and  O_7
REMARK    4  A    between atoms: O_7  and  C_8
REMARK    5  A    between atoms: C_9  and  O_11
REMARK    6  A    between atoms: C_12  and  O_13
REMARK    7  A    between atoms: O_13  and  C_14
REMARK    8  A    between atoms: C_15  and  O_16
REMARK    9  A    between atoms: C_18  and  C_20
REMARK   10  A    between atoms: C_21  and  C_23
REMARK                            x       y       z     vdW  Elec       q    Type
REMARK                         _______ _______ _______ _____ _____    ______ ____
ROOT
ATOM      1  C   LIG A   1      -6.293   0.327 126.014  0.00  0.00    +0.028 C 
ATOM      2  C   LIG A   1      -7.147   0.918 124.899  0.00  0.00    +0.027 C 
ATOM      3  C   LIG A   1      -8.171   0.234 124.376  0.00  0.00    +0.125 C 
ATOM      4  C   LIG A   1      -8.462  -1.175 124.869  0.00  0.00    +0.214 C 
ATOM      5  C   LIG A   1      -7.469  -1.747 125.954  0.00  0.00    +0.135 C 
ATOM      6  C   LIG A   1      -6.057  -1.171 125.699  0.00  0.00    +0.160 C 
ATOM      7  C   LIG A   1      -7.126   0.267 127.348  0.00  0.00    +0.009 C 
ATOM      8  C   LIG A   1      -8.204   1.348 127.514  0.00  0.00    +0.009 C 
ATOM      9  C   LIG A   1      -7.730  -1.187 127.407  0.00  0.00    +0.060 C 
ENDROOT
BRANCH   9  10
ATOM     10  C   LIG A   1      -7.131  -1.930 128.621  0.00  0.00    -0.037 A 
ATOM     11  C   LIG A   1      -5.753  -2.023 128.872  0.00  0.00    +0.053 A 
ATOM     12  C   LIG A   1      -5.310  -2.750 129.957  0.00  0.00    +0.167 A 
ATOM     13  O   LIG A   1      -4.007  -2.950 130.284  0.00  0.00    -0.453 OA
ATOM     14  C   LIG A   1      -4.151  -3.784 131.450  0.00  0.00    +0.466 C 
ATOM     15  O   LIG A   1      -5.526  -4.025 131.818  0.00  0.00    -0.453 OA
ATOM     16  C   LIG A   1      -6.176  -3.360 130.826  0.00  0.00    +0.166 A 
ATOM     17  C   LIG A   1      -7.538  -3.274 130.653  0.00  0.00    +0.050 A 
ATOM     18  C   LIG A   1      -8.013  -2.566 129.538  0.00  0.00    +0.008 A 
ENDBRANCH   9  10
BRANCH   3  19
ATOM     19  O   LIG A   1      -9.042   0.681 123.408  0.00  0.00    -0.497 OA
ATOM     20  C   LIG A   1      -9.393   2.058 123.459  0.00  0.00    +0.276 C 
ENDBRANCH   3  19
BRANCH   4  21
ATOM     21  O   LIG A   1      -9.808  -1.197 125.367  0.00  0.00    -0.381 OA
ATOM     22  H   LIG A   1      -9.776  -0.748 126.235  0.00  0.00    +0.210 HD
ENDBRANCH   4  21
BRANCH   5  23
ATOM     23  O   LIG A   1      -7.403  -3.183 125.827  0.00  0.00    -0.370 OA
ATOM     24  C   LIG A   1      -7.973  -3.715 124.636  0.00  0.00    +0.195 C 
ENDBRANCH   5  23
BRANCH   6  25
ATOM     25  O   LIG A   1      -5.576  -1.433 124.384  0.00  0.00    -0.388 OA
ATOM     26  H   LIG A   1      -6.211  -2.066 123.997  0.00  0.00    +0.210 HD
ENDBRANCH   6  25
BRANCH   1  27
ATOM     27  C   LIG A   1      -4.975   1.136 126.125  0.00  0.00    +0.040 C 
BRANCH  27  29
ATOM     28  C   LIG A   1      -4.102   3.488 126.189  0.00  0.00    +0.004 C 
ATOM     29  C   LIG A   1      -5.082   2.623 125.918  0.00  0.00    -0.034 C 
ENDBRANCH  27  29
ENDBRANCH   1  27
TORSDOF 7
ENDMDL
