MODEL 1
REMARK VINA RESULT:      -6.4      0.000      0.000
REMARK  Name = NuBBE_2210
REMARK  3 active torsions:
REMARK  status: ('A' for Active; 'I' for Inactive)
REMARK    1  A    between atoms: C_6  and  C_8
REMARK    2  A    between atoms: C_6  and  C_9
REMARK    3  A    between atoms: C_12  and  O_14
REMARK                            x       y       z     vdW  Elec       q    Type
REMARK                         _______ _______ _______ _____ _____    ______ ____
ROOT
ATOM      1  O   LIG A   1     -12.013   6.493 132.189  0.00  0.00    -0.292 OA
ATOM      2  C   LIG A   1     -11.268   6.276 131.242  0.00  0.00    +0.171 C 
ATOM      3  C   LIG A   1     -11.308   7.102 130.022  0.00  0.00    +0.063 A 
ATOM      4  C   LIG A   1     -10.356   6.870 129.027  0.00  0.00    +0.132 A 
ATOM      5  O   LIG A   1      -9.327   5.974 129.139  0.00  0.00    -0.485 OA
ATOM      6  C   LIG A   1      -9.034   5.534 130.480  0.00  0.00    +0.112 C 
ATOM      7  C   LIG A   1     -10.311   5.119 131.211  0.00  0.00    +0.127 C 
ATOM      8  C   LIG A   1      -8.245   6.622 131.232  0.00  0.00    +0.056 C 
ATOM      9  C   LIG A   1      -8.127   4.302 130.337  0.00  0.00    +0.056 C 
ATOM     10  C   LIG A   1     -10.431   7.582 127.828  0.00  0.00    +0.050 A 
ATOM     11  C   LIG A   1     -11.425   8.547 127.647  0.00  0.00    +0.049 A 
ATOM     12  C   LIG A   1     -12.341   8.792 128.668  0.00  0.00    +0.118 A 
ATOM     13  C   LIG A   1     -12.293   8.074 129.857  0.00  0.00    +0.060 A 
ENDROOT
BRANCH  12  14
ATOM     14  O   LIG A   1     -13.316   9.735 128.536  0.00  0.00    -0.507 OA
ATOM     15  H   LIG A   1     -12.968  10.482 128.021  0.00  0.00    +0.292 HD
ENDBRANCH  12  14
TORSDOF 1
ENDMDL
MODEL 2
REMARK VINA RESULT:      -6.2      1.657      3.032
REMARK  Name = NuBBE_2210
REMARK  3 active torsions:
REMARK  status: ('A' for Active; 'I' for Inactive)
REMARK    1  A    between atoms: C_6  and  C_8
REMARK    2  A    between atoms: C_6  and  C_9
REMARK    3  A    between atoms: C_12  and  O_14
REMARK                            x       y       z     vdW  Elec       q    Type
REMARK                         _______ _______ _______ _____ _____    ______ ____
ROOT
ATOM      1  O   LIG A   1      -7.320   6.930 130.332  0.00  0.00    -0.292 OA
ATOM      2  C   LIG A   1      -8.245   6.584 131.055  0.00  0.00    +0.171 C 
ATOM      3  C   LIG A   1      -9.646   6.905 130.725  0.00  0.00    +0.063 A 
ATOM      4  C   LIG A   1     -10.659   6.385 131.534  0.00  0.00    +0.132 A 
ATOM      5  O   LIG A   1     -10.447   5.524 132.577  0.00  0.00    -0.485 OA
ATOM      6  C   LIG A   1      -9.162   4.869 132.586  0.00  0.00    +0.112 C 
ATOM      7  C   LIG A   1      -8.033   5.877 132.363  0.00  0.00    +0.127 C 
ATOM      8  C   LIG A   1      -9.147   3.722 131.559  0.00  0.00    +0.056 C 
ATOM      9  C   LIG A   1      -9.004   4.257 133.986  0.00  0.00    +0.056 C 
ATOM     10  C   LIG A   1     -11.985   6.749 131.291  0.00  0.00    +0.050 A 
ATOM     11  C   LIG A   1     -12.295   7.591 130.219  0.00  0.00    +0.049 A 
ATOM     12  C   LIG A   1     -11.274   8.066 129.399  0.00  0.00    +0.118 A 
ATOM     13  C   LIG A   1      -9.947   7.732 129.645  0.00  0.00    +0.060 A 
ENDROOT
BRANCH  12  14
ATOM     14  O   LIG A   1     -11.537   8.877 128.336  0.00  0.00    -0.507 OA
ATOM     15  H   LIG A   1     -12.402   8.641 127.963  0.00  0.00    +0.292 HD
ENDBRANCH  12  14
TORSDOF 1
ENDMDL
MODEL 3
REMARK VINA RESULT:      -6.0      1.141      2.722
REMARK  Name = NuBBE_2210
REMARK  3 active torsions:
REMARK  status: ('A' for Active; 'I' for Inactive)
REMARK    1  A    between atoms: C_6  and  C_8
REMARK    2  A    between atoms: C_6  and  C_9
REMARK    3  A    between atoms: C_12  and  O_14
REMARK                            x       y       z     vdW  Elec       q    Type
REMARK                         _______ _______ _______ _____ _____    ______ ____
ROOT
ATOM      1  O   LIG A   1      -9.597   6.405 127.797  0.00  0.00    -0.292 OA
ATOM      2  C   LIG A   1      -9.936   6.297 128.969  0.00  0.00    +0.171 C 
ATOM      3  C   LIG A   1     -11.042   7.094 129.529  0.00  0.00    +0.063 A 
ATOM      4  C   LIG A   1     -11.450   6.842 130.841  0.00  0.00    +0.132 A 
ATOM      5  O   LIG A   1     -10.942   5.841 131.626  0.00  0.00    -0.485 OA
ATOM      6  C   LIG A   1     -10.224   4.808 130.923  0.00  0.00    +0.112 C 
ATOM      7  C   LIG A   1      -9.216   5.410 129.943  0.00  0.00    +0.127 C 
ATOM      8  C   LIG A   1     -11.216   3.847 130.240  0.00  0.00    +0.056 C 
ATOM      9  C   LIG A   1      -9.457   4.017 131.993  0.00  0.00    +0.056 C 
ATOM     10  C   LIG A   1     -12.435   7.644 131.419  0.00  0.00    +0.050 A 
ATOM     11  C   LIG A   1     -13.038   8.661 130.674  0.00  0.00    +0.049 A 
ATOM     12  C   LIG A   1     -12.646   8.870 129.353  0.00  0.00    +0.118 A 
ATOM     13  C   LIG A   1     -11.648   8.095 128.773  0.00  0.00    +0.060 A 
ENDROOT
BRANCH  12  14
ATOM     14  O   LIG A   1     -13.218   9.842 128.589  0.00  0.00    -0.507 OA
ATOM     15  H   LIG A   1     -13.211   9.561 127.659  0.00  0.00    +0.292 HD
ENDBRANCH  12  14
TORSDOF 1
ENDMDL
MODEL 4
REMARK VINA RESULT:      -6.0      7.953      9.378
REMARK  Name = NuBBE_2210
REMARK  3 active torsions:
REMARK  status: ('A' for Active; 'I' for Inactive)
REMARK    1  A    between atoms: C_6  and  C_8
REMARK    2  A    between atoms: C_6  and  C_9
REMARK    3  A    between atoms: C_12  and  O_14
REMARK                            x       y       z     vdW  Elec       q    Type
REMARK                         _______ _______ _______ _____ _____    ______ ____
ROOT
ATOM      1  O   LIG A   1      -8.416   2.447 123.179  0.00  0.00    -0.292 OA
ATOM      2  C   LIG A   1      -7.282   2.906 123.241  0.00  0.00    +0.171 C 
ATOM      3  C   LIG A   1      -6.681   3.635 122.110  0.00  0.00    +0.063 A 
ATOM      4  C   LIG A   1      -5.429   4.228 122.287  0.00  0.00    +0.132 A 
ATOM      5  O   LIG A   1      -4.747   4.249 123.474  0.00  0.00    -0.485 OA
ATOM      6  C   LIG A   1      -5.537   3.957 124.645  0.00  0.00    +0.112 C 
ATOM      7  C   LIG A   1      -6.390   2.706 124.432  0.00  0.00    +0.127 C 
ATOM      8  C   LIG A   1      -6.375   5.188 125.037  0.00  0.00    +0.056 C 
ATOM      9  C   LIG A   1      -4.536   3.683 125.777  0.00  0.00    +0.056 C 
ATOM     10  C   LIG A   1      -4.804   4.847 121.202  0.00  0.00    +0.050 A 
ATOM     11  C   LIG A   1      -5.449   4.908 119.964  0.00  0.00    +0.049 A 
ATOM     12  C   LIG A   1      -6.715   4.347 119.818  0.00  0.00    +0.118 A 
ATOM     13  C   LIG A   1      -7.338   3.705 120.883  0.00  0.00    +0.060 A 
ENDROOT
BRANCH  12  14
ATOM     14  O   LIG A   1      -7.382   4.398 118.631  0.00  0.00    -0.507 OA
ATOM     15  H   LIG A   1      -7.273   5.282 118.243  0.00  0.00    +0.292 HD
ENDBRANCH  12  14
TORSDOF 1
ENDMDL
MODEL 5
REMARK VINA RESULT:      -6.0      1.730      4.470
REMARK  Name = NuBBE_2210
REMARK  3 active torsions:
REMARK  status: ('A' for Active; 'I' for Inactive)
REMARK    1  A    between atoms: C_6  and  C_8
REMARK    2  A    between atoms: C_6  and  C_9
REMARK    3  A    between atoms: C_12  and  O_14
REMARK                            x       y       z     vdW  Elec       q    Type
REMARK                         _______ _______ _______ _____ _____    ______ ____
ROOT
ATOM      1  O   LIG A   1     -12.693   6.599 131.702  0.00  0.00    -0.292 OA
ATOM      2  C   LIG A   1     -11.689   6.982 131.116  0.00  0.00    +0.171 C 
ATOM      3  C   LIG A   1     -10.340   6.577 131.550  0.00  0.00    +0.063 A 
ATOM      4  C   LIG A   1      -9.244   6.959 130.771  0.00  0.00    +0.132 A 
ATOM      5  O   LIG A   1      -9.342   7.621 129.577  0.00  0.00    -0.485 OA
ATOM      6  C   LIG A   1     -10.643   7.590 128.958  0.00  0.00    +0.112 C 
ATOM      7  C   LIG A   1     -11.738   7.945 129.964  0.00  0.00    +0.127 C 
ATOM      8  C   LIG A   1     -10.874   6.224 128.284  0.00  0.00    +0.056 C 
ATOM      9  C   LIG A   1     -10.620   8.664 127.859  0.00  0.00    +0.056 C 
ATOM     10  C   LIG A   1      -7.954   6.661 131.211  0.00  0.00    +0.050 A 
ATOM     11  C   LIG A   1      -7.765   5.948 132.399  0.00  0.00    +0.049 A 
ATOM     12  C   LIG A   1      -8.872   5.541 133.140  0.00  0.00    +0.118 A 
ATOM     13  C   LIG A   1     -10.162   5.852 132.727  0.00  0.00    +0.060 A 
ENDROOT
BRANCH  12  14
ATOM     14  O   LIG A   1      -8.730   4.832 134.296  0.00  0.00    -0.507 OA
ATOM     15  H   LIG A   1      -8.484   3.918 134.080  0.00  0.00    +0.292 HD
ENDBRANCH  12  14
TORSDOF 1
ENDMDL
MODEL 6
REMARK VINA RESULT:      -5.8      8.124      9.838
REMARK  Name = NuBBE_2210
REMARK  3 active torsions:
REMARK  status: ('A' for Active; 'I' for Inactive)
REMARK    1  A    between atoms: C_6  and  C_8
REMARK    2  A    between atoms: C_6  and  C_9
REMARK    3  A    between atoms: C_12  and  O_14
REMARK                            x       y       z     vdW  Elec       q    Type
REMARK                         _______ _______ _______ _____ _____    ______ ____
ROOT
ATOM      1  O   LIG A   1     -10.423  -0.476 122.445  0.00  0.00    -0.292 OA
ATOM      2  C   LIG A   1      -9.387  -0.770 123.028  0.00  0.00    +0.171 C 
ATOM      3  C   LIG A   1      -8.516   0.259 123.624  0.00  0.00    +0.063 A 
ATOM      4  C   LIG A   1      -7.409  -0.151 124.370  0.00  0.00    +0.132 A 
ATOM      5  O   LIG A   1      -7.116  -1.458 124.658  0.00  0.00    -0.485 OA
ATOM      6  C   LIG A   1      -8.202  -2.389 124.476  0.00  0.00    +0.112 C 
ATOM      7  C   LIG A   1      -8.881  -2.181 123.122  0.00  0.00    +0.127 C 
ATOM      8  C   LIG A   1      -9.186  -2.289 125.657  0.00  0.00    +0.056 C 
ATOM      9  C   LIG A   1      -7.572  -3.790 124.500  0.00  0.00    +0.056 C 
ATOM     10  C   LIG A   1      -6.524   0.807 124.867  0.00  0.00    +0.050 A 
ATOM     11  C   LIG A   1      -6.771   2.166 124.657  0.00  0.00    +0.049 A 
ATOM     12  C   LIG A   1      -7.903   2.557 123.945  0.00  0.00    +0.118 A 
ATOM     13  C   LIG A   1      -8.780   1.613 123.422  0.00  0.00    +0.060 A 
ENDROOT
BRANCH  12  14
ATOM     14  O   LIG A   1      -8.187   3.872 123.730  0.00  0.00    -0.507 OA
ATOM     15  H   LIG A   1      -7.979   4.095 122.807  0.00  0.00    +0.292 HD
ENDBRANCH  12  14
TORSDOF 1
ENDMDL
MODEL 7
REMARK VINA RESULT:      -5.8      1.999      4.972
REMARK  Name = NuBBE_2210
REMARK  3 active torsions:
REMARK  status: ('A' for Active; 'I' for Inactive)
REMARK    1  A    between atoms: C_6  and  C_8
REMARK    2  A    between atoms: C_6  and  C_9
REMARK    3  A    between atoms: C_12  and  O_14
REMARK                            x       y       z     vdW  Elec       q    Type
REMARK                         _______ _______ _______ _____ _____    ______ ____
ROOT
ATOM      1  O   LIG A   1      -8.880   7.797 129.947  0.00  0.00    -0.292 OA
ATOM      2  C   LIG A   1      -9.804   7.019 129.749  0.00  0.00    +0.171 C 
ATOM      3  C   LIG A   1      -9.786   5.646 130.284  0.00  0.00    +0.063 A 
ATOM      4  C   LIG A   1     -10.919   4.847 130.116  0.00  0.00    +0.132 A 
ATOM      5  O   LIG A   1     -12.090   5.280 129.553  0.00  0.00    -0.485 OA
ATOM      6  C   LIG A   1     -12.243   6.712 129.471  0.00  0.00    +0.112 C 
ATOM      7  C   LIG A   1     -10.988   7.365 128.892  0.00  0.00    +0.127 C 
ATOM      8  C   LIG A   1     -12.629   7.281 130.849  0.00  0.00    +0.056 C 
ATOM      9  C   LIG A   1     -13.415   6.961 128.508  0.00  0.00    +0.056 C 
ATOM     10  C   LIG A   1     -10.889   3.517 130.538  0.00  0.00    +0.050 A 
ATOM     11  C   LIG A   1      -9.749   3.005 131.163  0.00  0.00    +0.049 A 
ATOM     12  C   LIG A   1      -8.643   3.829 131.358  0.00  0.00    +0.118 A 
ATOM     13  C   LIG A   1      -8.649   5.149 130.920  0.00  0.00    +0.060 A 
ENDROOT
BRANCH  12  14
ATOM     14  O   LIG A   1      -7.517   3.372 131.975  0.00  0.00    -0.507 OA
ATOM     15  H   LIG A   1      -7.463   2.409 131.863  0.00  0.00    +0.292 HD
ENDBRANCH  12  14
TORSDOF 1
ENDMDL
MODEL 8
REMARK VINA RESULT:      -5.7      8.682     10.254
REMARK  Name = NuBBE_2210
REMARK  3 active torsions:
REMARK  status: ('A' for Active; 'I' for Inactive)
REMARK    1  A    between atoms: C_6  and  C_8
REMARK    2  A    between atoms: C_6  and  C_9
REMARK    3  A    between atoms: C_12  and  O_14
REMARK                            x       y       z     vdW  Elec       q    Type
REMARK                         _______ _______ _______ _____ _____    ______ ____
ROOT
ATOM      1  O   LIG A   1      -4.430   4.458 122.557  0.00  0.00    -0.292 OA
ATOM      2  C   LIG A   1      -5.614   4.167 122.449  0.00  0.00    +0.171 C 
ATOM      3  C   LIG A   1      -6.319   4.267 121.159  0.00  0.00    +0.063 A 
ATOM      4  C   LIG A   1      -7.639   3.814 121.081  0.00  0.00    +0.132 A 
ATOM      5  O   LIG A   1      -8.305   3.204 122.110  0.00  0.00    -0.485 OA
ATOM      6  C   LIG A   1      -7.473   2.704 123.176  0.00  0.00    +0.112 C 
ATOM      7  C   LIG A   1      -6.461   3.761 123.621  0.00  0.00    +0.127 C 
ATOM      8  C   LIG A   1      -6.805   1.384 122.749  0.00  0.00    +0.056 C 
ATOM      9  C   LIG A   1      -8.417   2.403 124.349  0.00  0.00    +0.056 C 
ATOM     10  C   LIG A   1      -8.351   3.980 119.892  0.00  0.00    +0.050 A 
ATOM     11  C   LIG A   1      -7.733   4.553 118.778  0.00  0.00    +0.049 A 
ATOM     12  C   LIG A   1      -6.403   4.961 118.863  0.00  0.00    +0.118 A 
ATOM     13  C   LIG A   1      -5.689   4.826 120.049  0.00  0.00    +0.060 A 
ENDROOT
BRANCH  12  14
ATOM     14  O   LIG A   1      -5.760   5.513 117.796  0.00  0.00    -0.507 OA
ATOM     15  H   LIG A   1      -4.812   5.312 117.858  0.00  0.00    +0.292 HD
ENDBRANCH  12  14
TORSDOF 1
ENDMDL
MODEL 9
REMARK VINA RESULT:      -5.7      7.794      9.295
REMARK  Name = NuBBE_2210
REMARK  3 active torsions:
REMARK  status: ('A' for Active; 'I' for Inactive)
REMARK    1  A    between atoms: C_6  and  C_8
REMARK    2  A    between atoms: C_6  and  C_9
REMARK    3  A    between atoms: C_12  and  O_14
REMARK                            x       y       z     vdW  Elec       q    Type
REMARK                         _______ _______ _______ _____ _____    ______ ____
ROOT
ATOM      1  O   LIG A   1      -7.599  -0.342 126.782  0.00  0.00    -0.292 OA
ATOM      2  C   LIG A   1      -8.250  -0.561 125.769  0.00  0.00    +0.171 C 
ATOM      3  C   LIG A   1      -8.544   0.504 124.794  0.00  0.00    +0.063 A 
ATOM      4  C   LIG A   1      -9.195   0.162 123.606  0.00  0.00    +0.132 A 
ATOM      5  O   LIG A   1      -9.513  -1.119 123.243  0.00  0.00    -0.485 OA
ATOM      6  C   LIG A   1      -8.816  -2.156 123.964  0.00  0.00    +0.112 C 
ATOM      7  C   LIG A   1      -8.862  -1.900 125.471  0.00  0.00    +0.127 C 
ATOM      8  C   LIG A   1      -7.380  -2.298 123.427  0.00  0.00    +0.056 C 
ATOM      9  C   LIG A   1      -9.568  -3.462 123.665  0.00  0.00    +0.056 C 
ATOM     10  C   LIG A   1      -9.560   1.169 122.710  0.00  0.00    +0.050 A 
ATOM     11  C   LIG A   1      -9.236   2.501 122.982  0.00  0.00    +0.049 A 
ATOM     12  C   LIG A   1      -8.550   2.817 124.153  0.00  0.00    +0.118 A 
ATOM     13  C   LIG A   1      -8.203   1.827 125.066  0.00  0.00    +0.060 A 
ENDROOT
BRANCH  12  14
ATOM     14  O   LIG A   1      -8.204   4.101 124.448  0.00  0.00    -0.507 OA
ATOM     15  H   LIG A   1      -7.503   4.095 125.121  0.00  0.00    +0.292 HD
ENDBRANCH  12  14
TORSDOF 1
ENDMDL
