MODEL 1
REMARK VINA RESULT:      -8.0      0.000      0.000
REMARK  Name = NuBBE_2368
REMARK  5 active torsions:
REMARK  status: ('A' for Active; 'I' for Inactive)
REMARK    1  A    between atoms: C_16  and  C_26
REMARK    2  A    between atoms: C_21  and  C_22
REMARK    3  A    between atoms: N_24  and  C_25
REMARK    4  A    between atoms: C_26  and  O_28
REMARK    5  A    between atoms: O_28  and  C_29
REMARK                            x       y       z     vdW  Elec       q    Type
REMARK                         _______ _______ _______ _____ _____    ______ ____
ROOT
ATOM      1  O   LIG A   1      -7.010   7.632 130.688  0.00  0.00    -0.290 OA
ATOM      2  C   LIG A   1      -7.674   6.602 130.871  0.00  0.00    +0.180 C 
ATOM      3  C   LIG A   1      -9.073   6.572 130.360  0.00  0.00    +0.086 A 
ATOM      4  C   LIG A   1     -10.238   5.759 130.377  0.00  0.00    -0.010 A 
ATOM      5  C   LIG A   1     -11.250   6.473 129.609  0.00  0.00    +0.004 A 
ATOM      6  C   LIG A   1     -10.698   7.662 129.161  0.00  0.00    +0.047 A 
ATOM      7  N   LIG A   1      -9.411   7.686 129.604  0.00  0.00    -0.352 N 
ATOM      8  H   LIG A   1      -8.755   8.439 129.437  0.00  0.00    +0.166 HD
ATOM      9  C   LIG A   1     -11.406   8.611 128.413  0.00  0.00    +0.026 A 
ATOM     10  C   LIG A   1     -12.740   8.334 128.112  0.00  0.00    +0.002 A 
ATOM     11  C   LIG A   1     -13.332   7.151 128.536  0.00  0.00    +0.001 A 
ATOM     12  C   LIG A   1     -12.601   6.215 129.281  0.00  0.00    +0.010 A 
ATOM     13  C   LIG A   1     -10.608   4.437 131.082  0.00  0.00    +0.057 C 
ATOM     14  C   LIG A   1      -9.741   3.144 130.860  0.00  0.00    +0.075 C 
ATOM     15  C   LIG A   1      -8.266   3.469 130.606  0.00  0.00    +0.123 C 
ATOM     16  C   LIG A   1      -7.865   4.296 131.849  0.00  0.00    +0.039 C 
ATOM     17  C   LIG A   1      -6.952   5.457 131.588  0.00  0.00    +0.090 C 
ATOM     18  C   LIG A   1      -7.756   3.300 132.987  0.00  0.00    -0.055 C 
ATOM     19  C   LIG A   1      -6.687   3.012 133.752  0.00  0.00    -0.030 C 
ATOM     20  C   LIG A   1      -5.301   3.556 133.640  0.00  0.00    +0.035 C 
ATOM     21  C   LIG A   1      -9.125   2.658 133.248  0.00  0.00    +0.115 C 
ATOM     22  N   LIG A   1      -9.861   2.215 132.038  0.00  0.00    -0.297 NA
ATOM     23  C   LIG A   1      -9.489   0.838 131.696  0.00  0.00    +0.105 C 
ENDROOT
BRANCH  15  24
ATOM     24  C   LIG A   1      -7.971   3.998 129.197  0.00  0.00    +0.312 C 
ATOM     25  O   LIG A   1      -8.841   4.198 128.363  0.00  0.00    -0.251 OA
BRANCH  24  26
ATOM     26  O   LIG A   1      -6.652   4.263 129.009  0.00  0.00    -0.468 OA
ATOM     27  C   LIG A   1      -6.136   4.109 127.683  0.00  0.00    +0.280 C 
ENDBRANCH  24  26
ENDBRANCH  15  24
TORSDOF 2
ENDMDL
MODEL 2
REMARK VINA RESULT:      -7.7      4.648      7.215
REMARK  Name = NuBBE_2368
REMARK  5 active torsions:
REMARK  status: ('A' for Active; 'I' for Inactive)
REMARK    1  A    between atoms: C_16  and  C_26
REMARK    2  A    between atoms: C_21  and  C_22
REMARK    3  A    between atoms: N_24  and  C_25
REMARK    4  A    between atoms: C_26  and  O_28
REMARK    5  A    between atoms: O_28  and  C_29
REMARK                            x       y       z     vdW  Elec       q    Type
REMARK                         _______ _______ _______ _____ _____    ______ ____
ROOT
ATOM      1  O   LIG A   1      -5.475  -0.629 125.338  0.00  0.00    -0.290 OA
ATOM      2  C   LIG A   1      -5.844  -0.394 126.497  0.00  0.00    +0.180 C 
ATOM      3  C   LIG A   1      -5.222   0.758 127.209  0.00  0.00    +0.086 A 
ATOM      4  C   LIG A   1      -5.188   1.380 128.486  0.00  0.00    -0.010 A 
ATOM      5  C   LIG A   1      -4.283   2.516 128.367  0.00  0.00    +0.004 A 
ATOM      6  C   LIG A   1      -3.803   2.556 127.067  0.00  0.00    +0.047 A 
ATOM      7  N   LIG A   1      -4.385   1.520 126.404  0.00  0.00    -0.352 N 
ATOM      8  H   LIG A   1      -4.222   1.289 125.432  0.00  0.00    +0.166 HD
ATOM      9  C   LIG A   1      -2.883   3.508 126.610  0.00  0.00    +0.026 A 
ATOM     10  C   LIG A   1      -2.429   4.460 127.523  0.00  0.00    +0.002 A 
ATOM     11  C   LIG A   1      -2.888   4.460 128.835  0.00  0.00    +0.001 A 
ATOM     12  C   LIG A   1      -3.812   3.499 129.267  0.00  0.00    +0.010 A 
ATOM     13  C   LIG A   1      -5.799   1.033 129.859  0.00  0.00    +0.057 C 
ATOM     14  C   LIG A   1      -7.352   0.852 130.019  0.00  0.00    +0.075 C 
ATOM     15  C   LIG A   1      -8.008   0.303 128.748  0.00  0.00    +0.123 C 
ATOM     16  C   LIG A   1      -7.240  -1.013 128.492  0.00  0.00    +0.039 C 
ATOM     17  C   LIG A   1      -6.932  -1.315 127.055  0.00  0.00    +0.090 C 
ATOM     18  C   LIG A   1      -7.746  -1.994 129.532  0.00  0.00    -0.055 C 
ATOM     19  C   LIG A   1      -8.354  -3.179 129.345  0.00  0.00    -0.030 C 
ATOM     20  C   LIG A   1      -8.749  -3.816 128.054  0.00  0.00    +0.035 C 
ATOM     21  C   LIG A   1      -7.393  -1.487 130.938  0.00  0.00    +0.115 C 
ATOM     22  N   LIG A   1      -7.666  -0.048 131.183  0.00  0.00    -0.297 NA
ATOM     23  C   LIG A   1      -9.040   0.130 131.666  0.00  0.00    +0.105 C 
ENDROOT
BRANCH  15  24
ATOM     24  C   LIG A   1      -8.169   1.336 127.626  0.00  0.00    +0.312 C 
ATOM     25  O   LIG A   1      -8.528   1.044 126.495  0.00  0.00    -0.251 OA
BRANCH  24  26
ATOM     26  O   LIG A   1      -7.920   2.602 128.049  0.00  0.00    -0.468 OA
ATOM     27  C   LIG A   1      -7.669   3.591 127.044  0.00  0.00    +0.280 C 
ENDBRANCH  24  26
ENDBRANCH  15  24
TORSDOF 2
ENDMDL
MODEL 3
REMARK VINA RESULT:      -7.6      5.534      7.605
REMARK  Name = NuBBE_2368
REMARK  5 active torsions:
REMARK  status: ('A' for Active; 'I' for Inactive)
REMARK    1  A    between atoms: C_16  and  C_26
REMARK    2  A    between atoms: C_21  and  C_22
REMARK    3  A    between atoms: N_24  and  C_25
REMARK    4  A    between atoms: C_26  and  O_28
REMARK    5  A    between atoms: O_28  and  C_29
REMARK                            x       y       z     vdW  Elec       q    Type
REMARK                         _______ _______ _______ _____ _____    ______ ____
ROOT
ATOM      1  O   LIG A   1      -8.641   2.080 127.608  0.00  0.00    -0.290 OA
ATOM      2  C   LIG A   1      -8.320   0.926 127.924  0.00  0.00    +0.180 C 
ATOM      3  C   LIG A   1      -8.433  -0.140 126.889  0.00  0.00    +0.086 A 
ATOM      4  C   LIG A   1      -8.311  -1.547 126.734  0.00  0.00    -0.010 A 
ATOM      5  C   LIG A   1      -8.603  -1.834 125.336  0.00  0.00    +0.004 A 
ATOM      6  C   LIG A   1      -8.886  -0.638 124.695  0.00  0.00    +0.047 A 
ATOM      7  N   LIG A   1      -8.763   0.343 125.630  0.00  0.00    -0.352 N 
ATOM      8  H   LIG A   1      -8.916   1.329 125.458  0.00  0.00    +0.166 HD
ATOM      9  C   LIG A   1      -9.240  -0.549 123.344  0.00  0.00    +0.026 A 
ATOM     10  C   LIG A   1      -9.311  -1.735 122.613  0.00  0.00    +0.002 A 
ATOM     11  C   LIG A   1      -9.029  -2.957 123.213  0.00  0.00    +0.001 A 
ATOM     12  C   LIG A   1      -8.674  -3.019 124.568  0.00  0.00    +0.010 A 
ATOM     13  C   LIG A   1      -8.054  -2.711 127.714  0.00  0.00    +0.057 C 
ATOM     14  C   LIG A   1      -6.765  -2.726 128.614  0.00  0.00    +0.075 C 
ATOM     15  C   LIG A   1      -6.301  -1.315 128.990  0.00  0.00    +0.123 C 
ATOM     16  C   LIG A   1      -7.544  -0.702 129.673  0.00  0.00    +0.039 C 
ATOM     17  C   LIG A   1      -7.813   0.739 129.357  0.00  0.00    +0.090 C 
ATOM     18  C   LIG A   1      -7.629  -1.358 131.038  0.00  0.00    -0.055 C 
ATOM     19  C   LIG A   1      -7.594  -0.779 132.252  0.00  0.00    -0.030 C 
ATOM     20  C   LIG A   1      -7.399   0.664 132.578  0.00  0.00    +0.035 C 
ATOM     21  C   LIG A   1      -7.855  -2.868 130.875  0.00  0.00    +0.115 C 
ATOM     22  N   LIG A   1      -6.998  -3.534 129.862  0.00  0.00    -0.297 NA
ATOM     23  C   LIG A   1      -5.741  -3.977 130.477  0.00  0.00    +0.105 C 
ENDROOT
BRANCH  15  24
ATOM     24  C   LIG A   1      -5.591  -0.564 127.857  0.00  0.00    +0.312 C 
ATOM     25  O   LIG A   1      -5.286   0.617 127.927  0.00  0.00    -0.251 OA
BRANCH  24  26
ATOM     26  O   LIG A   1      -5.299  -1.370 126.804  0.00  0.00    -0.468 OA
ATOM     27  C   LIG A   1      -5.136  -0.746 125.526  0.00  0.00    +0.280 C 
ENDBRANCH  24  26
ENDBRANCH  15  24
TORSDOF 2
ENDMDL
MODEL 4
REMARK VINA RESULT:      -7.5      5.136      8.083
REMARK  Name = NuBBE_2368
REMARK  5 active torsions:
REMARK  status: ('A' for Active; 'I' for Inactive)
REMARK    1  A    between atoms: C_16  and  C_26
REMARK    2  A    between atoms: C_21  and  C_22
REMARK    3  A    between atoms: N_24  and  C_25
REMARK    4  A    between atoms: C_26  and  O_28
REMARK    5  A    between atoms: O_28  and  C_29
REMARK                            x       y       z     vdW  Elec       q    Type
REMARK                         _______ _______ _______ _____ _____    ______ ____
ROOT
ATOM      1  O   LIG A   1      -8.414   4.587 125.097  0.00  0.00    -0.290 OA
ATOM      2  C   LIG A   1      -7.883   3.468 125.133  0.00  0.00    +0.180 C 
ATOM      3  C   LIG A   1      -6.521   3.358 125.726  0.00  0.00    +0.086 A 
ATOM      4  C   LIG A   1      -5.473   2.419 125.920  0.00  0.00    -0.010 A 
ATOM      5  C   LIG A   1      -4.407   3.128 126.615  0.00  0.00    +0.004 A 
ATOM      6  C   LIG A   1      -4.816   4.437 126.820  0.00  0.00    +0.047 A 
ATOM      7  N   LIG A   1      -6.070   4.539 126.302  0.00  0.00    -0.352 N 
ATOM      8  H   LIG A   1      -6.628   5.384 126.297  0.00  0.00    +0.166 HD
ATOM      9  C   LIG A   1      -4.021   5.409 127.438  0.00  0.00    +0.026 A 
ATOM     10  C   LIG A   1      -2.747   5.029 127.864  0.00  0.00    +0.002 A 
ATOM     11  C   LIG A   1      -2.298   3.726 127.684  0.00  0.00    +0.001 A 
ATOM     12  C   LIG A   1      -3.115   2.770 127.065  0.00  0.00    +0.010 A 
ATOM     13  C   LIG A   1      -5.251   0.959 125.473  0.00  0.00    +0.057 C 
ATOM     14  C   LIG A   1      -6.288  -0.159 125.857  0.00  0.00    +0.075 C 
ATOM     15  C   LIG A   1      -7.717   0.383 125.961  0.00  0.00    +0.123 C 
ATOM     16  C   LIG A   1      -7.957   1.020 124.574  0.00  0.00    +0.039 C 
ATOM     17  C   LIG A   1      -8.720   2.312 124.578  0.00  0.00    +0.090 C 
ATOM     18  C   LIG A   1      -8.150  -0.140 123.617  0.00  0.00    -0.055 C 
ATOM     19  C   LIG A   1      -9.217  -0.426 122.847  0.00  0.00    -0.030 C 
ATOM     20  C   LIG A   1     -10.523   0.294 122.780  0.00  0.00    +0.035 C 
ATOM     21  C   LIG A   1      -6.867  -0.980 123.553  0.00  0.00    +0.115 C 
ATOM     22  N   LIG A   1      -6.244  -1.289 124.864  0.00  0.00    -0.297 NA
ATOM     23  C   LIG A   1      -6.806  -2.529 125.411  0.00  0.00    +0.105 C 
ENDROOT
BRANCH  15  24
ATOM     24  C   LIG A   1      -7.995   1.183 127.239  0.00  0.00    +0.312 C 
ATOM     25  O   LIG A   1      -9.013   1.837 127.411  0.00  0.00    -0.251 OA
BRANCH  24  26
ATOM     26  O   LIG A   1      -7.012   1.037 128.166  0.00  0.00    -0.468 OA
ATOM     27  C   LIG A   1      -6.973   1.988 129.235  0.00  0.00    +0.280 C 
ENDBRANCH  24  26
ENDBRANCH  15  24
TORSDOF 2
ENDMDL
MODEL 5
REMARK VINA RESULT:      -7.3      4.870      7.701
REMARK  Name = NuBBE_2368
REMARK  5 active torsions:
REMARK  status: ('A' for Active; 'I' for Inactive)
REMARK    1  A    between atoms: C_16  and  C_26
REMARK    2  A    between atoms: C_21  and  C_22
REMARK    3  A    between atoms: N_24  and  C_25
REMARK    4  A    between atoms: C_26  and  O_28
REMARK    5  A    between atoms: O_28  and  C_29
REMARK                            x       y       z     vdW  Elec       q    Type
REMARK                         _______ _______ _______ _____ _____    ______ ____
ROOT
ATOM      1  O   LIG A   1      -9.153   1.951 126.093  0.00  0.00    -0.290 OA
ATOM      2  C   LIG A   1      -8.502   1.216 126.848  0.00  0.00    +0.180 C 
ATOM      3  C   LIG A   1      -7.672   0.142 126.234  0.00  0.00    +0.086 A 
ATOM      4  C   LIG A   1      -6.866  -0.972 126.592  0.00  0.00    -0.010 A 
ATOM      5  C   LIG A   1      -6.385  -1.550 125.344  0.00  0.00    +0.004 A 
ATOM      6  C   LIG A   1      -6.893  -0.802 124.293  0.00  0.00    +0.047 A 
ATOM      7  N   LIG A   1      -7.633   0.196 124.847  0.00  0.00    -0.352 N 
ATOM      8  H   LIG A   1      -8.136   0.903 124.325  0.00  0.00    +0.166 HD
ATOM      9  C   LIG A   1      -6.653  -1.098 122.946  0.00  0.00    +0.026 A 
ATOM     10  C   LIG A   1      -5.861  -2.210 122.657  0.00  0.00    +0.002 A 
ATOM     11  C   LIG A   1      -5.326  -2.985 123.680  0.00  0.00    +0.001 A 
ATOM     12  C   LIG A   1      -5.578  -2.666 125.021  0.00  0.00    +0.010 A 
ATOM     13  C   LIG A   1      -6.534  -1.664 127.930  0.00  0.00    +0.057 C 
ATOM     14  C   LIG A   1      -5.886  -0.850 129.110  0.00  0.00    +0.075 C 
ATOM     15  C   LIG A   1      -6.326   0.617 129.115  0.00  0.00    +0.123 C 
ATOM     16  C   LIG A   1      -7.867   0.526 129.179  0.00  0.00    +0.039 C 
ATOM     17  C   LIG A   1      -8.610   1.527 128.344  0.00  0.00    +0.090 C 
ATOM     18  C   LIG A   1      -8.196   0.115 130.600  0.00  0.00    -0.055 C 
ATOM     19  C   LIG A   1      -8.937   0.768 131.514  0.00  0.00    -0.030 C 
ATOM     20  C   LIG A   1      -9.582   2.108 131.388  0.00  0.00    +0.035 C 
ATOM     21  C   LIG A   1      -7.612  -1.275 130.887  0.00  0.00    +0.115 C 
ATOM     22  N   LIG A   1      -6.214  -1.484 130.435  0.00  0.00    -0.297 NA
ATOM     23  C   LIG A   1      -5.277  -1.078 131.489  0.00  0.00    +0.105 C 
ENDROOT
BRANCH  15  24
ATOM     24  C   LIG A   1      -5.645   1.481 128.047  0.00  0.00    +0.312 C 
ATOM     25  O   LIG A   1      -4.885   1.028 127.204  0.00  0.00    -0.251 OA
BRANCH  24  26
ATOM     26  O   LIG A   1      -6.024   2.784 128.116  0.00  0.00    -0.468 OA
ATOM     27  C   LIG A   1      -5.672   3.628 127.015  0.00  0.00    +0.280 C 
ENDBRANCH  24  26
ENDBRANCH  15  24
TORSDOF 2
ENDMDL
MODEL 6
REMARK VINA RESULT:      -7.2      4.398      7.452
REMARK  Name = NuBBE_2368
REMARK  5 active torsions:
REMARK  status: ('A' for Active; 'I' for Inactive)
REMARK    1  A    between atoms: C_16  and  C_26
REMARK    2  A    between atoms: C_21  and  C_22
REMARK    3  A    between atoms: N_24  and  C_25
REMARK    4  A    between atoms: C_26  and  O_28
REMARK    5  A    between atoms: O_28  and  C_29
REMARK                            x       y       z     vdW  Elec       q    Type
REMARK                         _______ _______ _______ _____ _____    ______ ____
ROOT
ATOM      1  O   LIG A   1      -8.296   1.003 125.324  0.00  0.00    -0.290 OA
ATOM      2  C   LIG A   1      -7.332   1.721 125.624  0.00  0.00    +0.180 C 
ATOM      3  C   LIG A   1      -6.712   2.545 124.549  0.00  0.00    +0.086 A 
ATOM      4  C   LIG A   1      -5.606   3.405 124.315  0.00  0.00    -0.010 A 
ATOM      5  C   LIG A   1      -5.700   3.829 122.925  0.00  0.00    +0.004 A 
ATOM      6  C   LIG A   1      -6.821   3.237 122.364  0.00  0.00    +0.047 A 
ATOM      7  N   LIG A   1      -7.407   2.501 123.347  0.00  0.00    -0.352 N 
ATOM      8  H   LIG A   1      -8.246   1.946 123.234  0.00  0.00    +0.166 HD
ATOM      9  C   LIG A   1      -7.199   3.406 121.026  0.00  0.00    +0.026 A 
ATOM     10  C   LIG A   1      -6.393   4.214 120.223  0.00  0.00    +0.002 A 
ATOM     11  C   LIG A   1      -5.263   4.832 120.745  0.00  0.00    +0.001 A 
ATOM     12  C   LIG A   1      -4.908   4.649 122.089  0.00  0.00    +0.010 A 
ATOM     13  C   LIG A   1      -4.392   3.837 125.163  0.00  0.00    +0.057 C 
ATOM     14  C   LIG A   1      -4.599   4.528 126.560  0.00  0.00    +0.075 C 
ATOM     15  C   LIG A   1      -5.870   4.045 127.266  0.00  0.00    +0.123 C 
ATOM     16  C   LIG A   1      -5.676   2.514 127.338  0.00  0.00    +0.039 C 
ATOM     17  C   LIG A   1      -6.907   1.692 127.095  0.00  0.00    +0.090 C 
ATOM     18  C   LIG A   1      -4.634   2.282 128.416  0.00  0.00    -0.055 C 
ATOM     19  C   LIG A   1      -4.747   1.577 129.556  0.00  0.00    -0.030 C 
ATOM     20  C   LIG A   1      -5.955   0.884 130.094  0.00  0.00    +0.035 C 
ATOM     21  C   LIG A   1      -3.304   2.924 127.999  0.00  0.00    +0.115 C 
ATOM     22  N   LIG A   1      -3.406   4.300 127.449  0.00  0.00    -0.297 NA
ATOM     23  C   LIG A   1      -3.328   5.284 128.534  0.00  0.00    +0.105 C 
ENDROOT
BRANCH  15  24
ATOM     24  C   LIG A   1      -7.167   4.634 126.699  0.00  0.00    +0.312 C 
ATOM     25  O   LIG A   1      -7.203   5.333 125.697  0.00  0.00    -0.251 OA
BRANCH  24  26
ATOM     26  O   LIG A   1      -8.263   4.247 127.403  0.00  0.00    -0.468 OA
ATOM     27  C   LIG A   1      -8.302   4.587 128.793  0.00  0.00    +0.280 C 
ENDBRANCH  24  26
ENDBRANCH  15  24
TORSDOF 2
ENDMDL
MODEL 7
REMARK VINA RESULT:      -7.1      6.304      9.480
REMARK  Name = NuBBE_2368
REMARK  5 active torsions:
REMARK  status: ('A' for Active; 'I' for Inactive)
REMARK    1  A    between atoms: C_16  and  C_26
REMARK    2  A    between atoms: C_21  and  C_22
REMARK    3  A    between atoms: N_24  and  C_25
REMARK    4  A    between atoms: C_26  and  O_28
REMARK    5  A    between atoms: O_28  and  C_29
REMARK                            x       y       z     vdW  Elec       q    Type
REMARK                         _______ _______ _______ _____ _____    ______ ____
ROOT
ATOM      1  O   LIG A   1      -9.413  -3.274 125.889  0.00  0.00    -0.290 OA
ATOM      2  C   LIG A   1      -8.858  -2.171 125.996  0.00  0.00    +0.180 C 
ATOM      3  C   LIG A   1      -8.054  -1.908 127.222  0.00  0.00    +0.086 A 
ATOM      4  C   LIG A   1      -7.341  -0.867 127.874  0.00  0.00    -0.010 A 
ATOM      5  C   LIG A   1      -6.812  -1.438 129.106  0.00  0.00    +0.004 A 
ATOM      6  C   LIG A   1      -7.203  -2.766 129.174  0.00  0.00    +0.047 A 
ATOM      7  N   LIG A   1      -7.919  -3.020 128.044  0.00  0.00    -0.352 N 
ATOM      8  H   LIG A   1      -8.343  -3.910 127.815  0.00  0.00    +0.166 HD
ATOM      9  C   LIG A   1      -6.891  -3.611 130.245  0.00  0.00    +0.026 A 
ATOM     10  C   LIG A   1      -6.149  -3.075 131.298  0.00  0.00    +0.002 A 
ATOM     11  C   LIG A   1      -5.731  -1.750 131.269  0.00  0.00    +0.001 A 
ATOM     12  C   LIG A   1      -6.053  -0.925 130.183  0.00  0.00    +0.010 A 
ATOM     13  C   LIG A   1      -7.141   0.635 127.582  0.00  0.00    +0.057 C 
ATOM     14  C   LIG A   1      -6.527   1.107 126.214  0.00  0.00    +0.075 C 
ATOM     15  C   LIG A   1      -6.878   0.161 125.061  0.00  0.00    +0.123 C 
ATOM     16  C   LIG A   1      -8.423   0.130 125.085  0.00  0.00    +0.039 C 
ATOM     17  C   LIG A   1      -9.048  -1.208 124.821  0.00  0.00    +0.090 C 
ATOM     18  C   LIG A   1      -8.870   1.463 124.520  0.00  0.00    -0.055 C 
ATOM     19  C   LIG A   1      -9.631   1.704 123.436  0.00  0.00    -0.030 C 
ATOM     20  C   LIG A   1     -10.186   0.717 122.464  0.00  0.00    +0.035 C 
ATOM     21  C   LIG A   1      -8.390   2.601 125.431  0.00  0.00    +0.115 C 
ATOM     22  N   LIG A   1      -6.979   2.503 125.882  0.00  0.00    -0.297 NA
ATOM     23  C   LIG A   1      -6.093   3.156 124.912  0.00  0.00    +0.105 C 
ENDROOT
BRANCH  15  24
ATOM     24  C   LIG A   1      -6.078  -1.147 125.054  0.00  0.00    +0.312 C 
ATOM     25  O   LIG A   1      -5.286  -1.451 125.933  0.00  0.00    -0.251 OA
BRANCH  24  26
ATOM     26  O   LIG A   1      -6.389  -1.938 123.995  0.00  0.00    -0.468 OA
ATOM     27  C   LIG A   1      -5.852  -3.265 123.988  0.00  0.00    +0.280 C 
ENDBRANCH  24  26
ENDBRANCH  15  24
TORSDOF 2
ENDMDL
MODEL 8
REMARK VINA RESULT:      -7.1      2.913      4.533
REMARK  Name = NuBBE_2368
REMARK  5 active torsions:
REMARK  status: ('A' for Active; 'I' for Inactive)
REMARK    1  A    between atoms: C_16  and  C_26
REMARK    2  A    between atoms: C_21  and  C_22
REMARK    3  A    between atoms: N_24  and  C_25
REMARK    4  A    between atoms: C_26  and  O_28
REMARK    5  A    between atoms: O_28  and  C_29
REMARK                            x       y       z     vdW  Elec       q    Type
REMARK                         _______ _______ _______ _____ _____    ______ ____
ROOT
ATOM      1  O   LIG A   1      -4.814   7.972 129.797  0.00  0.00    -0.290 OA
ATOM      2  C   LIG A   1      -4.878   7.259 130.809  0.00  0.00    +0.180 C 
ATOM      3  C   LIG A   1      -6.227   6.857 131.296  0.00  0.00    +0.086 A 
ATOM      4  C   LIG A   1      -6.857   6.187 132.380  0.00  0.00    -0.010 A 
ATOM      5  C   LIG A   1      -8.288   6.217 132.108  0.00  0.00    +0.004 A 
ATOM      6  C   LIG A   1      -8.489   6.883 130.909  0.00  0.00    +0.047 A 
ATOM      7  N   LIG A   1      -7.259   7.233 130.445  0.00  0.00    -0.352 N 
ATOM      8  H   LIG A   1      -7.086   7.740 129.586  0.00  0.00    +0.166 HD
ATOM      9  C   LIG A   1      -9.755   7.120 130.358  0.00  0.00    +0.026 A 
ATOM     10  C   LIG A   1     -10.866   6.660 131.066  0.00  0.00    +0.002 A 
ATOM     11  C   LIG A   1     -10.709   5.983 132.270  0.00  0.00    +0.001 A 
ATOM     12  C   LIG A   1      -9.431   5.755 132.798  0.00  0.00    +0.010 A 
ATOM     13  C   LIG A   1      -6.345   5.589 133.707  0.00  0.00    +0.057 C 
ATOM     14  C   LIG A   1      -5.229   4.482 133.705  0.00  0.00    +0.075 C 
ATOM     15  C   LIG A   1      -4.258   4.636 132.530  0.00  0.00    +0.123 C 
ATOM     16  C   LIG A   1      -3.722   6.075 132.699  0.00  0.00    +0.039 C 
ATOM     17  C   LIG A   1      -3.539   6.851 131.428  0.00  0.00    +0.090 C 
ATOM     18  C   LIG A   1      -2.761   6.022 133.871  0.00  0.00    -0.055 C 
ATOM     19  C   LIG A   1      -1.450   6.324 133.897  0.00  0.00    -0.030 C 
ATOM     20  C   LIG A   1      -0.577   6.733 132.758  0.00  0.00    +0.035 C 
ATOM     21  C   LIG A   1      -3.520   5.631 135.146  0.00  0.00    +0.115 C 
ATOM     22  N   LIG A   1      -4.465   4.495 135.002  0.00  0.00    -0.297 NA
ATOM     23  C   LIG A   1      -3.771   3.226 135.248  0.00  0.00    +0.105 C 
ENDROOT
BRANCH  15  24
ATOM     24  C   LIG A   1      -4.822   4.173 131.182  0.00  0.00    +0.312 C 
ATOM     25  O   LIG A   1      -5.957   3.741 131.045  0.00  0.00    -0.251 OA
BRANCH  24  26
ATOM     26  O   LIG A   1      -3.941   4.349 130.164  0.00  0.00    -0.468 OA
ATOM     27  C   LIG A   1      -4.404   4.064 128.840  0.00  0.00    +0.280 C 
ENDBRANCH  24  26
ENDBRANCH  15  24
TORSDOF 2
ENDMDL
MODEL 9
REMARK VINA RESULT:      -7.1      5.101      8.239
REMARK  Name = NuBBE_2368
REMARK  5 active torsions:
REMARK  status: ('A' for Active; 'I' for Inactive)
REMARK    1  A    between atoms: C_16  and  C_26
REMARK    2  A    between atoms: C_21  and  C_22
REMARK    3  A    between atoms: N_24  and  C_25
REMARK    4  A    between atoms: C_26  and  O_28
REMARK    5  A    between atoms: O_28  and  C_29
REMARK                            x       y       z     vdW  Elec       q    Type
REMARK                         _______ _______ _______ _____ _____    ______ ____
ROOT
ATOM      1  O   LIG A   1      -5.551  -1.291 128.269  0.00  0.00    -0.290 OA
ATOM      2  C   LIG A   1      -5.799  -0.347 127.505  0.00  0.00    +0.180 C 
ATOM      3  C   LIG A   1      -6.663  -0.616 126.321  0.00  0.00    +0.086 A 
ATOM      4  C   LIG A   1      -7.153   0.014 125.145  0.00  0.00    -0.010 A 
ATOM      5  C   LIG A   1      -7.978  -0.974 124.462  0.00  0.00    +0.004 A 
ATOM      6  C   LIG A   1      -7.970  -2.141 125.210  0.00  0.00    +0.047 A 
ATOM      7  N   LIG A   1      -7.202  -1.896 126.306  0.00  0.00    -0.352 N 
ATOM      8  H   LIG A   1      -7.004  -2.568 127.037  0.00  0.00    +0.166 HD
ATOM      9  C   LIG A   1      -8.639  -3.310 124.829  0.00  0.00    +0.026 A 
ATOM     10  C   LIG A   1      -9.348  -3.288 123.627  0.00  0.00    +0.002 A 
ATOM     11  C   LIG A   1      -9.387  -2.137 122.848  0.00  0.00    +0.001 A 
ATOM     12  C   LIG A   1      -8.711  -0.979 123.253  0.00  0.00    +0.010 A 
ATOM     13  C   LIG A   1      -6.902   1.385 124.485  0.00  0.00    +0.057 C 
ATOM     14  C   LIG A   1      -7.174   2.715 125.278  0.00  0.00    +0.075 C 
ATOM     15  C   LIG A   1      -6.936   2.554 126.783  0.00  0.00    +0.123 C 
ATOM     16  C   LIG A   1      -5.474   2.058 126.860  0.00  0.00    +0.039 C 
ATOM     17  C   LIG A   1      -5.200   1.007 127.894  0.00  0.00    +0.090 C 
ATOM     18  C   LIG A   1      -4.613   3.268 126.552  0.00  0.00    -0.055 C 
ATOM     19  C   LIG A   1      -3.675   3.850 127.322  0.00  0.00    -0.030 C 
ATOM     20  C   LIG A   1      -3.278   3.493 128.716  0.00  0.00    +0.035 C 
ATOM     21  C   LIG A   1      -4.890   3.752 125.122  0.00  0.00    +0.115 C 
ATOM     22  N   LIG A   1      -6.323   3.836 124.745  0.00  0.00    -0.297 NA
ATOM     23  C   LIG A   1      -6.862   5.155 125.097  0.00  0.00    +0.105 C 
ENDROOT
BRANCH  15  24
ATOM     24  C   LIG A   1      -8.049   1.799 127.519  0.00  0.00    +0.312 C 
ATOM     25  O   LIG A   1      -9.037   1.351 126.959  0.00  0.00    -0.251 OA
BRANCH  24  26
ATOM     26  O   LIG A   1      -7.781   1.644 128.842  0.00  0.00    -0.468 OA
ATOM     27  C   LIG A   1      -8.321   2.622 129.738  0.00  0.00    +0.280 C 
ENDBRANCH  24  26
ENDBRANCH  15  24
TORSDOF 2
ENDMDL
