MODEL 1
REMARK VINA RESULT:      -6.8      0.000      0.000
REMARK  Name = NuBBE_2202
REMARK  2 active torsions:
REMARK  status: ('A' for Active; 'I' for Inactive)
REMARK    1  A    between atoms: C_9  and  O_12
REMARK    2  A    between atoms: O_12  and  C_13
REMARK                            x       y       z     vdW  Elec       q    Type
REMARK                         _______ _______ _______ _____ _____    ______ ____
ROOT
ATOM      1  O   LIG A   1      -6.427   0.889 126.986  0.00  0.00    -0.267 OA
ATOM      2  C   LIG A   1      -6.883   0.331 126.000  0.00  0.00    +0.256 A 
ATOM      3  N   LIG A   1      -7.557  -0.898 126.091  0.00  0.00    -0.274 N 
ATOM      4  C   LIG A   1      -8.062  -1.505 124.967  0.00  0.00    +0.083 A 
ATOM      5  C   LIG A   1      -8.676  -2.692 125.299  0.00  0.00    +0.011 A 
ATOM      6  C   LIG A   1      -8.541  -2.823 126.714  0.00  0.00    +0.008 A 
ATOM      7  C   LIG A   1      -7.843  -1.699 127.188  0.00  0.00    +0.061 A 
ATOM      8  C   LIG A   1      -7.550  -1.538 128.553  0.00  0.00    +0.072 A 
ATOM      9  C   LIG A   1      -7.964  -2.523 129.458  0.00  0.00    +0.122 A 
ATOM     10  C   LIG A   1      -8.659  -3.642 129.004  0.00  0.00    +0.046 A 
ATOM     11  C   LIG A   1      -8.951  -3.802 127.642  0.00  0.00    +0.014 A 
ATOM     12  C   LIG A   1      -9.244  -3.433 124.251  0.00  0.00    +0.030 A 
ATOM     13  C   LIG A   1      -9.126  -2.886 122.970  0.00  0.00    +0.112 A 
ATOM     14  N   LIG A   1      -8.515  -1.712 122.668  0.00  0.00    -0.254 NA
ATOM     15  C   LIG A   1      -7.978  -1.018 123.682  0.00  0.00    +0.088 A 
ATOM     16  C   LIG A   1      -7.291   0.251 123.528  0.00  0.00    +0.035 A 
ATOM     17  C   LIG A   1      -6.781   0.880 124.606  0.00  0.00    +0.073 A 
ENDROOT
BRANCH   9  18
ATOM     18  O   LIG A   1      -7.626  -2.266 130.760  0.00  0.00    -0.495 OA
ATOM     19  C   LIG A   1      -6.759  -3.195 131.399  0.00  0.00    +0.277 C 
ENDBRANCH   9  18
TORSDOF 1
ENDMDL
MODEL 2
REMARK VINA RESULT:      -6.6      3.102      4.881
REMARK  Name = NuBBE_2202
REMARK  2 active torsions:
REMARK  status: ('A' for Active; 'I' for Inactive)
REMARK    1  A    between atoms: C_9  and  O_12
REMARK    2  A    between atoms: O_12  and  C_13
REMARK                            x       y       z     vdW  Elec       q    Type
REMARK                         _______ _______ _______ _____ _____    ______ ____
ROOT
ATOM      1  O   LIG A   1      -5.796  -2.327 125.601  0.00  0.00    -0.267 OA
ATOM      2  C   LIG A   1      -6.757  -2.011 124.916  0.00  0.00    +0.256 A 
ATOM      3  N   LIG A   1      -7.086  -0.666 124.678  0.00  0.00    -0.274 N 
ATOM      4  C   LIG A   1      -8.171  -0.337 123.904  0.00  0.00    +0.083 A 
ATOM      5  C   LIG A   1      -8.298   1.031 123.813  0.00  0.00    +0.011 A 
ATOM      6  C   LIG A   1      -7.224   1.577 124.579  0.00  0.00    +0.008 A 
ATOM      7  C   LIG A   1      -6.482   0.507 125.109  0.00  0.00    +0.061 A 
ATOM      8  C   LIG A   1      -5.353   0.725 125.917  0.00  0.00    +0.072 A 
ATOM      9  C   LIG A   1      -4.962   2.040 126.199  0.00  0.00    +0.122 A 
ATOM     10  C   LIG A   1      -5.685   3.111 125.679  0.00  0.00    +0.046 A 
ATOM     11  C   LIG A   1      -6.812   2.893 124.873  0.00  0.00    +0.014 A 
ATOM     12  C   LIG A   1      -9.366   1.526 123.049  0.00  0.00    +0.030 A 
ATOM     13  C   LIG A   1     -10.198   0.571 122.456  0.00  0.00    +0.112 A 
ATOM     14  N   LIG A   1     -10.053  -0.775 122.561  0.00  0.00    -0.254 NA
ATOM     15  C   LIG A   1      -9.026  -1.228 123.295  0.00  0.00    +0.088 A 
ATOM     16  C   LIG A   1      -8.733  -2.634 123.505  0.00  0.00    +0.035 A 
ATOM     17  C   LIG A   1      -7.677  -3.000 124.259  0.00  0.00    +0.073 A 
ENDROOT
BRANCH   9  18
ATOM     18  O   LIG A   1      -3.852   2.136 126.995  0.00  0.00    -0.495 OA
ATOM     19  C   LIG A   1      -2.870   3.095 126.624  0.00  0.00    +0.277 C 
ENDBRANCH   9  18
TORSDOF 1
ENDMDL
MODEL 3
REMARK VINA RESULT:      -6.6      9.695     10.977
REMARK  Name = NuBBE_2202
REMARK  2 active torsions:
REMARK  status: ('A' for Active; 'I' for Inactive)
REMARK    1  A    between atoms: C_9  and  O_12
REMARK    2  A    between atoms: O_12  and  C_13
REMARK                            x       y       z     vdW  Elec       q    Type
REMARK                         _______ _______ _______ _____ _____    ______ ____
ROOT
ATOM      1  O   LIG A   1      -5.733   7.547 130.121  0.00  0.00    -0.267 OA
ATOM      2  C   LIG A   1      -5.656   6.942 131.179  0.00  0.00    +0.256 A 
ATOM      3  N   LIG A   1      -6.800   6.482 131.853  0.00  0.00    -0.274 N 
ATOM      4  C   LIG A   1      -6.687   5.803 133.041  0.00  0.00    +0.083 A 
ATOM      5  C   LIG A   1      -7.932   5.454 133.514  0.00  0.00    +0.011 A 
ATOM      6  C   LIG A   1      -8.869   5.950 132.557  0.00  0.00    +0.008 A 
ATOM      7  C   LIG A   1      -8.146   6.586 131.533  0.00  0.00    +0.061 A 
ATOM      8  C   LIG A   1      -8.795   7.181 130.437  0.00  0.00    +0.072 A 
ATOM      9  C   LIG A   1     -10.192   7.139 130.369  0.00  0.00    +0.122 A 
ATOM     10  C   LIG A   1     -10.923   6.511 131.375  0.00  0.00    +0.046 A 
ATOM     11  C   LIG A   1     -10.276   5.917 132.468  0.00  0.00    +0.014 A 
ATOM     12  C   LIG A   1      -7.982   4.750 134.727  0.00  0.00    +0.030 A 
ATOM     13  C   LIG A   1      -6.754   4.474 135.334  0.00  0.00    +0.112 A 
ATOM     14  N   LIG A   1      -5.537   4.829 134.848  0.00  0.00    -0.254 NA
ATOM     15  C   LIG A   1      -5.509   5.501 133.688  0.00  0.00    +0.088 A 
ATOM     16  C   LIG A   1      -4.293   5.952 133.036  0.00  0.00    +0.035 A 
ATOM     17  C   LIG A   1      -4.360   6.622 131.868  0.00  0.00    +0.073 A 
ENDROOT
BRANCH   9  18
ATOM     18  O   LIG A   1     -10.719   7.750 129.262  0.00  0.00    -0.495 OA
ATOM     19  C   LIG A   1     -10.493   7.122 128.007  0.00  0.00    +0.277 C 
ENDBRANCH   9  18
TORSDOF 1
ENDMDL
MODEL 4
REMARK VINA RESULT:      -6.4      2.160      4.968
REMARK  Name = NuBBE_2202
REMARK  2 active torsions:
REMARK  status: ('A' for Active; 'I' for Inactive)
REMARK    1  A    between atoms: C_9  and  O_12
REMARK    2  A    between atoms: O_12  and  C_13
REMARK                            x       y       z     vdW  Elec       q    Type
REMARK                         _______ _______ _______ _____ _____    ______ ____
ROOT
ATOM      1  O   LIG A   1      -7.724   0.497 128.384  0.00  0.00    -0.267 OA
ATOM      2  C   LIG A   1      -7.900  -0.500 127.699  0.00  0.00    +0.256 A 
ATOM      3  N   LIG A   1      -8.263  -0.413 126.345  0.00  0.00    -0.274 N 
ATOM      4  C   LIG A   1      -8.453  -1.548 125.596  0.00  0.00    +0.083 A 
ATOM      5  C   LIG A   1      -8.802  -1.218 124.306  0.00  0.00    +0.011 A 
ATOM      6  C   LIG A   1      -8.827   0.209 124.258  0.00  0.00    +0.008 A 
ATOM      7  C   LIG A   1      -8.490   0.691 125.534  0.00  0.00    +0.061 A 
ATOM      8  C   LIG A   1      -8.430   2.069 125.807  0.00  0.00    +0.072 A 
ATOM      9  C   LIG A   1      -8.716   2.978 124.781  0.00  0.00    +0.122 A 
ATOM     10  C   LIG A   1      -9.050   2.516 123.510  0.00  0.00    +0.046 A 
ATOM     11  C   LIG A   1      -9.109   1.141 123.238  0.00  0.00    +0.014 A 
ATOM     12  C   LIG A   1      -9.031  -2.277 123.414  0.00  0.00    +0.030 A 
ATOM     13  C   LIG A   1      -8.882  -3.567 123.932  0.00  0.00    +0.112 A 
ATOM     14  N   LIG A   1      -8.537  -3.867 125.210  0.00  0.00    -0.254 NA
ATOM     15  C   LIG A   1      -8.322  -2.842 126.047  0.00  0.00    +0.088 A 
ATOM     16  C   LIG A   1      -7.947  -2.993 127.442  0.00  0.00    +0.035 A 
ATOM     17  C   LIG A   1      -7.750  -1.904 128.211  0.00  0.00    +0.073 A 
ENDROOT
BRANCH   9  18
ATOM     18  O   LIG A   1      -8.630   4.292 125.157  0.00  0.00    -0.495 OA
ATOM     19  C   LIG A   1      -7.343   4.782 125.511  0.00  0.00    +0.277 C 
ENDBRANCH   9  18
TORSDOF 1
ENDMDL
MODEL 5
REMARK VINA RESULT:      -6.4      1.964      3.149
REMARK  Name = NuBBE_2202
REMARK  2 active torsions:
REMARK  status: ('A' for Active; 'I' for Inactive)
REMARK    1  A    between atoms: C_9  and  O_12
REMARK    2  A    between atoms: O_12  and  C_13
REMARK                            x       y       z     vdW  Elec       q    Type
REMARK                         _______ _______ _______ _____ _____    ______ ____
ROOT
ATOM      1  O   LIG A   1      -8.410  -4.141 125.165  0.00  0.00    -0.267 OA
ATOM      2  C   LIG A   1      -8.577  -3.015 124.720  0.00  0.00    +0.256 A 
ATOM      3  N   LIG A   1      -8.447  -1.873 125.528  0.00  0.00    -0.274 N 
ATOM      4  C   LIG A   1      -8.639  -0.619 125.004  0.00  0.00    +0.083 A 
ATOM      5  C   LIG A   1      -8.461   0.340 125.976  0.00  0.00    +0.011 A 
ATOM      6  C   LIG A   1      -8.140  -0.370 127.173  0.00  0.00    +0.008 A 
ATOM      7  C   LIG A   1      -8.137  -1.743 126.875  0.00  0.00    +0.061 A 
ATOM      8  C   LIG A   1      -7.854  -2.707 127.857  0.00  0.00    +0.072 A 
ATOM      9  C   LIG A   1      -7.572  -2.286 129.162  0.00  0.00    +0.122 A 
ATOM     10  C   LIG A   1      -7.570  -0.928 129.474  0.00  0.00    +0.046 A 
ATOM     11  C   LIG A   1      -7.851   0.034 128.493  0.00  0.00    +0.014 A 
ATOM     12  C   LIG A   1      -8.624   1.680 125.592  0.00  0.00    +0.030 A 
ATOM     13  C   LIG A   1      -8.953   1.904 124.252  0.00  0.00    +0.112 A 
ATOM     14  N   LIG A   1      -9.123   0.941 123.310  0.00  0.00    -0.254 NA
ATOM     15  C   LIG A   1      -8.963  -0.333 123.696  0.00  0.00    +0.088 A 
ATOM     16  C   LIG A   1      -9.110  -1.477 122.814  0.00  0.00    +0.035 A 
ATOM     17  C   LIG A   1      -8.930  -2.725 123.289  0.00  0.00    +0.073 A 
ENDROOT
BRANCH   9  18
ATOM     18  O   LIG A   1      -7.313  -3.307 130.038  0.00  0.00    -0.495 OA
ATOM     19  C   LIG A   1      -6.010  -3.875 130.003  0.00  0.00    +0.277 C 
ENDBRANCH   9  18
TORSDOF 1
ENDMDL
MODEL 6
REMARK VINA RESULT:      -6.3      1.824      2.124
REMARK  Name = NuBBE_2202
REMARK  2 active torsions:
REMARK  status: ('A' for Active; 'I' for Inactive)
REMARK    1  A    between atoms: C_9  and  O_12
REMARK    2  A    between atoms: O_12  and  C_13
REMARK                            x       y       z     vdW  Elec       q    Type
REMARK                         _______ _______ _______ _____ _____    ______ ____
ROOT
ATOM      1  O   LIG A   1      -8.594   2.563 126.176  0.00  0.00    -0.267 OA
ATOM      2  C   LIG A   1      -8.813   1.644 125.402  0.00  0.00    +0.256 A 
ATOM      3  N   LIG A   1      -8.637   0.301 125.778  0.00  0.00    -0.274 N 
ATOM      4  C   LIG A   1      -8.892  -0.714 124.890  0.00  0.00    +0.083 A 
ATOM      5  C   LIG A   1      -8.650  -1.936 125.476  0.00  0.00    +0.011 A 
ATOM      6  C   LIG A   1      -8.219  -1.654 126.808  0.00  0.00    +0.008 A 
ATOM      7  C   LIG A   1      -8.218  -0.259 126.977  0.00  0.00    +0.061 A 
ATOM      8  C   LIG A   1      -7.836   0.333 128.193  0.00  0.00    +0.072 A 
ATOM      9  C   LIG A   1      -7.448  -0.489 129.257  0.00  0.00    +0.122 A 
ATOM     10  C   LIG A   1      -7.447  -1.874 129.107  0.00  0.00    +0.046 A 
ATOM     11  C   LIG A   1      -7.828  -2.465 127.893  0.00  0.00    +0.014 A 
ATOM     12  C   LIG A   1      -8.867  -3.078 124.689  0.00  0.00    +0.030 A 
ATOM     13  C   LIG A   1      -9.308  -2.855 123.382  0.00  0.00    +0.112 A 
ATOM     14  N   LIG A   1      -9.540  -1.638 122.825  0.00  0.00    -0.254 NA
ATOM     15  C   LIG A   1      -9.328  -0.559 123.593  0.00  0.00    +0.088 A 
ATOM     16  C   LIG A   1      -9.528   0.808 123.149  0.00  0.00    +0.035 A 
ATOM     17  C   LIG A   1      -9.289   1.834 123.990  0.00  0.00    +0.073 A 
ENDROOT
BRANCH   9  18
ATOM     18  O   LIG A   1      -7.095   0.192 130.392  0.00  0.00    -0.495 OA
ATOM     19  C   LIG A   1      -7.313   1.597 130.399  0.00  0.00    +0.277 C 
ENDBRANCH   9  18
TORSDOF 1
ENDMDL
MODEL 7
REMARK VINA RESULT:      -6.3      2.206      5.168
REMARK  Name = NuBBE_2202
REMARK  2 active torsions:
REMARK  status: ('A' for Active; 'I' for Inactive)
REMARK    1  A    between atoms: C_9  and  O_12
REMARK    2  A    between atoms: O_12  and  C_13
REMARK                            x       y       z     vdW  Elec       q    Type
REMARK                         _______ _______ _______ _____ _____    ______ ____
ROOT
ATOM      1  O   LIG A   1      -8.260   1.638 126.490  0.00  0.00    -0.267 OA
ATOM      2  C   LIG A   1      -8.057   0.860 127.410  0.00  0.00    +0.256 A 
ATOM      3  N   LIG A   1      -8.136  -0.532 127.233  0.00  0.00    -0.274 N 
ATOM      4  C   LIG A   1      -7.902  -1.385 128.282  0.00  0.00    +0.083 A 
ATOM      5  C   LIG A   1      -8.036  -2.694 127.875  0.00  0.00    +0.011 A 
ATOM      6  C   LIG A   1      -8.373  -2.641 126.488  0.00  0.00    +0.008 A 
ATOM      7  C   LIG A   1      -8.430  -1.290 126.107  0.00  0.00    +0.061 A 
ATOM      8  C   LIG A   1      -8.742  -0.910 124.791  0.00  0.00    +0.072 A 
ATOM      9  C   LIG A   1      -9.002  -1.904 123.840  0.00  0.00    +0.122 A 
ATOM     10  C   LIG A   1      -8.948  -3.248 124.201  0.00  0.00    +0.046 A 
ATOM     11  C   LIG A   1      -8.636  -3.627 125.515  0.00  0.00    +0.014 A 
ATOM     12  C   LIG A   1      -7.827  -3.690 128.841  0.00  0.00    +0.030 A 
ATOM     13  C   LIG A   1      -7.503  -3.247 130.127  0.00  0.00    +0.112 A 
ATOM     14  N   LIG A   1      -7.377  -1.949 130.505  0.00  0.00    -0.254 NA
ATOM     15  C   LIG A   1      -7.580  -1.012 129.568  0.00  0.00    +0.088 A 
ATOM     16  C   LIG A   1      -7.485   0.416 129.809  0.00  0.00    +0.035 A 
ATOM     17  C   LIG A   1      -7.706   1.288 128.806  0.00  0.00    +0.073 A 
ENDROOT
BRANCH   9  18
ATOM     18  O   LIG A   1      -9.297  -1.423 122.592  0.00  0.00    -0.495 OA
ATOM     19  C   LIG A   1      -9.878  -0.128 122.517  0.00  0.00    +0.277 C 
ENDBRANCH   9  18
TORSDOF 1
ENDMDL
MODEL 8
REMARK VINA RESULT:      -6.2      8.185      9.832
REMARK  Name = NuBBE_2202
REMARK  2 active torsions:
REMARK  status: ('A' for Active; 'I' for Inactive)
REMARK    1  A    between atoms: C_9  and  O_12
REMARK    2  A    between atoms: O_12  and  C_13
REMARK                            x       y       z     vdW  Elec       q    Type
REMARK                         _______ _______ _______ _____ _____    ______ ____
ROOT
ATOM      1  O   LIG A   1      -6.729   7.557 130.672  0.00  0.00    -0.267 OA
ATOM      2  C   LIG A   1      -6.845   6.439 131.151  0.00  0.00    +0.256 A 
ATOM      3  N   LIG A   1      -8.061   5.737 131.102  0.00  0.00    -0.274 N 
ATOM      4  C   LIG A   1      -8.167   4.481 131.647  0.00  0.00    +0.083 A 
ATOM      5  C   LIG A   1      -9.444   3.993 131.482  0.00  0.00    +0.011 A 
ATOM      6  C   LIG A   1     -10.169   5.012 130.793  0.00  0.00    +0.008 A 
ATOM      7  C   LIG A   1      -9.293   6.088 130.566  0.00  0.00    +0.061 A 
ATOM      8  C   LIG A   1      -9.716   7.252 129.903  0.00  0.00    +0.072 A 
ATOM      9  C   LIG A   1     -11.042   7.340 129.461  0.00  0.00    +0.122 A 
ATOM     10  C   LIG A   1     -11.922   6.281 129.677  0.00  0.00    +0.046 A 
ATOM     11  C   LIG A   1     -11.499   5.119 130.338  0.00  0.00    +0.014 A 
ATOM     12  C   LIG A   1      -9.710   2.711 131.990  0.00  0.00    +0.030 A 
ATOM     13  C   LIG A   1      -8.644   2.059 132.615  0.00  0.00    +0.112 A 
ATOM     14  N   LIG A   1      -7.392   2.562 132.766  0.00  0.00    -0.254 NA
ATOM     15  C   LIG A   1      -7.157   3.788 132.274  0.00  0.00    +0.088 A 
ATOM     16  C   LIG A   1      -5.876   4.465 132.354  0.00  0.00    +0.035 A 
ATOM     17  C   LIG A   1      -5.729   5.699 131.831  0.00  0.00    +0.073 A 
ENDROOT
BRANCH   9  18
ATOM     18  O   LIG A   1     -11.347   8.517 128.831  0.00  0.00    -0.495 OA
ATOM     19  C   LIG A   1     -12.634   9.068 129.077  0.00  0.00    +0.277 C 
ENDBRANCH   9  18
TORSDOF 1
ENDMDL
MODEL 9
REMARK VINA RESULT:      -6.2      9.869     10.931
REMARK  Name = NuBBE_2202
REMARK  2 active torsions:
REMARK  status: ('A' for Active; 'I' for Inactive)
REMARK    1  A    between atoms: C_9  and  O_12
REMARK    2  A    between atoms: O_12  and  C_13
REMARK                            x       y       z     vdW  Elec       q    Type
REMARK                         _______ _______ _______ _____ _____    ______ ____
ROOT
ATOM      1  O   LIG A   1      -5.062   4.316 134.690  0.00  0.00    -0.267 OA
ATOM      2  C   LIG A   1      -6.134   4.597 134.177  0.00  0.00    +0.256 A 
ATOM      3  N   LIG A   1      -6.221   5.448 133.063  0.00  0.00    -0.274 N 
ATOM      4  C   LIG A   1      -7.439   5.748 132.504  0.00  0.00    +0.083 A 
ATOM      5  C   LIG A   1      -7.278   6.595 131.430  0.00  0.00    +0.011 A 
ATOM      6  C   LIG A   1      -5.874   6.831 131.322  0.00  0.00    +0.008 A 
ATOM      7  C   LIG A   1      -5.234   6.110 132.345  0.00  0.00    +0.061 A 
ATOM      8  C   LIG A   1      -3.838   6.141 132.503  0.00  0.00    +0.072 A 
ATOM      9  C   LIG A   1      -3.070   6.910 131.620  0.00  0.00    +0.122 A 
ATOM     10  C   LIG A   1      -3.690   7.628 130.599  0.00  0.00    +0.046 A 
ATOM     11  C   LIG A   1      -5.083   7.597 130.442  0.00  0.00    +0.014 A 
ATOM     12  C   LIG A   1      -8.439   6.995 130.750  0.00  0.00    +0.030 A 
ATOM     13  C   LIG A   1      -9.647   6.488 131.237  0.00  0.00    +0.112 A 
ATOM     14  N   LIG A   1      -9.781   5.653 132.300  0.00  0.00    -0.254 NA
ATOM     15  C   LIG A   1      -8.660   5.282 132.936  0.00  0.00    +0.088 A 
ATOM     16  C   LIG A   1      -8.631   4.397 134.086  0.00  0.00    +0.035 A 
ATOM     17  C   LIG A   1      -7.457   4.077 134.665  0.00  0.00    +0.073 A 
ENDROOT
BRANCH   9  18
ATOM     18  O   LIG A   1      -1.724   6.870 131.866  0.00  0.00    -0.495 OA
ATOM     19  C   LIG A   1      -1.233   5.759 132.605  0.00  0.00    +0.277 C 
ENDBRANCH   9  18
TORSDOF 1
ENDMDL
