MODEL 1
REMARK VINA RESULT:      -7.4      0.000      0.000
REMARK  Name = NuBBE_2277
REMARK  4 active torsions:
REMARK  status: ('A' for Active; 'I' for Inactive)
REMARK    1  A    between atoms: C_5  and  O_6
REMARK    2  A    between atoms: O_6  and  C_7
REMARK    3  A    between atoms: C_9  and  C_10
REMARK    4  A    between atoms: C_11  and  C_12
REMARK                            x       y       z     vdW  Elec       q    Type
REMARK                         _______ _______ _______ _____ _____    ______ ____
ROOT
ATOM      1  C   LIG A   1     -10.612   6.982 130.501  0.00  0.00    +0.047 C 
ATOM      2  C   LIG A   1      -9.274   7.098 130.438  0.00  0.00    +0.012 C 
ENDROOT
BRANCH   2   3
ATOM      3  C   LIG A   1      -8.358   6.557 131.453  0.00  0.00    -0.021 A 
ATOM      4  C   LIG A   1      -6.965   6.714 131.267  0.00  0.00    +0.012 A 
ATOM      5  C   LIG A   1      -6.049   6.232 132.210  0.00  0.00    +0.050 A 
ATOM      6  C   LIG A   1      -6.553   5.610 133.329  0.00  0.00    +0.166 A 
ATOM      7  O   LIG A   1      -5.822   5.080 134.346  0.00  0.00    -0.453 OA
ATOM      8  C   LIG A   1      -6.870   4.594 135.210  0.00  0.00    +0.466 C 
ATOM      9  O   LIG A   1      -8.196   4.835 134.696  0.00  0.00    -0.453 OA
ATOM     10  C   LIG A   1      -7.904   5.468 133.529  0.00  0.00    +0.167 A 
ATOM     11  C   LIG A   1      -8.829   5.937 132.621  0.00  0.00    +0.057 A 
ENDBRANCH   2   3
BRANCH   1  18
ATOM     12  O   LIG A   1     -12.683   6.495 126.322  0.00  0.00    -0.245 OA
ATOM     13  C   LIG A   1     -12.531   7.137 127.356  0.00  0.00    +0.341 A 
ATOM     14  O   LIG A   1     -11.684   6.734 128.347  0.00  0.00    -0.423 OA
ATOM     15  C   LIG A   1     -13.278   8.388 127.560  0.00  0.00    +0.137 A 
ATOM     16  C   LIG A   1     -13.123   9.106 128.682  0.00  0.00    +0.130 A 
ATOM     17  C   LIG A   1     -12.217   8.646 129.698  0.00  0.00    +0.092 A 
ATOM     18  C   LIG A   1     -11.537   7.506 129.521  0.00  0.00    +0.135 A 
BRANCH  16  19
ATOM     19  O   LIG A   1     -13.748  10.282 129.014  0.00  0.00    -0.495 OA
ATOM     20  C   LIG A   1     -13.393  10.886 130.252  0.00  0.00    +0.277 C 
ENDBRANCH  16  19
ENDBRANCH   1  18
TORSDOF 3
ENDMDL
MODEL 2
REMARK VINA RESULT:      -7.3      2.286      3.673
REMARK  Name = NuBBE_2277
REMARK  4 active torsions:
REMARK  status: ('A' for Active; 'I' for Inactive)
REMARK    1  A    between atoms: C_5  and  O_6
REMARK    2  A    between atoms: O_6  and  C_7
REMARK    3  A    between atoms: C_9  and  C_10
REMARK    4  A    between atoms: C_11  and  C_12
REMARK                            x       y       z     vdW  Elec       q    Type
REMARK                         _______ _______ _______ _____ _____    ______ ____
ROOT
ATOM      1  C   LIG A   1      -8.815   7.132 130.529  0.00  0.00    +0.047 C 
ATOM      2  C   LIG A   1      -8.248   6.308 131.426  0.00  0.00    +0.012 C 
ENDROOT
BRANCH   2   3
ATOM      3  C   LIG A   1      -6.839   6.393 131.839  0.00  0.00    -0.021 A 
ATOM      4  C   LIG A   1      -6.460   5.841 133.084  0.00  0.00    +0.012 A 
ATOM      5  C   LIG A   1      -5.129   5.881 133.519  0.00  0.00    +0.050 A 
ATOM      6  C   LIG A   1      -4.203   6.468 132.687  0.00  0.00    +0.166 A 
ATOM      7  O   LIG A   1      -2.873   6.599 132.939  0.00  0.00    -0.453 OA
ATOM      8  C   LIG A   1      -2.433   7.262 131.735  0.00  0.00    +0.466 C 
ATOM      9  O   LIG A   1      -3.498   7.516 130.797  0.00  0.00    -0.453 OA
ATOM     10  C   LIG A   1      -4.558   6.991 131.468  0.00  0.00    +0.167 A 
ATOM     11  C   LIG A   1      -5.857   6.962 131.012  0.00  0.00    +0.057 A 
ENDBRANCH   2   3
BRANCH   1  18
ATOM     12  O   LIG A   1     -13.353   7.147 131.708  0.00  0.00    -0.245 OA
ATOM     13  C   LIG A   1     -12.489   7.091 130.840  0.00  0.00    +0.341 A 
ATOM     14  O   LIG A   1     -11.158   7.142 131.132  0.00  0.00    -0.423 OA
ATOM     15  C   LIG A   1     -12.876   6.966 129.426  0.00  0.00    +0.137 A 
ATOM     16  C   LIG A   1     -11.946   6.901 128.462  0.00  0.00    +0.130 A 
ATOM     17  C   LIG A   1     -10.554   6.953 128.816  0.00  0.00    +0.092 A 
ATOM     18  C   LIG A   1     -10.195   7.071 130.100  0.00  0.00    +0.135 A 
BRANCH  16  19
ATOM     19  O   LIG A   1     -12.150   6.787 127.110  0.00  0.00    -0.495 OA
ATOM     20  C   LIG A   1     -11.274   7.507 126.251  0.00  0.00    +0.277 C 
ENDBRANCH  16  19
ENDBRANCH   1  18
TORSDOF 3
ENDMDL
MODEL 3
REMARK VINA RESULT:      -7.1      1.439      2.069
REMARK  Name = NuBBE_2277
REMARK  4 active torsions:
REMARK  status: ('A' for Active; 'I' for Inactive)
REMARK    1  A    between atoms: C_5  and  O_6
REMARK    2  A    between atoms: O_6  and  C_7
REMARK    3  A    between atoms: C_9  and  C_10
REMARK    4  A    between atoms: C_11  and  C_12
REMARK                            x       y       z     vdW  Elec       q    Type
REMARK                         _______ _______ _______ _____ _____    ______ ____
ROOT
ATOM      1  C   LIG A   1      -9.617   6.937 130.804  0.00  0.00    +0.047 C 
ATOM      2  C   LIG A   1      -8.347   6.504 130.886  0.00  0.00    +0.012 C 
ENDROOT
BRANCH   2   3
ATOM      3  C   LIG A   1      -7.675   6.178 132.153  0.00  0.00    -0.021 A 
ATOM      4  C   LIG A   1      -8.466   5.838 133.275  0.00  0.00    +0.012 A 
ATOM      5  C   LIG A   1      -7.877   5.503 134.501  0.00  0.00    +0.050 A 
ATOM      6  C   LIG A   1      -6.503   5.507 134.572  0.00  0.00    +0.166 A 
ATOM      7  O   LIG A   1      -5.758   5.212 135.670  0.00  0.00    -0.453 OA
ATOM      8  C   LIG A   1      -4.424   5.369 135.145  0.00  0.00    +0.466 C 
ATOM      9  O   LIG A   1      -4.395   5.757 133.756  0.00  0.00    -0.453 OA
ATOM     10  C   LIG A   1      -5.725   5.818 133.483  0.00  0.00    +0.167 A 
ATOM     11  C   LIG A   1      -6.276   6.146 132.263  0.00  0.00    +0.057 A 
ENDBRANCH   2   3
BRANCH   1  18
ATOM     12  O   LIG A   1      -9.870   6.497 126.142  0.00  0.00    -0.245 OA
ATOM     13  C   LIG A   1     -10.320   6.961 127.184  0.00  0.00    +0.341 A 
ATOM     14  O   LIG A   1      -9.753   6.711 128.399  0.00  0.00    -0.423 OA
ATOM     15  C   LIG A   1     -11.514   7.821 127.149  0.00  0.00    +0.137 A 
ATOM     16  C   LIG A   1     -12.020   8.340 128.277  0.00  0.00    +0.130 A 
ATOM     17  C   LIG A   1     -11.387   8.054 129.535  0.00  0.00    +0.092 A 
ATOM     18  C   LIG A   1     -10.303   7.270 129.575  0.00  0.00    +0.135 A 
BRANCH  16  19
ATOM     19  O   LIG A   1     -13.121   9.150 128.404  0.00  0.00    -0.495 OA
ATOM     20  C   LIG A   1     -13.164  10.028 129.522  0.00  0.00    +0.277 C 
ENDBRANCH  16  19
ENDBRANCH   1  18
TORSDOF 3
ENDMDL
MODEL 4
REMARK VINA RESULT:      -7.1      3.025      8.228
REMARK  Name = NuBBE_2277
REMARK  4 active torsions:
REMARK  status: ('A' for Active; 'I' for Inactive)
REMARK    1  A    between atoms: C_5  and  O_6
REMARK    2  A    between atoms: O_6  and  C_7
REMARK    3  A    between atoms: C_9  and  C_10
REMARK    4  A    between atoms: C_11  and  C_12
REMARK                            x       y       z     vdW  Elec       q    Type
REMARK                         _______ _______ _______ _____ _____    ______ ____
ROOT
ATOM      1  C   LIG A   1      -5.923   6.460 131.926  0.00  0.00    +0.047 C 
ATOM      2  C   LIG A   1      -6.829   6.825 131.003  0.00  0.00    +0.012 C 
ENDROOT
BRANCH   2   3
ATOM      3  C   LIG A   1      -8.282   6.701 131.190  0.00  0.00    -0.021 A 
ATOM      4  C   LIG A   1      -8.766   6.049 132.348  0.00  0.00    +0.012 A 
ATOM      5  C   LIG A   1     -10.140   5.916 132.583  0.00  0.00    +0.050 A 
ATOM      6  C   LIG A   1     -11.002   6.453 131.654  0.00  0.00    +0.166 A 
ATOM      7  O   LIG A   1     -12.360   6.421 131.711  0.00  0.00    -0.453 OA
ATOM      8  C   LIG A   1     -12.701   7.132 130.503  0.00  0.00    +0.466 C 
ATOM      9  O   LIG A   1     -11.550   7.566 129.749  0.00  0.00    -0.453 OA
ATOM     10  C   LIG A   1     -10.543   7.104 130.535  0.00  0.00    +0.167 A 
ATOM     11  C   LIG A   1      -9.197   7.254 130.280  0.00  0.00    +0.057 A 
ENDBRANCH   2   3
BRANCH   1  18
ATOM     12  O   LIG A   1      -1.756   7.314 133.900  0.00  0.00    -0.245 OA
ATOM     13  C   LIG A   1      -2.413   7.025 132.906  0.00  0.00    +0.341 A 
ATOM     14  O   LIG A   1      -3.771   6.897 132.940  0.00  0.00    -0.423 OA
ATOM     15  C   LIG A   1      -1.736   6.802 131.619  0.00  0.00    +0.137 A 
ATOM     16  C   LIG A   1      -2.437   6.488 130.519  0.00  0.00    +0.130 A 
ATOM     17  C   LIG A   1      -3.867   6.369 130.601  0.00  0.00    +0.092 A 
ATOM     18  C   LIG A   1      -4.489   6.566 131.770  0.00  0.00    +0.135 A 
BRANCH  16  19
ATOM     19  O   LIG A   1      -1.951   6.249 129.258  0.00  0.00    -0.495 OA
ATOM     20  C   LIG A   1      -2.562   6.943 128.177  0.00  0.00    +0.277 C 
ENDBRANCH  16  19
ENDBRANCH   1  18
TORSDOF 3
ENDMDL
MODEL 5
REMARK VINA RESULT:      -7.0      3.234      8.202
REMARK  Name = NuBBE_2277
REMARK  4 active torsions:
REMARK  status: ('A' for Active; 'I' for Inactive)
REMARK    1  A    between atoms: C_5  and  O_6
REMARK    2  A    between atoms: O_6  and  C_7
REMARK    3  A    between atoms: C_9  and  C_10
REMARK    4  A    between atoms: C_11  and  C_12
REMARK                            x       y       z     vdW  Elec       q    Type
REMARK                         _______ _______ _______ _____ _____    ______ ____
ROOT
ATOM      1  C   LIG A   1      -5.889   6.347 131.767  0.00  0.00    +0.047 C 
ATOM      2  C   LIG A   1      -6.814   6.880 130.950  0.00  0.00    +0.012 C 
ENDROOT
BRANCH   2   3
ATOM      3  C   LIG A   1      -8.264   6.737 131.153  0.00  0.00    -0.021 A 
ATOM      4  C   LIG A   1      -8.727   6.080 132.317  0.00  0.00    +0.012 A 
ATOM      5  C   LIG A   1     -10.096   5.930 132.568  0.00  0.00    +0.050 A 
ATOM      6  C   LIG A   1     -10.975   6.454 131.647  0.00  0.00    +0.166 A 
ATOM      7  O   LIG A   1     -12.332   6.405 131.719  0.00  0.00    -0.453 OA
ATOM      8  C   LIG A   1     -12.695   7.109 130.514  0.00  0.00    +0.466 C 
ATOM      9  O   LIG A   1     -11.558   7.557 129.747  0.00  0.00    -0.453 OA
ATOM     10  C   LIG A   1     -10.536   7.109 130.523  0.00  0.00    +0.167 A 
ATOM     11  C   LIG A   1      -9.195   7.276 130.252  0.00  0.00    +0.057 A 
ENDBRANCH   2   3
BRANCH   1  18
ATOM     12  O   LIG A   1      -2.195   6.073 128.892  0.00  0.00    -0.245 OA
ATOM     13  C   LIG A   1      -2.648   6.292 130.011  0.00  0.00    +0.341 A 
ATOM     14  O   LIG A   1      -3.980   6.209 130.287  0.00  0.00    -0.423 OA
ATOM     15  C   LIG A   1      -1.741   6.661 131.110  0.00  0.00    +0.137 A 
ATOM     16  C   LIG A   1      -2.216   6.902 132.340  0.00  0.00    +0.130 A 
ATOM     17  C   LIG A   1      -3.628   6.798 132.588  0.00  0.00    +0.092 A 
ATOM     18  C   LIG A   1      -4.459   6.467 131.591  0.00  0.00    +0.135 A 
BRANCH  16  19
ATOM     19  O   LIG A   1      -1.501   7.256 133.457  0.00  0.00    -0.495 OA
ATOM     20  C   LIG A   1      -0.125   7.572 133.282  0.00  0.00    +0.277 C 
ENDBRANCH  16  19
ENDBRANCH   1  18
TORSDOF 3
ENDMDL
MODEL 6
REMARK VINA RESULT:      -6.8      8.569     10.254
REMARK  Name = NuBBE_2277
REMARK  4 active torsions:
REMARK  status: ('A' for Active; 'I' for Inactive)
REMARK    1  A    between atoms: C_5  and  O_6
REMARK    2  A    between atoms: O_6  and  C_7
REMARK    3  A    between atoms: C_9  and  C_10
REMARK    4  A    between atoms: C_11  and  C_12
REMARK                            x       y       z     vdW  Elec       q    Type
REMARK                         _______ _______ _______ _____ _____    ______ ____
ROOT
ATOM      1  C   LIG A   1      -5.270   0.645 126.055  0.00  0.00    +0.047 C 
ATOM      2  C   LIG A   1      -5.383   1.966 125.833  0.00  0.00    +0.012 C 
ENDROOT
BRANCH   2   3
ATOM      3  C   LIG A   1      -4.523   2.978 126.464  0.00  0.00    -0.021 A 
ATOM      4  C   LIG A   1      -3.167   2.662 126.710  0.00  0.00    +0.012 A 
ATOM      5  C   LIG A   1      -2.300   3.594 127.294  0.00  0.00    +0.050 A 
ATOM      6  C   LIG A   1      -2.813   4.832 127.612  0.00  0.00    +0.166 A 
ATOM      7  O   LIG A   1      -2.129   5.858 128.182  0.00  0.00    -0.453 OA
ATOM      8  C   LIG A   1      -3.159   6.865 128.257  0.00  0.00    +0.466 C 
ATOM      9  O   LIG A   1      -4.431   6.424 127.739  0.00  0.00    -0.453 OA
ATOM     10  C   LIG A   1      -4.124   5.155 127.361  0.00  0.00    +0.167 A 
ATOM     11  C   LIG A   1      -4.998   4.260 126.782  0.00  0.00    +0.057 A 
ENDBRANCH   2   3
BRANCH   1  18
ATOM     12  O   LIG A   1      -9.539  -0.686 124.645  0.00  0.00    -0.245 OA
ATOM     13  C   LIG A   1      -8.344  -0.934 124.771  0.00  0.00    +0.341 A 
ATOM     14  O   LIG A   1      -7.470  -0.045 125.324  0.00  0.00    -0.423 OA
ATOM     15  C   LIG A   1      -7.811  -2.227 124.316  0.00  0.00    +0.137 A 
ATOM     16  C   LIG A   1      -6.509  -2.518 124.448  0.00  0.00    +0.130 A 
ATOM     17  C   LIG A   1      -5.624  -1.554 125.041  0.00  0.00    +0.092 A 
ATOM     18  C   LIG A   1      -6.101  -0.373 125.453  0.00  0.00    +0.135 A 
BRANCH  16  19
ATOM     19  O   LIG A   1      -5.868  -3.672 124.071  0.00  0.00    -0.495 OA
ATOM     20  C   LIG A   1      -4.551  -3.550 123.548  0.00  0.00    +0.277 C 
ENDBRANCH  16  19
ENDBRANCH   1  18
TORSDOF 3
ENDMDL
MODEL 7
REMARK VINA RESULT:      -6.8      2.170      8.142
REMARK  Name = NuBBE_2277
REMARK  4 active torsions:
REMARK  status: ('A' for Active; 'I' for Inactive)
REMARK    1  A    between atoms: C_5  and  O_6
REMARK    2  A    between atoms: O_6  and  C_7
REMARK    3  A    between atoms: C_9  and  C_10
REMARK    4  A    between atoms: C_11  and  C_12
REMARK                            x       y       z     vdW  Elec       q    Type
REMARK                         _______ _______ _______ _____ _____    ______ ____
ROOT
ATOM      1  C   LIG A   1      -7.158   6.965 131.067  0.00  0.00    +0.047 C 
ATOM      2  C   LIG A   1      -8.306   6.457 131.546  0.00  0.00    +0.012 C 
ENDROOT
BRANCH   2   3
ATOM      3  C   LIG A   1      -9.631   6.759 130.984  0.00  0.00    -0.021 A 
ATOM      4  C   LIG A   1     -10.782   6.338 131.689  0.00  0.00    +0.012 A 
ATOM      5  C   LIG A   1     -12.068   6.612 131.207  0.00  0.00    +0.050 A 
ATOM      6  C   LIG A   1     -12.172   7.315 130.028  0.00  0.00    +0.166 A 
ATOM      7  O   LIG A   1     -13.328   7.671 129.409  0.00  0.00    -0.453 OA
ATOM      8  C   LIG A   1     -12.816   8.378 128.260  0.00  0.00    +0.466 C 
ATOM      9  O   LIG A   1     -11.375   8.425 128.211  0.00  0.00    -0.453 OA
ATOM     10  C   LIG A   1     -11.060   7.744 129.345  0.00  0.00    +0.167 A 
ATOM     11  C   LIG A   1      -9.783   7.493 129.797  0.00  0.00    +0.057 A 
ENDBRANCH   2   3
BRANCH   1  18
ATOM     12  O   LIG A   1      -4.563   5.282 134.591  0.00  0.00    -0.245 OA
ATOM     13  C   LIG A   1      -4.627   5.796 133.479  0.00  0.00    +0.341 A 
ATOM     14  O   LIG A   1      -5.815   6.096 132.881  0.00  0.00    -0.423 OA
ATOM     15  C   LIG A   1      -3.391   6.107 132.744  0.00  0.00    +0.137 A 
ATOM     16  C   LIG A   1      -3.439   6.671 131.528  0.00  0.00    +0.130 A 
ATOM     17  C   LIG A   1      -4.714   6.975 130.938  0.00  0.00    +0.092 A 
ATOM     18  C   LIG A   1      -5.842   6.690 131.600  0.00  0.00    +0.135 A 
BRANCH  16  19
ATOM     19  O   LIG A   1      -2.381   7.015 130.724  0.00  0.00    -0.495 OA
ATOM     20  C   LIG A   1      -2.250   6.330 129.484  0.00  0.00    +0.277 C 
ENDBRANCH  16  19
ENDBRANCH   1  18
TORSDOF 3
ENDMDL
MODEL 8
REMARK VINA RESULT:      -6.7      8.424     10.884
REMARK  Name = NuBBE_2277
REMARK  4 active torsions:
REMARK  status: ('A' for Active; 'I' for Inactive)
REMARK    1  A    between atoms: C_5  and  O_6
REMARK    2  A    between atoms: O_6  and  C_7
REMARK    3  A    between atoms: C_9  and  C_10
REMARK    4  A    between atoms: C_11  and  C_12
REMARK                            x       y       z     vdW  Elec       q    Type
REMARK                         _______ _______ _______ _____ _____    ______ ____
ROOT
ATOM      1  C   LIG A   1      -5.726   2.275 125.641  0.00  0.00    +0.047 C 
ATOM      2  C   LIG A   1      -5.789   0.933 125.642  0.00  0.00    +0.012 C 
ENDROOT
BRANCH   2   3
ATOM      3  C   LIG A   1      -6.864   0.164 124.997  0.00  0.00    -0.021 A 
ATOM      4  C   LIG A   1      -7.810   0.852 124.201  0.00  0.00    +0.012 A 
ATOM      5  C   LIG A   1      -8.844   0.168 123.551  0.00  0.00    +0.050 A 
ATOM      6  C   LIG A   1      -8.902  -1.198 123.706  0.00  0.00    +0.166 A 
ATOM      7  O   LIG A   1      -9.830  -2.026 123.156  0.00  0.00    -0.453 OA
ATOM      8  C   LIG A   1      -9.380  -3.305 123.650  0.00  0.00    +0.466 C 
ATOM      9  O   LIG A   1      -8.206  -3.218 124.483  0.00  0.00    -0.453 OA
ATOM     10  C   LIG A   1      -7.979  -1.878 124.462  0.00  0.00    +0.167 A 
ATOM     11  C   LIG A   1      -6.948  -1.232 125.109  0.00  0.00    +0.057 A 
ENDBRANCH   2   3
BRANCH   1  18
ATOM     12  O   LIG A   1      -1.202   2.675 126.809  0.00  0.00    -0.245 OA
ATOM     13  C   LIG A   1      -2.337   3.140 126.809  0.00  0.00    +0.341 A 
ATOM     14  O   LIG A   1      -3.393   2.487 126.243  0.00  0.00    -0.423 OA
ATOM     15  C   LIG A   1      -2.594   4.447 127.433  0.00  0.00    +0.137 A 
ATOM     16  C   LIG A   1      -3.828   4.971 127.446  0.00  0.00    +0.130 A 
ATOM     17  C   LIG A   1      -4.912   4.246 126.843  0.00  0.00    +0.092 A 
ATOM     18  C   LIG A   1      -4.685   3.058 126.269  0.00  0.00    +0.135 A 
BRANCH  16  19
ATOM     19  O   LIG A   1      -4.220   6.171 127.983  0.00  0.00    -0.495 OA
ATOM     20  C   LIG A   1      -3.200   7.105 128.319  0.00  0.00    +0.277 C 
ENDBRANCH  16  19
ENDBRANCH   1  18
TORSDOF 3
ENDMDL
MODEL 9
REMARK VINA RESULT:      -6.6      2.201      3.054
REMARK  Name = NuBBE_2277
REMARK  4 active torsions:
REMARK  status: ('A' for Active; 'I' for Inactive)
REMARK    1  A    between atoms: C_5  and  O_6
REMARK    2  A    between atoms: O_6  and  C_7
REMARK    3  A    between atoms: C_9  and  C_10
REMARK    4  A    between atoms: C_11  and  C_12
REMARK                            x       y       z     vdW  Elec       q    Type
REMARK                         _______ _______ _______ _____ _____    ______ ____
ROOT
ATOM      1  C   LIG A   1      -8.590   7.325 130.053  0.00  0.00    +0.047 C 
ATOM      2  C   LIG A   1      -8.173   6.436 130.971  0.00  0.00    +0.012 C 
ENDROOT
BRANCH   2   3
ATOM      3  C   LIG A   1      -6.844   6.471 131.598  0.00  0.00    -0.021 A 
ATOM      4  C   LIG A   1      -6.678   5.892 132.877  0.00  0.00    +0.012 A 
ATOM      5  C   LIG A   1      -5.431   5.884 133.513  0.00  0.00    +0.050 A 
ATOM      6  C   LIG A   1      -4.369   6.450 132.845  0.00  0.00    +0.166 A 
ATOM      7  O   LIG A   1      -3.092   6.536 133.300  0.00  0.00    -0.453 OA
ATOM      8  C   LIG A   1      -2.450   7.198 132.191  0.00  0.00    +0.466 C 
ATOM      9  O   LIG A   1      -3.350   7.498 131.104  0.00  0.00    -0.453 OA
ATOM     10  C   LIG A   1      -4.515   6.999 131.594  0.00  0.00    +0.167 A 
ATOM     11  C   LIG A   1      -5.729   7.017 130.942  0.00  0.00    +0.057 A 
ENDBRANCH   2   3
BRANCH   1  18
ATOM     12  O   LIG A   1     -11.074   7.368 126.076  0.00  0.00    -0.245 OA
ATOM     13  C   LIG A   1     -11.045   7.340 127.302  0.00  0.00    +0.341 A 
ATOM     14  O   LIG A   1      -9.876   7.345 128.004  0.00  0.00    -0.423 OA
ATOM     15  C   LIG A   1     -12.303   7.297 128.065  0.00  0.00    +0.137 A 
ATOM     16  C   LIG A   1     -12.292   7.269 129.406  0.00  0.00    +0.130 A 
ATOM     17  C   LIG A   1     -11.037   7.280 130.105  0.00  0.00    +0.092 A 
ATOM     18  C   LIG A   1      -9.889   7.315 129.417  0.00  0.00    +0.135 A 
BRANCH  16  19
ATOM     19  O   LIG A   1     -13.374   7.224 130.249  0.00  0.00    -0.495 OA
ATOM     20  C   LIG A   1     -13.178   7.653 131.591  0.00  0.00    +0.277 C 
ENDBRANCH  16  19
ENDBRANCH   1  18
TORSDOF 3
ENDMDL
