MODEL 1
REMARK VINA RESULT:      -7.0      0.000      0.000
REMARK  Name = NuBBE_1226
REMARK  10 active torsions:
REMARK  status: ('A' for Active; 'I' for Inactive)
REMARK    1  A    between atoms: C_3  and  O_4
REMARK    2  A    between atoms: O_4  and  C_5
REMARK    3  A    between atoms: C_6  and  C_7
REMARK    4  A    between atoms: C_11  and  O_12
REMARK    5  A    between atoms: O_12  and  C_13
REMARK    6  A    between atoms: C_21  and  O_22
REMARK    7  A    between atoms: O_22  and  C_23
REMARK    8  A    between atoms: C_24  and  O_25
REMARK    9  A    between atoms: O_25  and  C_26
REMARK   10  A    between atoms: C_27  and  O_28
REMARK                            x       y       z     vdW  Elec       q    Type
REMARK                         _______ _______ _______ _____ _____    ______ ____
ROOT
ATOM      1  O   LIG A   1      -7.689   2.682 127.133  0.00  0.00    -0.283 OA
ATOM      2  C   LIG A   1      -7.733   2.204 125.998  0.00  0.00    +0.238 A 
ATOM      3  C   LIG A   1      -7.529   3.006 124.755  0.00  0.00    +0.211 A 
ATOM      4  C   LIG A   1      -7.733   2.367 123.584  0.00  0.00    +0.181 A 
ATOM      5  O   LIG A   1      -8.103   1.044 123.444  0.00  0.00    -0.451 OA
ATOM      6  C   LIG A   1      -7.994   0.762 125.844  0.00  0.00    +0.113 A 
ATOM      7  C   LIG A   1      -8.179   0.264 124.565  0.00  0.00    +0.147 A 
ATOM      8  C   LIG A   1      -8.467  -1.087 124.364  0.00  0.00    +0.096 A 
ATOM      9  C   LIG A   1      -8.563  -1.968 125.448  0.00  0.00    +0.169 A 
ATOM     10  C   LIG A   1      -8.329  -1.482 126.751  0.00  0.00    +0.204 A 
ATOM     11  C   LIG A   1      -8.065  -0.109 126.940  0.00  0.00    +0.177 A 
ENDROOT
BRANCH   4  12
ATOM     12  C   LIG A   1      -7.547   3.033 122.287  0.00  0.00    +0.021 A 
ATOM     13  C   LIG A   1      -8.645   3.386 121.496  0.00  0.00    +0.015 A 
ATOM     14  C   LIG A   1      -8.446   3.987 120.250  0.00  0.00    +0.046 A 
ATOM     15  C   LIG A   1      -7.154   4.224 119.774  0.00  0.00    +0.120 A 
ATOM     16  C   LIG A   1      -6.057   3.890 120.568  0.00  0.00    +0.046 A 
ATOM     17  C   LIG A   1      -6.254   3.293 121.818  0.00  0.00    +0.015 A 
BRANCH  15  18
ATOM     18  O   LIG A   1      -7.081   4.819 118.545  0.00  0.00    -0.495 OA
ATOM     19  C   LIG A   1      -5.977   5.699 118.357  0.00  0.00    +0.277 C 
ENDBRANCH  15  18
ENDBRANCH   4  12
BRANCH   3  20
ATOM     20  O   LIG A   1      -7.186   4.350 124.769  0.00  0.00    -0.488 OA
ATOM     21  C   LIG A   1      -5.838   4.661 125.104  0.00  0.00    +0.277 C 
ENDBRANCH   3  20
BRANCH   9  22
ATOM     22  O   LIG A   1      -8.914  -3.284 125.312  0.00  0.00    -0.491 OA
ATOM     23  C   LIG A   1      -7.985  -4.183 124.723  0.00  0.00    +0.277 C 
ENDBRANCH   9  22
BRANCH  10  24
ATOM     24  O   LIG A   1      -8.408  -2.223 127.907  0.00  0.00    -0.488 OA
ATOM     25  C   LIG A   1      -7.234  -2.907 128.327  0.00  0.00    +0.277 C 
ENDBRANCH  10  24
BRANCH  11  26
ATOM     26  O   LIG A   1      -7.865   0.340 128.225  0.00  0.00    -0.503 OA
ATOM     27  H   LIG A   1      -6.914   0.237 128.451  0.00  0.00    +0.292 HD
ENDBRANCH  11  26
TORSDOF 6
ENDMDL
MODEL 2
REMARK VINA RESULT:      -6.8      7.689      9.691
REMARK  Name = NuBBE_1226
REMARK  10 active torsions:
REMARK  status: ('A' for Active; 'I' for Inactive)
REMARK    1  A    between atoms: C_3  and  O_4
REMARK    2  A    between atoms: O_4  and  C_5
REMARK    3  A    between atoms: C_6  and  C_7
REMARK    4  A    between atoms: C_11  and  O_12
REMARK    5  A    between atoms: O_12  and  C_13
REMARK    6  A    between atoms: C_21  and  O_22
REMARK    7  A    between atoms: O_22  and  C_23
REMARK    8  A    between atoms: C_24  and  O_25
REMARK    9  A    between atoms: O_25  and  C_26
REMARK   10  A    between atoms: C_27  and  O_28
REMARK                            x       y       z     vdW  Elec       q    Type
REMARK                         _______ _______ _______ _____ _____    ______ ____
ROOT
ATOM      1  O   LIG A   1      -7.930   2.832 130.319  0.00  0.00    -0.283 OA
ATOM      2  C   LIG A   1      -8.029   4.055 130.436  0.00  0.00    +0.238 A 
ATOM      3  C   LIG A   1      -9.247   4.826 130.045  0.00  0.00    +0.211 A 
ATOM      4  C   LIG A   1      -9.157   6.171 130.114  0.00  0.00    +0.181 A 
ATOM      5  O   LIG A   1      -8.046   6.883 130.521  0.00  0.00    -0.451 OA
ATOM      6  C   LIG A   1      -6.895   4.809 130.996  0.00  0.00    +0.113 A 
ATOM      7  C   LIG A   1      -6.964   6.192 130.993  0.00  0.00    +0.147 A 
ATOM      8  C   LIG A   1      -5.902   6.958 131.478  0.00  0.00    +0.096 A 
ATOM      9  C   LIG A   1      -4.750   6.345 131.986  0.00  0.00    +0.169 A 
ATOM     10  C   LIG A   1      -4.688   4.936 132.038  0.00  0.00    +0.204 A 
ATOM     11  C   LIG A   1      -5.760   4.178 131.522  0.00  0.00    +0.177 A 
ENDROOT
BRANCH   4  12
ATOM     12  C   LIG A   1     -10.288   7.048 129.778  0.00  0.00    +0.021 A 
ATOM     13  C   LIG A   1     -10.298   7.784 128.588  0.00  0.00    +0.015 A 
ATOM     14  C   LIG A   1     -11.367   8.639 128.303  0.00  0.00    +0.046 A 
ATOM     15  C   LIG A   1     -12.422   8.783 129.207  0.00  0.00    +0.120 A 
ATOM     16  C   LIG A   1     -12.424   8.037 130.386  0.00  0.00    +0.046 A 
ATOM     17  C   LIG A   1     -11.358   7.177 130.671  0.00  0.00    +0.015 A 
BRANCH  15  18
ATOM     18  O   LIG A   1     -13.412   9.644 128.821  0.00  0.00    -0.495 OA
ATOM     19  C   LIG A   1     -13.540  10.821 129.614  0.00  0.00    +0.277 C 
ENDBRANCH  15  18
ENDBRANCH   4  12
BRANCH   3  20
ATOM     20  O   LIG A   1     -10.412   4.224 129.592  0.00  0.00    -0.488 OA
ATOM     21  C   LIG A   1     -11.147   3.462 130.543  0.00  0.00    +0.277 C 
ENDBRANCH   3  20
BRANCH   9  22
ATOM     22  O   LIG A   1      -3.653   7.047 132.405  0.00  0.00    -0.491 OA
ATOM     23  C   LIG A   1      -3.044   7.966 131.510  0.00  0.00    +0.277 C 
ENDBRANCH   9  22
BRANCH  10  24
ATOM     24  O   LIG A   1      -3.619   4.199 132.491  0.00  0.00    -0.488 OA
ATOM     25  C   LIG A   1      -3.496   4.021 133.897  0.00  0.00    +0.277 C 
ENDBRANCH  10  24
BRANCH  11  26
ATOM     26  O   LIG A   1      -5.659   2.805 131.564  0.00  0.00    -0.503 OA
ATOM     27  H   LIG A   1      -4.824   2.564 132.023  0.00  0.00    +0.292 HD
ENDBRANCH  11  26
TORSDOF 6
ENDMDL
MODEL 3
REMARK VINA RESULT:      -6.7      2.500      5.136
REMARK  Name = NuBBE_1226
REMARK  10 active torsions:
REMARK  status: ('A' for Active; 'I' for Inactive)
REMARK    1  A    between atoms: C_3  and  O_4
REMARK    2  A    between atoms: O_4  and  C_5
REMARK    3  A    between atoms: C_6  and  C_7
REMARK    4  A    between atoms: C_11  and  O_12
REMARK    5  A    between atoms: O_12  and  C_13
REMARK    6  A    between atoms: C_21  and  O_22
REMARK    7  A    between atoms: O_22  and  C_23
REMARK    8  A    between atoms: C_24  and  O_25
REMARK    9  A    between atoms: O_25  and  C_26
REMARK   10  A    between atoms: C_27  and  O_28
REMARK                            x       y       z     vdW  Elec       q    Type
REMARK                         _______ _______ _______ _____ _____    ______ ____
ROOT
ATOM      1  O   LIG A   1      -8.283   2.000 123.181  0.00  0.00    -0.283 OA
ATOM      2  C   LIG A   1      -7.599   1.768 124.180  0.00  0.00    +0.238 A 
ATOM      3  C   LIG A   1      -6.622   2.740 124.756  0.00  0.00    +0.211 A 
ATOM      4  C   LIG A   1      -5.857   2.294 125.774  0.00  0.00    +0.181 A 
ATOM      5  O   LIG A   1      -5.909   1.029 126.326  0.00  0.00    -0.451 OA
ATOM      6  C   LIG A   1      -7.746   0.467 124.855  0.00  0.00    +0.113 A 
ATOM      7  C   LIG A   1      -6.875   0.165 125.889  0.00  0.00    +0.147 A 
ATOM      8  C   LIG A   1      -6.946  -1.069 126.540  0.00  0.00    +0.096 A 
ATOM      9  C   LIG A   1      -7.903  -2.021 126.169  0.00  0.00    +0.169 A 
ATOM     10  C   LIG A   1      -8.826  -1.705 125.149  0.00  0.00    +0.204 A 
ATOM     11  C   LIG A   1      -8.725  -0.464 124.485  0.00  0.00    +0.177 A 
ENDROOT
BRANCH   4  12
ATOM     12  C   LIG A   1      -4.872   3.153 126.446  0.00  0.00    +0.021 A 
ATOM     13  C   LIG A   1      -5.278   4.248 127.215  0.00  0.00    +0.015 A 
ATOM     14  C   LIG A   1      -4.323   5.073 127.818  0.00  0.00    +0.046 A 
ATOM     15  C   LIG A   1      -2.960   4.825 127.645  0.00  0.00    +0.120 A 
ATOM     16  C   LIG A   1      -2.551   3.723 126.894  0.00  0.00    +0.046 A 
ATOM     17  C   LIG A   1      -3.504   2.893 126.294  0.00  0.00    +0.015 A 
BRANCH  15  18
ATOM     18  O   LIG A   1      -2.120   5.695 128.283  0.00  0.00    -0.495 OA
ATOM     19  C   LIG A   1      -2.492   7.069 128.209  0.00  0.00    +0.277 C 
ENDBRANCH  15  18
ENDBRANCH   4  12
BRANCH   3  20
ATOM     20  O   LIG A   1      -6.458   4.028 124.269  0.00  0.00    -0.488 OA
ATOM     21  C   LIG A   1      -5.641   4.174 123.113  0.00  0.00    +0.277 C 
ENDBRANCH   3  20
BRANCH   9  22
ATOM     22  O   LIG A   1      -7.969  -3.270 126.723  0.00  0.00    -0.491 OA
ATOM     23  C   LIG A   1      -8.621  -3.431 127.975  0.00  0.00    +0.277 C 
ENDBRANCH   9  22
BRANCH  10  24
ATOM     24  O   LIG A   1      -9.805  -2.544 124.669  0.00  0.00    -0.488 OA
ATOM     25  C   LIG A   1      -9.448  -3.426 123.612  0.00  0.00    +0.277 C 
ENDBRANCH  10  24
BRANCH  11  26
ATOM     26  O   LIG A   1      -9.625  -0.195 123.478  0.00  0.00    -0.503 OA
ATOM     27  H   LIG A   1     -10.455  -0.690 123.656  0.00  0.00    +0.292 HD
ENDBRANCH  11  26
TORSDOF 6
ENDMDL
MODEL 4
REMARK VINA RESULT:      -6.7      7.040      8.956
REMARK  Name = NuBBE_1226
REMARK  10 active torsions:
REMARK  status: ('A' for Active; 'I' for Inactive)
REMARK    1  A    between atoms: C_3  and  O_4
REMARK    2  A    between atoms: O_4  and  C_5
REMARK    3  A    between atoms: C_6  and  C_7
REMARK    4  A    between atoms: C_11  and  O_12
REMARK    5  A    between atoms: O_12  and  C_13
REMARK    6  A    between atoms: C_21  and  O_22
REMARK    7  A    between atoms: O_22  and  C_23
REMARK    8  A    between atoms: C_24  and  O_25
REMARK    9  A    between atoms: O_25  and  C_26
REMARK   10  A    between atoms: C_27  and  O_28
REMARK                            x       y       z     vdW  Elec       q    Type
REMARK                         _______ _______ _______ _____ _____    ______ ____
ROOT
ATOM      1  O   LIG A   1      -7.936   6.026 133.470  0.00  0.00    -0.283 OA
ATOM      2  C   LIG A   1      -7.790   5.748 132.278  0.00  0.00    +0.238 A 
ATOM      3  C   LIG A   1      -6.498   5.283 131.691  0.00  0.00    +0.211 A 
ATOM      4  C   LIG A   1      -6.463   5.140 130.350  0.00  0.00    +0.181 A 
ATOM      5  O   LIG A   1      -7.514   5.379 129.486  0.00  0.00    -0.451 OA
ATOM      6  C   LIG A   1      -8.946   5.872 131.373  0.00  0.00    +0.113 A 
ATOM      7  C   LIG A   1      -8.736   5.692 130.016  0.00  0.00    +0.147 A 
ATOM      8  C   LIG A   1      -9.788   5.834 129.109  0.00  0.00    +0.096 A 
ATOM      9  C   LIG A   1     -11.078   6.151 129.553  0.00  0.00    +0.169 A 
ATOM     10  C   LIG A   1     -11.313   6.289 130.937  0.00  0.00    +0.204 A 
ATOM     11  C   LIG A   1     -10.235   6.167 131.838  0.00  0.00    +0.177 A 
ENDROOT
BRANCH   4  12
ATOM     12  C   LIG A   1      -5.262   4.669 129.645  0.00  0.00    +0.021 A 
ATOM     13  C   LIG A   1      -4.375   5.573 129.052  0.00  0.00    +0.015 A 
ATOM     14  C   LIG A   1      -3.256   5.103 128.357  0.00  0.00    +0.046 A 
ATOM     15  C   LIG A   1      -3.023   3.732 128.231  0.00  0.00    +0.120 A 
ATOM     16  C   LIG A   1      -3.895   2.828 128.837  0.00  0.00    +0.046 A 
ATOM     17  C   LIG A   1      -5.012   3.295 129.537  0.00  0.00    +0.015 A 
BRANCH  15  18
ATOM     18  O   LIG A   1      -1.898   3.390 127.533  0.00  0.00    -0.495 OA
ATOM     19  C   LIG A   1      -2.054   3.323 126.118  0.00  0.00    +0.277 C 
ENDBRANCH  15  18
ENDBRANCH   4  12
BRANCH   3  20
ATOM     20  O   LIG A   1      -5.364   5.038 132.452  0.00  0.00    -0.488 OA
ATOM     21  C   LIG A   1      -4.602   6.175 132.843  0.00  0.00    +0.277 C 
ENDBRANCH   3  20
BRANCH   9  22
ATOM     22  O   LIG A   1     -12.127   6.372 128.703  0.00  0.00    -0.491 OA
ATOM     23  C   LIG A   1     -11.962   7.297 127.637  0.00  0.00    +0.277 C 
ENDBRANCH   9  22
BRANCH  10  24
ATOM     24  O   LIG A   1     -12.518   6.616 131.514  0.00  0.00    -0.488 OA
ATOM     25  C   LIG A   1     -13.021   7.926 131.281  0.00  0.00    +0.277 C 
ENDBRANCH  10  24
BRANCH  11  26
ATOM     26  O   LIG A   1     -10.491   6.332 133.180  0.00  0.00    -0.503 OA
ATOM     27  H   LIG A   1     -11.149   5.658 133.460  0.00  0.00    +0.292 HD
ENDBRANCH  11  26
TORSDOF 6
ENDMDL
MODEL 5
REMARK VINA RESULT:      -6.6      1.913      8.382
REMARK  Name = NuBBE_1226
REMARK  10 active torsions:
REMARK  status: ('A' for Active; 'I' for Inactive)
REMARK    1  A    between atoms: C_3  and  O_4
REMARK    2  A    between atoms: O_4  and  C_5
REMARK    3  A    between atoms: C_6  and  C_7
REMARK    4  A    between atoms: C_11  and  O_12
REMARK    5  A    between atoms: O_12  and  C_13
REMARK    6  A    between atoms: C_21  and  O_22
REMARK    7  A    between atoms: O_22  and  C_23
REMARK    8  A    between atoms: C_24  and  O_25
REMARK    9  A    between atoms: O_25  and  C_26
REMARK   10  A    between atoms: C_27  and  O_28
REMARK                            x       y       z     vdW  Elec       q    Type
REMARK                         _______ _______ _______ _____ _____    ______ ____
ROOT
ATOM      1  O   LIG A   1      -9.713  -1.876 123.593  0.00  0.00    -0.283 OA
ATOM      2  C   LIG A   1      -9.066  -1.399 124.527  0.00  0.00    +0.238 A 
ATOM      3  C   LIG A   1      -8.510  -2.215 125.647  0.00  0.00    +0.211 A 
ATOM      4  C   LIG A   1      -7.934  -1.535 126.660  0.00  0.00    +0.181 A 
ATOM      5  O   LIG A   1      -7.810  -0.162 126.741  0.00  0.00    -0.451 OA
ATOM      6  C   LIG A   1      -8.814   0.052 124.550  0.00  0.00    +0.113 A 
ATOM      7  C   LIG A   1      -8.208   0.593 125.672  0.00  0.00    +0.147 A 
ATOM      8  C   LIG A   1      -7.979   1.968 125.763  0.00  0.00    +0.096 A 
ATOM      9  C   LIG A   1      -8.348   2.826 124.719  0.00  0.00    +0.169 A 
ATOM     10  C   LIG A   1      -8.922   2.280 123.552  0.00  0.00    +0.204 A 
ATOM     11  C   LIG A   1      -9.169   0.893 123.486  0.00  0.00    +0.177 A 
ENDROOT
BRANCH   4  12
ATOM     12  C   LIG A   1      -7.328  -2.216 127.815  0.00  0.00    +0.021 A 
ATOM     13  C   LIG A   1      -8.124  -2.741 128.838  0.00  0.00    +0.015 A 
ATOM     14  C   LIG A   1      -7.528  -3.354 129.944  0.00  0.00    +0.046 A 
ATOM     15  C   LIG A   1      -6.137  -3.432 130.048  0.00  0.00    +0.120 A 
ATOM     16  C   LIG A   1      -5.341  -2.926 129.021  0.00  0.00    +0.046 A 
ATOM     17  C   LIG A   1      -5.935  -2.317 127.911  0.00  0.00    +0.015 A 
BRANCH  15  18
ATOM     18  O   LIG A   1      -5.667  -4.056 131.171  0.00  0.00    -0.495 OA
ATOM     19  C   LIG A   1      -4.338  -3.710 131.550  0.00  0.00    +0.277 C 
ENDBRANCH  15  18
ENDBRANCH   4  12
BRANCH   3  20
ATOM     20  O   LIG A   1      -8.599  -3.599 125.694  0.00  0.00    -0.488 OA
ATOM     21  C   LIG A   1      -7.805  -4.321 124.759  0.00  0.00    +0.277 C 
ENDBRANCH   3  20
BRANCH   9  22
ATOM     22  O   LIG A   1      -8.213   4.185 124.787  0.00  0.00    -0.491 OA
ATOM     23  C   LIG A   1      -7.193   4.733 125.611  0.00  0.00    +0.277 C 
ENDBRANCH   9  22
BRANCH  10  24
ATOM     24  O   LIG A   1      -9.348   2.999 122.460  0.00  0.00    -0.488 OA
ATOM     25  C   LIG A   1      -8.362   3.411 121.522  0.00  0.00    +0.277 C 
ENDBRANCH  10  24
BRANCH  11  26
ATOM     26  O   LIG A   1      -9.753   0.393 122.344  0.00  0.00    -0.503 OA
ATOM     27  H   LIG A   1     -10.697   0.666 122.327  0.00  0.00    +0.292 HD
ENDBRANCH  11  26
TORSDOF 6
ENDMDL
MODEL 6
REMARK VINA RESULT:      -6.5      5.789      7.949
REMARK  Name = NuBBE_1226
REMARK  10 active torsions:
REMARK  status: ('A' for Active; 'I' for Inactive)
REMARK    1  A    between atoms: C_3  and  O_4
REMARK    2  A    between atoms: O_4  and  C_5
REMARK    3  A    between atoms: C_6  and  C_7
REMARK    4  A    between atoms: C_11  and  O_12
REMARK    5  A    between atoms: O_12  and  C_13
REMARK    6  A    between atoms: C_21  and  O_22
REMARK    7  A    between atoms: O_22  and  C_23
REMARK    8  A    between atoms: C_24  and  O_25
REMARK    9  A    between atoms: O_25  and  C_26
REMARK   10  A    between atoms: C_27  and  O_28
REMARK                            x       y       z     vdW  Elec       q    Type
REMARK                         _______ _______ _______ _____ _____    ______ ____
ROOT
ATOM      1  O   LIG A   1      -7.074   4.782 131.741  0.00  0.00    -0.283 OA
ATOM      2  C   LIG A   1      -7.662   4.995 130.679  0.00  0.00    +0.238 A 
ATOM      3  C   LIG A   1      -8.834   5.914 130.554  0.00  0.00    +0.211 A 
ATOM      4  C   LIG A   1      -9.449   5.947 129.354  0.00  0.00    +0.181 A 
ATOM      5  O   LIG A   1      -9.084   5.214 128.242  0.00  0.00    -0.451 OA
ATOM      6  C   LIG A   1      -7.193   4.319 129.458  0.00  0.00    +0.113 A 
ATOM      7  C   LIG A   1      -7.945   4.458 128.303  0.00  0.00    +0.147 A 
ATOM      8  C   LIG A   1      -7.567   3.808 127.126  0.00  0.00    +0.096 A 
ATOM      9  C   LIG A   1      -6.415   3.013 127.086  0.00  0.00    +0.169 A 
ATOM     10  C   LIG A   1      -5.615   2.903 128.242  0.00  0.00    +0.204 A 
ATOM     11  C   LIG A   1      -6.025   3.545 129.430  0.00  0.00    +0.177 A 
ENDROOT
BRANCH   4  12
ATOM     12  C   LIG A   1     -10.600   6.822 129.089  0.00  0.00    +0.021 A 
ATOM     13  C   LIG A   1     -10.427   8.081 128.505  0.00  0.00    +0.015 A 
ATOM     14  C   LIG A   1     -11.531   8.912 128.293  0.00  0.00    +0.046 A 
ATOM     15  C   LIG A   1     -12.810   8.505 128.676  0.00  0.00    +0.120 A 
ATOM     16  C   LIG A   1     -12.990   7.242 129.241  0.00  0.00    +0.046 A 
ATOM     17  C   LIG A   1     -11.888   6.407 129.450  0.00  0.00    +0.015 A 
BRANCH  15  18
ATOM     18  O   LIG A   1     -13.813   9.398 128.417  0.00  0.00    -0.495 OA
ATOM     19  C   LIG A   1     -13.745  10.621 129.145  0.00  0.00    +0.277 C 
ENDBRANCH  15  18
ENDBRANCH   4  12
BRANCH   3  20
ATOM     20  O   LIG A   1      -9.313   6.678 131.608  0.00  0.00    -0.488 OA
ATOM     21  C   LIG A   1     -10.015   5.983 132.632  0.00  0.00    +0.277 C 
ENDBRANCH   3  20
BRANCH   9  22
ATOM     22  O   LIG A   1      -6.039   2.298 125.981  0.00  0.00    -0.491 OA
ATOM     23  C   LIG A   1      -6.620   1.020 125.762  0.00  0.00    +0.277 C 
ENDBRANCH   9  22
BRANCH  10  24
ATOM     24  O   LIG A   1      -4.473   2.146 128.355  0.00  0.00    -0.488 OA
ATOM     25  C   LIG A   1      -3.257   2.724 127.896  0.00  0.00    +0.277 C 
ENDBRANCH  10  24
BRANCH  11  26
ATOM     26  O   LIG A   1      -5.236   3.400 130.549  0.00  0.00    -0.503 OA
ATOM     27  H   LIG A   1      -5.262   4.236 131.064  0.00  0.00    +0.292 HD
ENDBRANCH  11  26
TORSDOF 6
ENDMDL
MODEL 7
REMARK VINA RESULT:      -6.4      7.950     10.294
REMARK  Name = NuBBE_1226
REMARK  10 active torsions:
REMARK  status: ('A' for Active; 'I' for Inactive)
REMARK    1  A    between atoms: C_3  and  O_4
REMARK    2  A    between atoms: O_4  and  C_5
REMARK    3  A    between atoms: C_6  and  C_7
REMARK    4  A    between atoms: C_11  and  O_12
REMARK    5  A    between atoms: O_12  and  C_13
REMARK    6  A    between atoms: C_21  and  O_22
REMARK    7  A    between atoms: O_22  and  C_23
REMARK    8  A    between atoms: C_24  and  O_25
REMARK    9  A    between atoms: O_25  and  C_26
REMARK   10  A    between atoms: C_27  and  O_28
REMARK                            x       y       z     vdW  Elec       q    Type
REMARK                         _______ _______ _______ _____ _____    ______ ____
ROOT
ATOM      1  O   LIG A   1      -7.299   3.023 130.935  0.00  0.00    -0.283 OA
ATOM      2  C   LIG A   1      -7.895   3.991 131.410  0.00  0.00    +0.238 A 
ATOM      3  C   LIG A   1      -8.911   4.786 130.658  0.00  0.00    +0.211 A 
ATOM      4  C   LIG A   1      -9.384   5.893 131.268  0.00  0.00    +0.181 A 
ATOM      5  O   LIG A   1      -9.014   6.342 132.521  0.00  0.00    -0.451 OA
ATOM      6  C   LIG A   1      -7.603   4.395 132.796  0.00  0.00    +0.113 A 
ATOM      7  C   LIG A   1      -8.174   5.565 133.271  0.00  0.00    +0.147 A 
ATOM      8  C   LIG A   1      -7.902   6.014 134.565  0.00  0.00    +0.096 A 
ATOM      9  C   LIG A   1      -7.057   5.287 135.412  0.00  0.00    +0.169 A 
ATOM     10  C   LIG A   1      -6.508   4.070 134.957  0.00  0.00    +0.204 A 
ATOM     11  C   LIG A   1      -6.773   3.643 133.638  0.00  0.00    +0.177 A 
ENDROOT
BRANCH   4  12
ATOM     12  C   LIG A   1     -10.402   6.753 130.648  0.00  0.00    +0.021 A 
ATOM     13  C   LIG A   1     -10.085   7.575 129.562  0.00  0.00    +0.015 A 
ATOM     14  C   LIG A   1     -11.059   8.411 129.009  0.00  0.00    +0.046 A 
ATOM     15  C   LIG A   1     -12.348   8.450 129.544  0.00  0.00    +0.120 A 
ATOM     16  C   LIG A   1     -12.673   7.619 130.616  0.00  0.00    +0.046 A 
ATOM     17  C   LIG A   1     -11.702   6.777 131.168  0.00  0.00    +0.015 A 
BRANCH  15  18
ATOM     18  O   LIG A   1     -13.217   9.303 128.920  0.00  0.00    -0.495 OA
ATOM     19  C   LIG A   1     -13.420  10.553 129.572  0.00  0.00    +0.277 C 
ENDBRANCH  15  18
ENDBRANCH   4  12
BRANCH   3  20
ATOM     20  O   LIG A   1      -9.340   4.453 129.381  0.00  0.00    -0.488 OA
ATOM     21  C   LIG A   1      -8.370   4.529 128.342  0.00  0.00    +0.277 C 
ENDBRANCH   3  20
BRANCH   9  22
ATOM     22  O   LIG A   1      -6.700   5.719 136.661  0.00  0.00    -0.491 OA
ATOM     23  C   LIG A   1      -7.658   6.418 137.444  0.00  0.00    +0.277 C 
ENDBRANCH   9  22
BRANCH  10  24
ATOM     24  O   LIG A   1      -5.651   3.264 135.668  0.00  0.00    -0.488 OA
ATOM     25  C   LIG A   1      -4.277   3.632 135.693  0.00  0.00    +0.277 C 
ENDBRANCH  10  24
BRANCH  11  26
ATOM     26  O   LIG A   1      -6.203   2.464 133.214  0.00  0.00    -0.503 OA
ATOM     27  H   LIG A   1      -6.014   2.532 132.252  0.00  0.00    +0.292 HD
ENDBRANCH  11  26
TORSDOF 6
ENDMDL
MODEL 8
REMARK VINA RESULT:      -6.4      5.452      7.541
REMARK  Name = NuBBE_1226
REMARK  10 active torsions:
REMARK  status: ('A' for Active; 'I' for Inactive)
REMARK    1  A    between atoms: C_3  and  O_4
REMARK    2  A    between atoms: O_4  and  C_5
REMARK    3  A    between atoms: C_6  and  C_7
REMARK    4  A    between atoms: C_11  and  O_12
REMARK    5  A    between atoms: O_12  and  C_13
REMARK    6  A    between atoms: C_21  and  O_22
REMARK    7  A    between atoms: O_22  and  C_23
REMARK    8  A    between atoms: C_24  and  O_25
REMARK    9  A    between atoms: O_25  and  C_26
REMARK   10  A    between atoms: C_27  and  O_28
REMARK                            x       y       z     vdW  Elec       q    Type
REMARK                         _______ _______ _______ _____ _____    ______ ____
ROOT
ATOM      1  O   LIG A   1      -8.600   2.232 132.946  0.00  0.00    -0.283 OA
ATOM      2  C   LIG A   1      -8.834   2.702 131.831  0.00  0.00    +0.238 A 
ATOM      3  C   LIG A   1      -9.501   4.021 131.614  0.00  0.00    +0.211 A 
ATOM      4  C   LIG A   1      -9.803   4.342 130.339  0.00  0.00    +0.181 A 
ATOM      5  O   LIG A   1      -9.541   3.562 129.229  0.00  0.00    -0.451 OA
ATOM      6  C   LIG A   1      -8.435   1.936 130.639  0.00  0.00    +0.113 A 
ATOM      7  C   LIG A   1      -8.827   2.407 129.397  0.00  0.00    +0.147 A 
ATOM      8  C   LIG A   1      -8.507   1.701 128.235  0.00  0.00    +0.096 A 
ATOM      9  C   LIG A   1      -7.777   0.508 128.300  0.00  0.00    +0.169 A 
ATOM     10  C   LIG A   1      -7.331   0.044 129.556  0.00  0.00    +0.204 A 
ATOM     11  C   LIG A   1      -7.683   0.756 130.721  0.00  0.00    +0.177 A 
ENDROOT
BRANCH   4  12
ATOM     12  C   LIG A   1     -10.441   5.617 129.983  0.00  0.00    +0.021 A 
ATOM     13  C   LIG A   1     -11.833   5.754 129.998  0.00  0.00    +0.015 A 
ATOM     14  C   LIG A   1     -12.421   6.965 129.624  0.00  0.00    +0.046 A 
ATOM     15  C   LIG A   1     -11.632   8.042 129.214  0.00  0.00    +0.120 A 
ATOM     16  C   LIG A   1     -10.243   7.915 129.215  0.00  0.00    +0.046 A 
ATOM     17  C   LIG A   1      -9.651   6.706 129.595  0.00  0.00    +0.015 A 
BRANCH  15  18
ATOM     18  O   LIG A   1     -12.316   9.176 128.874  0.00  0.00    -0.495 OA
ATOM     19  C   LIG A   1     -13.081   9.765 129.921  0.00  0.00    +0.277 C 
ENDBRANCH  15  18
ENDBRANCH   4  12
BRANCH   3  20
ATOM     20  O   LIG A   1      -9.841   4.878 132.651  0.00  0.00    -0.488 OA
ATOM     21  C   LIG A   1      -8.797   5.689 133.178  0.00  0.00    +0.277 C 
ENDBRANCH   3  20
BRANCH   9  22
ATOM     22  O   LIG A   1      -7.500  -0.260 127.202  0.00  0.00    -0.491 OA
ATOM     23  C   LIG A   1      -8.570  -0.658 126.357  0.00  0.00    +0.277 C 
ENDBRANCH   9  22
BRANCH  10  24
ATOM     24  O   LIG A   1      -6.624  -1.115 129.774  0.00  0.00    -0.488 OA
ATOM     25  C   LIG A   1      -7.360  -2.332 129.817  0.00  0.00    +0.277 C 
ENDBRANCH  10  24
BRANCH  11  26
ATOM     26  O   LIG A   1      -7.254   0.264 131.933  0.00  0.00    -0.503 OA
ATOM     27  H   LIG A   1      -7.881   0.556 132.632  0.00  0.00    +0.292 HD
ENDBRANCH  11  26
TORSDOF 6
ENDMDL
MODEL 9
REMARK VINA RESULT:      -6.3      3.729      5.619
REMARK  Name = NuBBE_1226
REMARK  10 active torsions:
REMARK  status: ('A' for Active; 'I' for Inactive)
REMARK    1  A    between atoms: C_3  and  O_4
REMARK    2  A    between atoms: O_4  and  C_5
REMARK    3  A    between atoms: C_6  and  C_7
REMARK    4  A    between atoms: C_11  and  O_12
REMARK    5  A    between atoms: O_12  and  C_13
REMARK    6  A    between atoms: C_21  and  O_22
REMARK    7  A    between atoms: O_22  and  C_23
REMARK    8  A    between atoms: C_24  and  O_25
REMARK    9  A    between atoms: O_25  and  C_26
REMARK   10  A    between atoms: C_27  and  O_28
REMARK                            x       y       z     vdW  Elec       q    Type
REMARK                         _______ _______ _______ _____ _____    ______ ____
ROOT
ATOM      1  O   LIG A   1      -9.497   2.247 124.881  0.00  0.00    -0.283 OA
ATOM      2  C   LIG A   1      -8.364   1.909 125.230  0.00  0.00    +0.238 A 
ATOM      3  C   LIG A   1      -7.491   2.739 126.113  0.00  0.00    +0.211 A 
ATOM      4  C   LIG A   1      -6.231   2.295 126.304  0.00  0.00    +0.181 A 
ATOM      5  O   LIG A   1      -5.692   1.145 125.761  0.00  0.00    -0.451 OA
ATOM      6  C   LIG A   1      -7.832   0.618 124.764  0.00  0.00    +0.113 A 
ATOM      7  C   LIG A   1      -6.510   0.314 125.047  0.00  0.00    +0.147 A 
ATOM      8  C   LIG A   1      -5.943  -0.880 124.597  0.00  0.00    +0.096 A 
ATOM      9  C   LIG A   1      -6.700  -1.799 123.860  0.00  0.00    +0.169 A 
ATOM     10  C   LIG A   1      -8.060  -1.523 123.607  0.00  0.00    +0.204 A 
ATOM     11  C   LIG A   1      -8.611  -0.301 124.047  0.00  0.00    +0.177 A 
ENDROOT
BRANCH   4  12
ATOM     12  C   LIG A   1      -5.274   3.005 127.165  0.00  0.00    +0.021 A 
ATOM     13  C   LIG A   1      -5.271   2.807 128.550  0.00  0.00    +0.015 A 
ATOM     14  C   LIG A   1      -4.375   3.517 129.356  0.00  0.00    +0.046 A 
ATOM     15  C   LIG A   1      -3.491   4.440 128.793  0.00  0.00    +0.120 A 
ATOM     16  C   LIG A   1      -3.480   4.626 127.411  0.00  0.00    +0.046 A 
ATOM     17  C   LIG A   1      -4.371   3.914 126.601  0.00  0.00    +0.015 A 
BRANCH  15  18
ATOM     18  O   LIG A   1      -2.661   5.073 129.677  0.00  0.00    -0.495 OA
ATOM     19  C   LIG A   1      -2.278   6.396 129.315  0.00  0.00    +0.277 C 
ENDBRANCH  15  18
ENDBRANCH   4  12
BRANCH   3  20
ATOM     20  O   LIG A   1      -7.909   3.929 126.691  0.00  0.00    -0.488 OA
ATOM     21  C   LIG A   1      -8.057   5.044 125.820  0.00  0.00    +0.277 C 
ENDBRANCH   3  20
BRANCH   9  22
ATOM     22  O   LIG A   1      -6.175  -2.948 123.335  0.00  0.00    -0.491 OA
ATOM     23  C   LIG A   1      -5.001  -3.495 123.918  0.00  0.00    +0.277 C 
ENDBRANCH   9  22
BRANCH  10  24
ATOM     24  O   LIG A   1      -8.917  -2.320 122.885  0.00  0.00    -0.488 OA
ATOM     25  C   LIG A   1      -9.549  -3.393 123.572  0.00  0.00    +0.277 C 
ENDBRANCH  10  24
BRANCH  11  26
ATOM     26  O   LIG A   1      -9.934  -0.049 123.764  0.00  0.00    -0.503 OA
ATOM     27  H   LIG A   1      -9.990   0.763 123.212  0.00  0.00    +0.292 HD
ENDBRANCH  11  26
TORSDOF 6
ENDMDL
