MODEL 1
REMARK VINA RESULT:      -8.5      0.000      0.000
REMARK  Name = NuBBE_2279
REMARK  6 active torsions:
REMARK  status: ('A' for Active; 'I' for Inactive)
REMARK    1  A    between atoms: O_1  and  C_2
REMARK    2  A    between atoms: C_7  and  C_8
REMARK    3  A    between atoms: C_11  and  O_12
REMARK    4  A    between atoms: O_12  and  C_13
REMARK    5  A    between atoms: C_23  and  C_24
REMARK    6  A    between atoms: C_23  and  C_25
REMARK                            x       y       z     vdW  Elec       q    Type
REMARK                         _______ _______ _______ _____ _____    ______ ____
ROOT
ATOM      1  C   LIG A   1      -8.029  -1.138 125.675  0.00  0.00    +0.142 A 
ATOM      2  C   LIG A   1      -7.409   0.068 125.313  0.00  0.00    +0.107 A 
ATOM      3  C   LIG A   1      -6.552   0.701 126.205  0.00  0.00    +0.145 A 
ATOM      4  O   LIG A   1      -5.900   1.868 125.909  0.00  0.00    -0.462 OA
ATOM      5  C   LIG A   1      -6.117   2.428 124.674  0.00  0.00    +0.208 A 
ATOM      6  C   LIG A   1      -6.927   1.972 123.703  0.00  0.00    +0.064 A 
ATOM      7  C   LIG A   1      -7.646   0.697 124.004  0.00  0.00    +0.204 A 
ATOM      8  O   LIG A   1      -8.426   0.156 123.223  0.00  0.00    -0.286 OA
ATOM      9  C   LIG A   1      -6.318   0.152 127.463  0.00  0.00    +0.093 A 
ATOM     10  C   LIG A   1      -6.944  -1.042 127.830  0.00  0.00    +0.136 A 
ATOM     11  C   LIG A   1      -7.798  -1.701 126.940  0.00  0.00    +0.059 A 
ATOM     12  C   LIG A   1      -8.420  -2.952 127.352  0.00  0.00    +0.015 C 
ATOM     13  C   LIG A   1      -8.181  -3.403 128.586  0.00  0.00    +0.020 C 
ATOM     14  C   LIG A   1      -7.297  -2.683 129.575  0.00  0.00    +0.123 C 
ATOM     15  C   LIG A   1      -8.134  -2.255 130.785  0.00  0.00    +0.060 C 
ATOM     16  C   LIG A   1      -6.174  -3.623 130.027  0.00  0.00    +0.060 C 
ATOM     17  O   LIG A   1      -6.647  -1.493 129.085  0.00  0.00    -0.481 OA
ENDROOT
BRANCH   6  18
ATOM     18  C   LIG A   1      -7.075   2.696 122.417  0.00  0.00    -0.011 A 
ATOM     19  C   LIG A   1      -5.962   3.021 121.624  0.00  0.00    +0.012 A 
ATOM     20  C   LIG A   1      -6.112   3.725 120.424  0.00  0.00    +0.046 A 
ATOM     21  C   LIG A   1      -7.371   4.137 119.992  0.00  0.00    +0.120 A 
ATOM     22  C   LIG A   1      -8.484   3.826 120.765  0.00  0.00    +0.046 A 
ATOM     23  C   LIG A   1      -8.336   3.105 121.957  0.00  0.00    +0.012 A 
BRANCH  21  24
ATOM     24  O   LIG A   1      -7.379   4.833 118.815  0.00  0.00    -0.495 OA
ATOM     25  C   LIG A   1      -6.176   5.508 118.468  0.00  0.00    +0.277 C 
ENDBRANCH  21  24
ENDBRANCH   6  18
BRANCH   1  26
ATOM     26  O   LIG A   1      -8.873  -1.801 124.813  0.00  0.00    -0.505 OA
ATOM     27  H   LIG A   1      -8.889  -1.314 123.958  0.00  0.00    +0.292 HD
ENDBRANCH   1  26
TORSDOF 3
ENDMDL
MODEL 2
REMARK VINA RESULT:      -8.3      2.507      3.476
REMARK  Name = NuBBE_2279
REMARK  6 active torsions:
REMARK  status: ('A' for Active; 'I' for Inactive)
REMARK    1  A    between atoms: O_1  and  C_2
REMARK    2  A    between atoms: C_7  and  C_8
REMARK    3  A    between atoms: C_11  and  O_12
REMARK    4  A    between atoms: O_12  and  C_13
REMARK    5  A    between atoms: C_23  and  C_24
REMARK    6  A    between atoms: C_23  and  C_25
REMARK                            x       y       z     vdW  Elec       q    Type
REMARK                         _______ _______ _______ _____ _____    ______ ____
ROOT
ATOM      1  C   LIG A   1      -8.117   3.353 127.503  0.00  0.00    +0.142 A 
ATOM      2  C   LIG A   1      -7.881   2.647 126.313  0.00  0.00    +0.107 A 
ATOM      3  C   LIG A   1      -7.713   1.267 126.346  0.00  0.00    +0.145 A 
ATOM      4  O   LIG A   1      -7.500   0.517 125.221  0.00  0.00    -0.462 OA
ATOM      5  C   LIG A   1      -7.446   1.170 124.014  0.00  0.00    +0.208 A 
ATOM      6  C   LIG A   1      -7.560   2.492 123.798  0.00  0.00    +0.064 A 
ATOM      7  C   LIG A   1      -7.797   3.330 125.012  0.00  0.00    +0.204 A 
ATOM      8  O   LIG A   1      -7.915   4.554 124.980  0.00  0.00    -0.286 OA
ATOM      9  C   LIG A   1      -7.761   0.585 127.558  0.00  0.00    +0.093 A 
ATOM     10  C   LIG A   1      -7.984   1.286 128.745  0.00  0.00    +0.136 A 
ATOM     11  C   LIG A   1      -8.170   2.673 128.729  0.00  0.00    +0.059 A 
ATOM     12  C   LIG A   1      -8.415   3.368 129.986  0.00  0.00    +0.015 C 
ATOM     13  C   LIG A   1      -8.412   2.656 131.115  0.00  0.00    +0.020 C 
ATOM     14  C   LIG A   1      -8.170   1.167 131.157  0.00  0.00    +0.123 C 
ATOM     15  C   LIG A   1      -6.889   0.883 131.949  0.00  0.00    +0.060 C 
ATOM     16  C   LIG A   1      -9.362   0.480 131.833  0.00  0.00    +0.060 C 
ATOM     17  O   LIG A   1      -8.012   0.521 129.877  0.00  0.00    -0.481 OA
ENDROOT
BRANCH   6  18
ATOM     18  C   LIG A   1      -7.465   3.062 122.432  0.00  0.00    -0.011 A 
ATOM     19  C   LIG A   1      -6.227   3.407 121.864  0.00  0.00    +0.012 A 
ATOM     20  C   LIG A   1      -6.150   3.965 120.583  0.00  0.00    +0.046 A 
ATOM     21  C   LIG A   1      -7.305   4.212 119.843  0.00  0.00    +0.120 A 
ATOM     22  C   LIG A   1      -8.540   3.878 120.390  0.00  0.00    +0.046 A 
ATOM     23  C   LIG A   1      -8.614   3.301 121.665  0.00  0.00    +0.012 A 
BRANCH  21  24
ATOM     24  O   LIG A   1      -7.096   4.779 118.617  0.00  0.00    -0.495 OA
ATOM     25  C   LIG A   1      -5.987   5.663 118.507  0.00  0.00    +0.277 C 
ENDBRANCH  21  24
ENDBRANCH   6  18
BRANCH   1  26
ATOM     26  O   LIG A   1      -8.301   4.717 127.507  0.00  0.00    -0.505 OA
ATOM     27  H   LIG A   1      -7.632   5.122 126.910  0.00  0.00    +0.292 HD
ENDBRANCH   1  26
TORSDOF 3
ENDMDL
MODEL 3
REMARK VINA RESULT:      -8.2      7.196      8.490
REMARK  Name = NuBBE_2279
REMARK  6 active torsions:
REMARK  status: ('A' for Active; 'I' for Inactive)
REMARK    1  A    between atoms: O_1  and  C_2
REMARK    2  A    between atoms: C_7  and  C_8
REMARK    3  A    between atoms: C_11  and  O_12
REMARK    4  A    between atoms: O_12  and  C_13
REMARK    5  A    between atoms: C_23  and  C_24
REMARK    6  A    between atoms: C_23  and  C_25
REMARK                            x       y       z     vdW  Elec       q    Type
REMARK                         _______ _______ _______ _____ _____    ______ ____
ROOT
ATOM      1  C   LIG A   1      -8.739   2.282 130.521  0.00  0.00    +0.142 A 
ATOM      2  C   LIG A   1      -9.207   3.416 131.203  0.00  0.00    +0.107 A 
ATOM      3  C   LIG A   1      -8.988   3.543 132.570  0.00  0.00    +0.145 A 
ATOM      4  O   LIG A   1      -9.401   4.631 133.291  0.00  0.00    -0.462 OA
ATOM      5  C   LIG A   1     -10.064   5.630 132.622  0.00  0.00    +0.208 A 
ATOM      6  C   LIG A   1     -10.385   5.663 131.317  0.00  0.00    +0.064 A 
ATOM      7  C   LIG A   1      -9.941   4.487 130.510  0.00  0.00    +0.204 A 
ATOM      8  O   LIG A   1     -10.163   4.365 129.306  0.00  0.00    -0.286 OA
ATOM      9  C   LIG A   1      -8.319   2.542 133.268  0.00  0.00    +0.093 A 
ATOM     10  C   LIG A   1      -7.862   1.407 132.594  0.00  0.00    +0.136 A 
ATOM     11  C   LIG A   1      -8.061   1.268 131.216  0.00  0.00    +0.059 A 
ATOM     12  C   LIG A   1      -7.557   0.078 130.545  0.00  0.00    +0.015 C 
ATOM     13  C   LIG A   1      -6.957  -0.860 131.282  0.00  0.00    +0.020 C 
ATOM     14  C   LIG A   1      -6.772  -0.748 132.776  0.00  0.00    +0.123 C 
ATOM     15  C   LIG A   1      -7.547  -1.873 133.469  0.00  0.00    +0.060 C 
ATOM     16  C   LIG A   1      -5.280  -0.862 133.111  0.00  0.00    +0.060 C 
ATOM     17  O   LIG A   1      -7.220   0.486 133.373  0.00  0.00    -0.481 OA
ENDROOT
BRANCH   6  18
ATOM     18  C   LIG A   1     -11.123   6.809 130.732  0.00  0.00    -0.011 A 
ATOM     19  C   LIG A   1     -12.377   7.205 131.227  0.00  0.00    +0.012 A 
ATOM     20  C   LIG A   1     -13.075   8.273 130.653  0.00  0.00    +0.046 A 
ATOM     21  C   LIG A   1     -12.552   8.961 129.560  0.00  0.00    +0.120 A 
ATOM     22  C   LIG A   1     -11.313   8.582 129.055  0.00  0.00    +0.046 A 
ATOM     23  C   LIG A   1     -10.605   7.525 129.643  0.00  0.00    +0.012 A 
BRANCH  21  24
ATOM     24  O   LIG A   1     -13.341   9.969 129.080  0.00  0.00    -0.495 OA
ATOM     25  C   LIG A   1     -13.515  11.098 129.926  0.00  0.00    +0.277 C 
ENDBRANCH  21  24
ENDBRANCH   6  18
BRANCH   1  26
ATOM     26  O   LIG A   1      -8.925   2.128 129.166  0.00  0.00    -0.505 OA
ATOM     27  H   LIG A   1      -8.701   2.977 128.723  0.00  0.00    +0.292 HD
ENDBRANCH   1  26
TORSDOF 3
ENDMDL
MODEL 4
REMARK VINA RESULT:      -8.1      4.634      5.573
REMARK  Name = NuBBE_2279
REMARK  6 active torsions:
REMARK  status: ('A' for Active; 'I' for Inactive)
REMARK    1  A    between atoms: O_1  and  C_2
REMARK    2  A    between atoms: C_7  and  C_8
REMARK    3  A    between atoms: C_11  and  O_12
REMARK    4  A    between atoms: O_12  and  C_13
REMARK    5  A    between atoms: C_23  and  C_24
REMARK    6  A    between atoms: C_23  and  C_25
REMARK                            x       y       z     vdW  Elec       q    Type
REMARK                         _______ _______ _______ _____ _____    ______ ____
ROOT
ATOM      1  C   LIG A   1      -8.700   5.130 128.746  0.00  0.00    +0.142 A 
ATOM      2  C   LIG A   1      -7.867   4.332 127.947  0.00  0.00    +0.107 A 
ATOM      3  C   LIG A   1      -7.018   3.405 128.540  0.00  0.00    +0.145 A 
ATOM      4  O   LIG A   1      -6.195   2.583 127.819  0.00  0.00    -0.462 OA
ATOM      5  C   LIG A   1      -6.216   2.693 126.451  0.00  0.00    +0.208 A 
ATOM      6  C   LIG A   1      -6.950   3.544 125.713  0.00  0.00    +0.064 A 
ATOM      7  C   LIG A   1      -7.858   4.450 126.480  0.00  0.00    +0.204 A 
ATOM      8  O   LIG A   1      -8.586   5.288 125.951  0.00  0.00    -0.286 OA
ATOM      9  C   LIG A   1      -6.978   3.278 129.926  0.00  0.00    +0.093 A 
ATOM     10  C   LIG A   1      -7.798   4.080 130.724  0.00  0.00    +0.136 A 
ATOM     11  C   LIG A   1      -8.670   5.007 130.143  0.00  0.00    +0.059 A 
ATOM     12  C   LIG A   1      -9.520   5.815 131.007  0.00  0.00    +0.015 C 
ATOM     13  C   LIG A   1      -9.404   5.668 132.329  0.00  0.00    +0.020 C 
ATOM     14  C   LIG A   1      -8.439   4.703 132.974  0.00  0.00    +0.123 C 
ATOM     15  C   LIG A   1      -7.418   5.488 133.805  0.00  0.00    +0.060 C 
ATOM     16  C   LIG A   1      -9.215   3.740 133.880  0.00  0.00    +0.060 C 
ATOM     17  O   LIG A   1      -7.680   3.875 132.069  0.00  0.00    -0.481 OA
ENDROOT
BRANCH   6  18
ATOM     18  C   LIG A   1      -6.857   3.561 124.233  0.00  0.00    -0.011 A 
ATOM     19  C   LIG A   1      -5.704   4.019 123.575  0.00  0.00    +0.012 A 
ATOM     20  C   LIG A   1      -5.636   4.053 122.177  0.00  0.00    +0.046 A 
ATOM     21  C   LIG A   1      -6.720   3.649 121.401  0.00  0.00    +0.120 A 
ATOM     22  C   LIG A   1      -7.871   3.194 122.036  0.00  0.00    +0.046 A 
ATOM     23  C   LIG A   1      -7.931   3.143 123.435  0.00  0.00    +0.012 A 
BRANCH  21  24
ATOM     24  O   LIG A   1      -6.534   3.750 120.051  0.00  0.00    -0.495 OA
ATOM     25  C   LIG A   1      -7.604   4.315 119.302  0.00  0.00    +0.277 C 
ENDBRANCH  21  24
ENDBRANCH   6  18
BRANCH   1  26
ATOM     26  O   LIG A   1      -9.564   6.049 128.193  0.00  0.00    -0.505 OA
ATOM     27  H   LIG A   1      -9.870   6.654 128.905  0.00  0.00    +0.292 HD
ENDBRANCH   1  26
TORSDOF 3
ENDMDL
MODEL 5
REMARK VINA RESULT:      -7.8      9.003     12.390
REMARK  Name = NuBBE_2279
REMARK  6 active torsions:
REMARK  status: ('A' for Active; 'I' for Inactive)
REMARK    1  A    between atoms: O_1  and  C_2
REMARK    2  A    between atoms: C_7  and  C_8
REMARK    3  A    between atoms: C_11  and  O_12
REMARK    4  A    between atoms: O_12  and  C_13
REMARK    5  A    between atoms: C_23  and  C_24
REMARK    6  A    between atoms: C_23  and  C_25
REMARK                            x       y       z     vdW  Elec       q    Type
REMARK                         _______ _______ _______ _____ _____    ______ ____
ROOT
ATOM      1  C   LIG A   1      -8.678   6.942 130.774  0.00  0.00    +0.142 A 
ATOM      2  C   LIG A   1      -8.787   6.047 131.849  0.00  0.00    +0.107 A 
ATOM      3  C   LIG A   1     -10.015   5.467 132.148  0.00  0.00    +0.145 A 
ATOM      4  O   LIG A   1     -10.186   4.572 133.169  0.00  0.00    -0.462 OA
ATOM      5  C   LIG A   1      -9.088   4.247 133.928  0.00  0.00    +0.208 A 
ATOM      6  C   LIG A   1      -7.839   4.726 133.800  0.00  0.00    +0.064 A 
ATOM      7  C   LIG A   1      -7.629   5.703 132.689  0.00  0.00    +0.204 A 
ATOM      8  O   LIG A   1      -6.547   6.236 132.447  0.00  0.00    -0.286 OA
ATOM      9  C   LIG A   1     -11.141   5.784 131.393  0.00  0.00    +0.093 A 
ATOM     10  C   LIG A   1     -11.038   6.683 130.330  0.00  0.00    +0.136 A 
ATOM     11  C   LIG A   1      -9.808   7.266 130.006  0.00  0.00    +0.059 A 
ATOM     12  C   LIG A   1      -9.737   8.188 128.880  0.00  0.00    +0.015 C 
ATOM     13  C   LIG A   1     -10.863   8.475 128.223  0.00  0.00    +0.020 C 
ATOM     14  C   LIG A   1     -12.206   7.890 128.585  0.00  0.00    +0.123 C 
ATOM     15  C   LIG A   1     -13.150   9.017 129.019  0.00  0.00    +0.060 C 
ATOM     16  C   LIG A   1     -12.788   7.166 127.366  0.00  0.00    +0.060 C 
ATOM     17  O   LIG A   1     -12.202   6.925 129.656  0.00  0.00    -0.481 OA
ENDROOT
BRANCH   6  18
ATOM     18  C   LIG A   1      -6.749   4.293 134.709  0.00  0.00    -0.011 A 
ATOM     19  C   LIG A   1      -6.058   3.088 134.504  0.00  0.00    +0.012 A 
ATOM     20  C   LIG A   1      -5.046   2.678 135.380  0.00  0.00    +0.046 A 
ATOM     21  C   LIG A   1      -4.711   3.448 136.491  0.00  0.00    +0.120 A 
ATOM     22  C   LIG A   1      -5.386   4.644 136.711  0.00  0.00    +0.046 A 
ATOM     23  C   LIG A   1      -6.385   5.064 135.823  0.00  0.00    +0.012 A 
BRANCH  21  24
ATOM     24  O   LIG A   1      -3.722   2.928 137.279  0.00  0.00    -0.495 OA
ATOM     25  C   LIG A   1      -3.751   1.521 137.488  0.00  0.00    +0.277 C 
ENDBRANCH  21  24
ENDBRANCH   6  18
BRANCH   1  26
ATOM     26  O   LIG A   1      -7.477   7.525 130.440  0.00  0.00    -0.505 OA
ATOM     27  H   LIG A   1      -6.788   6.824 130.416  0.00  0.00    +0.292 HD
ENDBRANCH   1  26
TORSDOF 3
ENDMDL
MODEL 6
REMARK VINA RESULT:      -7.7      7.246      8.601
REMARK  Name = NuBBE_2279
REMARK  6 active torsions:
REMARK  status: ('A' for Active; 'I' for Inactive)
REMARK    1  A    between atoms: O_1  and  C_2
REMARK    2  A    between atoms: C_7  and  C_8
REMARK    3  A    between atoms: C_11  and  O_12
REMARK    4  A    between atoms: O_12  and  C_13
REMARK    5  A    between atoms: C_23  and  C_24
REMARK    6  A    between atoms: C_23  and  C_25
REMARK                            x       y       z     vdW  Elec       q    Type
REMARK                         _______ _______ _______ _____ _____    ______ ____
ROOT
ATOM      1  C   LIG A   1      -6.785   4.391 130.671  0.00  0.00    +0.142 A 
ATOM      2  C   LIG A   1      -8.183   4.423 130.544  0.00  0.00    +0.107 A 
ATOM      3  C   LIG A   1      -8.917   3.249 130.668  0.00  0.00    +0.145 A 
ATOM      4  O   LIG A   1     -10.283   3.213 130.575  0.00  0.00    -0.462 OA
ATOM      5  C   LIG A   1     -10.941   4.395 130.344  0.00  0.00    +0.208 A 
ATOM      6  C   LIG A   1     -10.396   5.612 130.173  0.00  0.00    +0.064 A 
ATOM      7  C   LIG A   1      -8.907   5.675 130.273  0.00  0.00    +0.204 A 
ATOM      8  O   LIG A   1      -8.259   6.712 130.134  0.00  0.00    -0.286 OA
ATOM      9  C   LIG A   1      -8.270   2.039 130.901  0.00  0.00    +0.093 A 
ATOM     10  C   LIG A   1      -6.878   2.003 131.015  0.00  0.00    +0.136 A 
ATOM     11  C   LIG A   1      -6.124   3.176 130.908  0.00  0.00    +0.059 A 
ATOM     12  C   LIG A   1      -4.676   3.101 131.048  0.00  0.00    +0.015 C 
ATOM     13  C   LIG A   1      -4.118   1.903 131.233  0.00  0.00    +0.020 C 
ATOM     14  C   LIG A   1      -4.912   0.621 131.309  0.00  0.00    +0.123 C 
ATOM     15  C   LIG A   1      -4.512  -0.291 130.144  0.00  0.00    +0.060 C 
ATOM     16  C   LIG A   1      -4.618  -0.078 132.641  0.00  0.00    +0.060 C 
ATOM     17  O   LIG A   1      -6.345   0.766 131.242  0.00  0.00    -0.481 OA
ENDROOT
BRANCH   6  18
ATOM     18  C   LIG A   1     -11.237   6.806 129.912  0.00  0.00    -0.011 A 
ATOM     19  C   LIG A   1     -11.129   7.534 128.716  0.00  0.00    +0.012 A 
ATOM     20  C   LIG A   1     -11.911   8.672 128.490  0.00  0.00    +0.046 A 
ATOM     21  C   LIG A   1     -12.806   9.125 129.456  0.00  0.00    +0.120 A 
ATOM     22  C   LIG A   1     -12.926   8.417 130.648  0.00  0.00    +0.046 A 
ATOM     23  C   LIG A   1     -12.156   7.267 130.866  0.00  0.00    +0.012 A 
BRANCH  21  24
ATOM     24  O   LIG A   1     -13.494  10.258 129.122  0.00  0.00    -0.495 OA
ATOM     25  C   LIG A   1     -13.568  11.273 130.115  0.00  0.00    +0.277 C 
ENDBRANCH  21  24
ENDBRANCH   6  18
BRANCH   1  26
ATOM     26  O   LIG A   1      -6.026   5.535 130.567  0.00  0.00    -0.505 OA
ATOM     27  H   LIG A   1      -5.122   5.282 130.274  0.00  0.00    +0.292 HD
ENDBRANCH   1  26
TORSDOF 3
ENDMDL
MODEL 7
REMARK VINA RESULT:      -7.7      7.244     10.757
REMARK  Name = NuBBE_2279
REMARK  6 active torsions:
REMARK  status: ('A' for Active; 'I' for Inactive)
REMARK    1  A    between atoms: O_1  and  C_2
REMARK    2  A    between atoms: C_7  and  C_8
REMARK    3  A    between atoms: C_11  and  O_12
REMARK    4  A    between atoms: O_12  and  C_13
REMARK    5  A    between atoms: C_23  and  C_24
REMARK    6  A    between atoms: C_23  and  C_25
REMARK                            x       y       z     vdW  Elec       q    Type
REMARK                         _______ _______ _______ _____ _____    ______ ____
ROOT
ATOM      1  C   LIG A   1      -9.984   5.463 131.692  0.00  0.00    +0.142 A 
ATOM      2  C   LIG A   1      -8.802   5.000 131.095  0.00  0.00    +0.107 A 
ATOM      3  C   LIG A   1      -8.522   5.321 129.772  0.00  0.00    +0.145 A 
ATOM      4  O   LIG A   1      -7.379   4.918 129.135  0.00  0.00    -0.462 OA
ATOM      5  C   LIG A   1      -6.482   4.160 129.845  0.00  0.00    +0.208 A 
ATOM      6  C   LIG A   1      -6.599   3.736 131.115  0.00  0.00    +0.064 A 
ATOM      7  C   LIG A   1      -7.838   4.166 131.831  0.00  0.00    +0.204 A 
ATOM      8  O   LIG A   1      -8.095   3.855 132.993  0.00  0.00    -0.286 OA
ATOM      9  C   LIG A   1      -9.418   6.087 129.032  0.00  0.00    +0.093 A 
ATOM     10  C   LIG A   1     -10.601   6.540 129.620  0.00  0.00    +0.136 A 
ATOM     11  C   LIG A   1     -10.893   6.239 130.955  0.00  0.00    +0.059 A 
ATOM     12  C   LIG A   1     -12.129   6.741 131.539  0.00  0.00    +0.015 C 
ATOM     13  C   LIG A   1     -12.960   7.439 130.762  0.00  0.00    +0.020 C 
ATOM     14  C   LIG A   1     -12.683   7.737 129.309  0.00  0.00    +0.123 C 
ATOM     15  C   LIG A   1     -13.755   7.069 128.441  0.00  0.00    +0.060 C 
ATOM     16  C   LIG A   1     -12.707   9.254 129.089  0.00  0.00    +0.060 C 
ATOM     17  O   LIG A   1     -11.409   7.282 128.807  0.00  0.00    -0.481 OA
ENDROOT
BRANCH   6  18
ATOM     18  C   LIG A   1      -5.550   2.903 131.752  0.00  0.00    -0.011 A 
ATOM     19  C   LIG A   1      -4.379   3.473 132.280  0.00  0.00    +0.012 A 
ATOM     20  C   LIG A   1      -3.385   2.675 132.858  0.00  0.00    +0.046 A 
ATOM     21  C   LIG A   1      -3.523   1.290 132.908  0.00  0.00    +0.120 A 
ATOM     22  C   LIG A   1      -4.675   0.708 132.390  0.00  0.00    +0.046 A 
ATOM     23  C   LIG A   1      -5.679   1.508 131.828  0.00  0.00    +0.012 A 
BRANCH  21  24
ATOM     24  O   LIG A   1      -2.474   0.624 133.479  0.00  0.00    -0.495 OA
ATOM     25  C   LIG A   1      -2.655  -0.767 133.710  0.00  0.00    +0.277 C 
ENDBRANCH  21  24
ENDBRANCH   6  18
BRANCH   1  26
ATOM     26  O   LIG A   1     -10.289   5.177 133.004  0.00  0.00    -0.505 OA
ATOM     27  H   LIG A   1     -10.488   4.216 133.073  0.00  0.00    +0.292 HD
ENDBRANCH   1  26
TORSDOF 3
ENDMDL
MODEL 8
REMARK VINA RESULT:      -7.5      4.284      8.346
REMARK  Name = NuBBE_2279
REMARK  6 active torsions:
REMARK  status: ('A' for Active; 'I' for Inactive)
REMARK    1  A    between atoms: O_1  and  C_2
REMARK    2  A    between atoms: C_7  and  C_8
REMARK    3  A    between atoms: C_11  and  O_12
REMARK    4  A    between atoms: O_12  and  C_13
REMARK    5  A    between atoms: C_23  and  C_24
REMARK    6  A    between atoms: C_23  and  C_25
REMARK                            x       y       z     vdW  Elec       q    Type
REMARK                         _______ _______ _______ _____ _____    ______ ____
ROOT
ATOM      1  C   LIG A   1      -7.703  -1.120 128.040  0.00  0.00    +0.142 A 
ATOM      2  C   LIG A   1      -8.056   0.191 128.398  0.00  0.00    +0.107 A 
ATOM      3  C   LIG A   1      -8.574   1.055 127.440  0.00  0.00    +0.145 A 
ATOM      4  O   LIG A   1      -8.956   2.338 127.726  0.00  0.00    -0.462 OA
ATOM      5  C   LIG A   1      -8.811   2.778 129.018  0.00  0.00    +0.208 A 
ATOM      6  C   LIG A   1      -8.307   2.095 130.060  0.00  0.00    +0.064 A 
ATOM      7  C   LIG A   1      -7.886   0.690 129.771  0.00  0.00    +0.204 A 
ATOM      8  O   LIG A   1      -7.401  -0.061 130.616  0.00  0.00    -0.286 OA
ATOM      9  C   LIG A   1      -8.729   0.630 126.124  0.00  0.00    +0.093 A 
ATOM     10  C   LIG A   1      -8.367  -0.670 125.763  0.00  0.00    +0.136 A 
ATOM     11  C   LIG A   1      -7.858  -1.558 126.716  0.00  0.00    +0.059 A 
ATOM     12  C   LIG A   1      -7.506  -2.911 126.305  0.00  0.00    +0.015 C 
ATOM     13  C   LIG A   1      -7.646  -3.240 125.019  0.00  0.00    +0.020 C 
ATOM     14  C   LIG A   1      -8.153  -2.282 123.969  0.00  0.00    +0.123 C 
ATOM     15  C   LIG A   1      -7.052  -2.038 122.931  0.00  0.00    +0.060 C 
ATOM     16  C   LIG A   1      -9.385  -2.886 123.286  0.00  0.00    +0.060 C 
ATOM     17  O   LIG A   1      -8.559  -0.984 124.447  0.00  0.00    -0.481 OA
ENDROOT
BRANCH   6  18
ATOM     18  C   LIG A   1      -8.194   2.709 131.406  0.00  0.00    -0.011 A 
ATOM     19  C   LIG A   1      -9.276   2.719 132.301  0.00  0.00    +0.012 A 
ATOM     20  C   LIG A   1      -9.166   3.322 133.560  0.00  0.00    +0.046 A 
ATOM     21  C   LIG A   1      -7.982   3.944 133.950  0.00  0.00    +0.120 A 
ATOM     22  C   LIG A   1      -6.901   3.945 133.075  0.00  0.00    +0.046 A 
ATOM     23  C   LIG A   1      -7.006   3.325 131.823  0.00  0.00    +0.012 A 
BRANCH  21  24
ATOM     24  O   LIG A   1      -8.011   4.513 135.193  0.00  0.00    -0.495 OA
ATOM     25  C   LIG A   1      -7.270   5.715 135.359  0.00  0.00    +0.277 C 
ENDBRANCH  21  24
ENDBRANCH   6  18
BRANCH   1  26
ATOM     26  O   LIG A   1      -7.199  -2.008 128.964  0.00  0.00    -0.505 OA
ATOM     27  H   LIG A   1      -7.767  -1.975 129.767  0.00  0.00    +0.292 HD
ENDBRANCH   1  26
TORSDOF 3
ENDMDL
MODEL 9
REMARK VINA RESULT:      -7.4      4.506      7.351
REMARK  Name = NuBBE_2279
REMARK  6 active torsions:
REMARK  status: ('A' for Active; 'I' for Inactive)
REMARK    1  A    between atoms: O_1  and  C_2
REMARK    2  A    between atoms: C_7  and  C_8
REMARK    3  A    between atoms: C_11  and  O_12
REMARK    4  A    between atoms: O_12  and  C_13
REMARK    5  A    between atoms: C_23  and  C_24
REMARK    6  A    between atoms: C_23  and  C_25
REMARK                            x       y       z     vdW  Elec       q    Type
REMARK                         _______ _______ _______ _____ _____    ______ ____
ROOT
ATOM      1  C   LIG A   1      -5.338   0.373 126.710  0.00  0.00    +0.142 A 
ATOM      2  C   LIG A   1      -5.289   1.774 126.645  0.00  0.00    +0.107 A 
ATOM      3  C   LIG A   1      -5.838   2.438 125.554  0.00  0.00    +0.145 A 
ATOM      4  O   LIG A   1      -5.841   3.801 125.438  0.00  0.00    -0.462 OA
ATOM      5  C   LIG A   1      -5.269   4.533 126.450  0.00  0.00    +0.208 A 
ATOM      6  C   LIG A   1      -4.672   4.062 127.558  0.00  0.00    +0.064 A 
ATOM      7  C   LIG A   1      -4.660   2.575 127.707  0.00  0.00    +0.204 A 
ATOM      8  O   LIG A   1      -4.147   1.992 128.660  0.00  0.00    -0.286 OA
ATOM      9  C   LIG A   1      -6.422   1.716 124.516  0.00  0.00    +0.093 A 
ATOM     10  C   LIG A   1      -6.462   0.321 124.572  0.00  0.00    +0.136 A 
ATOM     11  C   LIG A   1      -5.927  -0.363 125.670  0.00  0.00    +0.059 A 
ATOM     12  C   LIG A   1      -6.000  -1.818 125.700  0.00  0.00    +0.015 C 
ATOM     13  C   LIG A   1      -6.541  -2.447 124.654  0.00  0.00    +0.020 C 
ATOM     14  C   LIG A   1      -7.084  -1.728 123.443  0.00  0.00    +0.123 C 
ATOM     15  C   LIG A   1      -6.267  -2.128 122.209  0.00  0.00    +0.060 C 
ATOM     16  C   LIG A   1      -8.553  -2.115 123.241  0.00  0.00    +0.060 C 
ATOM     17  O   LIG A   1      -7.056  -0.288 123.504  0.00  0.00    -0.481 OA
ENDROOT
BRANCH   6  18
ATOM     18  C   LIG A   1      -4.079   4.977 128.564  0.00  0.00    -0.011 A 
ATOM     19  C   LIG A   1      -4.829   5.463 129.647  0.00  0.00    +0.012 A 
ATOM     20  C   LIG A   1      -4.266   6.344 130.578  0.00  0.00    +0.046 A 
ATOM     21  C   LIG A   1      -2.948   6.776 130.443  0.00  0.00    +0.120 A 
ATOM     22  C   LIG A   1      -2.191   6.306 129.375  0.00  0.00    +0.046 A 
ATOM     23  C   LIG A   1      -2.750   5.410 128.454  0.00  0.00    +0.012 A 
BRANCH  21  24
ATOM     24  O   LIG A   1      -2.525   7.651 131.405  0.00  0.00    -0.495 OA
ATOM     25  C   LIG A   1      -3.056   7.464 132.711  0.00  0.00    +0.277 C 
ENDBRANCH  21  24
ENDBRANCH   6  18
BRANCH   1  26
ATOM     26  O   LIG A   1      -4.817  -0.318 127.780  0.00  0.00    -0.505 OA
ATOM     27  H   LIG A   1      -5.559  -0.581 128.370  0.00  0.00    +0.292 HD
ENDBRANCH   1  26
TORSDOF 3
ENDMDL
