MODEL 1
REMARK VINA RESULT:      -7.6      0.000      0.000
REMARK  Name = NuBBE_243
REMARK  8 active torsions:
REMARK  status: ('A' for Active; 'I' for Inactive)
REMARK    1  A    between atoms: O_1  and  C_2
REMARK    2  A    between atoms: C_6  and  O_11
REMARK    3  A    between atoms: C_8  and  O_10
REMARK    4  A    between atoms: O_11  and  C_12
REMARK    5  A    between atoms: C_12  and  C_13
REMARK    6  A    between atoms: C_14  and  C_15
REMARK    7  A    between atoms: C_18  and  O_22
REMARK    8  A    between atoms: C_19  and  O_20
REMARK                            x       y       z     vdW  Elec       q    Type
REMARK                         _______ _______ _______ _____ _____    ______ ____
ROOT
ATOM      1  C   LIG A   1      -8.206   1.570 124.778  0.00  0.00    +0.332 C 
ATOM      2  O   LIG A   1      -7.794   1.758 125.909  0.00  0.00    -0.246 OA
ENDROOT
BRANCH   1   3
ATOM      3  C   LIG A   1      -7.915   2.416 123.603  0.00  0.00    +0.092 C 
ATOM      4  C   LIG A   1      -6.651   2.757 123.311  0.00  0.00    +0.015 C 
BRANCH   4   5
ATOM      5  C   LIG A   1      -6.275   3.578 122.150  0.00  0.00    -0.021 A 
ATOM      6  C   LIG A   1      -7.009   3.441 120.960  0.00  0.00    +0.012 A 
ATOM      7  C   LIG A   1      -6.696   4.199 119.824  0.00  0.00    +0.050 A 
ATOM      8  C   LIG A   1      -5.634   5.092 119.881  0.00  0.00    +0.158 A 
ATOM      9  C   LIG A   1      -4.889   5.219 121.049  0.00  0.00    +0.159 A 
ATOM     10  C   LIG A   1      -5.189   4.466 122.175  0.00  0.00    +0.057 A 
BRANCH   9  11
ATOM     11  O   LIG A   1      -3.839   6.094 121.095  0.00  0.00    -0.503 OA
ATOM     12  H   LIG A   1      -4.185   6.912 120.685  0.00  0.00    +0.292 HD
ENDBRANCH   9  11
BRANCH   8  13
ATOM     13  O   LIG A   1      -5.283   5.868 118.812  0.00  0.00    -0.503 OA
ATOM     14  H   LIG A   1      -6.037   6.441 118.593  0.00  0.00    +0.292 HD
ENDBRANCH   8  13
ENDBRANCH   4   5
ENDBRANCH   1   3
BRANCH   1  15
ATOM     15  O   LIG A   1      -9.013   0.561 124.364  0.00  0.00    -0.456 OA
BRANCH  15  19
ATOM     16  C   LIG A   1      -8.922  -3.000 123.561  0.00  0.00    +0.147 C 
ATOM     17  C   LIG A   1      -8.582  -3.021 125.051  0.00  0.00    +0.038 C 
ATOM     18  C   LIG A   1      -8.941  -1.620 125.528  0.00  0.00    +0.050 C 
ATOM     19  C   LIG A   1      -8.424  -0.745 124.389  0.00  0.00    +0.208 C 
ATOM     20  C   LIG A   1      -8.835  -1.522 123.125  0.00  0.00    +0.183 C 
BRANCH  16  21
ATOM     21  O   LIG A   1     -10.245  -3.507 123.379  0.00  0.00    -0.389 OA
ATOM     22  H   LIG A   1     -10.796  -3.023 124.032  0.00  0.00    +0.210 HD
ENDBRANCH  16  21
BRANCH  20  23
ATOM     23  O   LIG A   1     -10.118  -1.101 122.634  0.00  0.00    -0.386 OA
ATOM     24  H   LIG A   1      -9.979  -0.858 121.698  0.00  0.00    +0.210 HD
ENDBRANCH  20  23
ENDBRANCH  15  19
ENDBRANCH   1  15
TORSDOF 8
ENDMDL
MODEL 2
REMARK VINA RESULT:      -7.3      0.795      1.592
REMARK  Name = NuBBE_243
REMARK  8 active torsions:
REMARK  status: ('A' for Active; 'I' for Inactive)
REMARK    1  A    between atoms: O_1  and  C_2
REMARK    2  A    between atoms: C_6  and  O_11
REMARK    3  A    between atoms: C_8  and  O_10
REMARK    4  A    between atoms: O_11  and  C_12
REMARK    5  A    between atoms: C_12  and  C_13
REMARK    6  A    between atoms: C_14  and  C_15
REMARK    7  A    between atoms: C_18  and  O_22
REMARK    8  A    between atoms: C_19  and  O_20
REMARK                            x       y       z     vdW  Elec       q    Type
REMARK                         _______ _______ _______ _____ _____    ______ ____
ROOT
ATOM      1  C   LIG A   1      -8.752   2.108 124.948  0.00  0.00    +0.332 C 
ATOM      2  O   LIG A   1      -8.604   2.336 126.136  0.00  0.00    -0.246 OA
ENDROOT
BRANCH   1   3
ATOM      3  C   LIG A   1      -8.292   2.970 123.841  0.00  0.00    +0.092 C 
ATOM      4  C   LIG A   1      -7.193   2.645 123.143  0.00  0.00    +0.015 C 
BRANCH   4   5
ATOM      5  C   LIG A   1      -6.679   3.437 122.015  0.00  0.00    -0.021 A 
ATOM      6  C   LIG A   1      -5.438   4.081 122.152  0.00  0.00    +0.012 A 
ATOM      7  C   LIG A   1      -4.900   4.847 121.109  0.00  0.00    +0.050 A 
ATOM      8  C   LIG A   1      -5.617   4.975 119.927  0.00  0.00    +0.158 A 
ATOM      9  C   LIG A   1      -6.856   4.357 119.790  0.00  0.00    +0.159 A 
ATOM     10  C   LIG A   1      -7.398   3.604 120.821  0.00  0.00    +0.057 A 
BRANCH   9  11
ATOM     11  O   LIG A   1      -7.560   4.494 118.626  0.00  0.00    -0.503 OA
ATOM     12  H   LIG A   1      -6.875   4.589 117.936  0.00  0.00    +0.292 HD
ENDBRANCH   9  11
BRANCH   8  13
ATOM     13  O   LIG A   1      -5.144   5.699 118.868  0.00  0.00    -0.503 OA
ATOM     14  H   LIG A   1      -4.175   5.621 118.857  0.00  0.00    +0.292 HD
ENDBRANCH   8  13
ENDBRANCH   4   5
ENDBRANCH   1   3
BRANCH   1  15
ATOM     15  O   LIG A   1      -9.367   1.031 124.397  0.00  0.00    -0.456 OA
BRANCH  15  19
ATOM     16  C   LIG A   1      -8.860  -2.524 123.736  0.00  0.00    +0.147 C 
ATOM     17  C   LIG A   1      -8.671  -2.472 125.251  0.00  0.00    +0.038 C 
ATOM     18  C   LIG A   1      -9.207  -1.101 125.640  0.00  0.00    +0.050 C 
ATOM     19  C   LIG A   1      -8.663  -0.210 124.527  0.00  0.00    +0.208 C 
ATOM     20  C   LIG A   1      -8.870  -1.056 123.258  0.00  0.00    +0.183 C 
BRANCH  16  21
ATOM     21  O   LIG A   1     -10.104  -3.162 123.443  0.00  0.00    -0.389 OA
ATOM     22  H   LIG A   1     -10.281  -2.955 122.500  0.00  0.00    +0.210 HD
ENDBRANCH  16  21
BRANCH  20  23
ATOM     23  O   LIG A   1     -10.130  -0.776 122.628  0.00  0.00    -0.386 OA
ATOM     24  H   LIG A   1     -10.392  -1.600 122.173  0.00  0.00    +0.210 HD
ENDBRANCH  20  23
ENDBRANCH  15  19
ENDBRANCH   1  15
TORSDOF 8
ENDMDL
MODEL 3
REMARK VINA RESULT:      -6.7      1.519      2.318
REMARK  Name = NuBBE_243
REMARK  8 active torsions:
REMARK  status: ('A' for Active; 'I' for Inactive)
REMARK    1  A    between atoms: O_1  and  C_2
REMARK    2  A    between atoms: C_6  and  O_11
REMARK    3  A    between atoms: C_8  and  O_10
REMARK    4  A    between atoms: O_11  and  C_12
REMARK    5  A    between atoms: C_12  and  C_13
REMARK    6  A    between atoms: C_14  and  C_15
REMARK    7  A    between atoms: C_18  and  O_22
REMARK    8  A    between atoms: C_19  and  O_20
REMARK                            x       y       z     vdW  Elec       q    Type
REMARK                         _______ _______ _______ _____ _____    ______ ____
ROOT
ATOM      1  C   LIG A   1      -9.345   0.913 123.414  0.00  0.00    +0.332 C 
ATOM      2  O   LIG A   1     -10.447   1.194 123.852  0.00  0.00    -0.246 OA
ENDROOT
BRANCH   1   3
ATOM      3  C   LIG A   1      -8.221   1.854 123.238  0.00  0.00    +0.092 C 
ATOM      4  C   LIG A   1      -7.965   2.383 122.032  0.00  0.00    +0.015 C 
BRANCH   4   5
ATOM      5  C   LIG A   1      -6.879   3.342 121.777  0.00  0.00    -0.021 A 
ATOM      6  C   LIG A   1      -6.057   3.732 122.848  0.00  0.00    +0.012 A 
ATOM      7  C   LIG A   1      -5.007   4.640 122.661  0.00  0.00    +0.050 A 
ATOM      8  C   LIG A   1      -4.787   5.168 121.395  0.00  0.00    +0.158 A 
ATOM      9  C   LIG A   1      -5.610   4.803 120.334  0.00  0.00    +0.159 A 
ATOM     10  C   LIG A   1      -6.656   3.910 120.513  0.00  0.00    +0.057 A 
BRANCH   9  11
ATOM     11  O   LIG A   1      -5.394   5.333 119.092  0.00  0.00    -0.503 OA
ATOM     12  H   LIG A   1      -4.420   5.380 119.012  0.00  0.00    +0.292 HD
ENDBRANCH   9  11
BRANCH   8  13
ATOM     13  O   LIG A   1      -3.775   6.051 121.144  0.00  0.00    -0.503 OA
ATOM     14  H   LIG A   1      -3.887   6.391 120.240  0.00  0.00    +0.292 HD
ENDBRANCH   8  13
ENDBRANCH   4   5
ENDBRANCH   1   3
BRANCH   1  15
ATOM     15  O   LIG A   1      -8.925  -0.307 122.994  0.00  0.00    -0.456 OA
BRANCH  15  19
ATOM     16  C   LIG A   1      -7.209  -2.963 124.821  0.00  0.00    +0.147 C 
ATOM     17  C   LIG A   1      -8.576  -3.601 124.580  0.00  0.00    +0.038 C 
ATOM     18  C   LIG A   1      -9.220  -2.703 123.532  0.00  0.00    +0.050 C 
ATOM     19  C   LIG A   1      -8.831  -1.309 124.015  0.00  0.00    +0.208 C 
ATOM     20  C   LIG A   1      -7.362  -1.474 124.443  0.00  0.00    +0.183 C 
BRANCH  16  21
ATOM     21  O   LIG A   1      -6.243  -3.603 123.986  0.00  0.00    -0.389 OA
ATOM     22  H   LIG A   1      -6.289  -3.124 123.130  0.00  0.00    +0.210 HD
ENDBRANCH  16  21
BRANCH  20  23
ATOM     23  O   LIG A   1      -6.456  -1.166 123.371  0.00  0.00    -0.386 OA
ATOM     24  H   LIG A   1      -6.554  -0.209 123.205  0.00  0.00    +0.210 HD
ENDBRANCH  20  23
ENDBRANCH  15  19
ENDBRANCH   1  15
TORSDOF 8
ENDMDL
MODEL 4
REMARK VINA RESULT:      -6.4      9.688     10.675
REMARK  Name = NuBBE_243
REMARK  8 active torsions:
REMARK  status: ('A' for Active; 'I' for Inactive)
REMARK    1  A    between atoms: O_1  and  C_2
REMARK    2  A    between atoms: C_6  and  O_11
REMARK    3  A    between atoms: C_8  and  O_10
REMARK    4  A    between atoms: O_11  and  C_12
REMARK    5  A    between atoms: C_12  and  C_13
REMARK    6  A    between atoms: C_14  and  C_15
REMARK    7  A    between atoms: C_18  and  O_22
REMARK    8  A    between atoms: C_19  and  O_20
REMARK                            x       y       z     vdW  Elec       q    Type
REMARK                         _______ _______ _______ _____ _____    ______ ____
ROOT
ATOM      1  C   LIG A   1      -9.623   6.384 131.750  0.00  0.00    +0.332 C 
ATOM      2  O   LIG A   1     -10.468   6.458 132.625  0.00  0.00    -0.246 OA
ENDROOT
BRANCH   1   3
ATOM      3  C   LIG A   1      -8.166   6.274 131.966  0.00  0.00    +0.092 C 
ATOM      4  C   LIG A   1      -7.312   6.911 131.150  0.00  0.00    +0.015 C 
BRANCH   4   5
ATOM      5  C   LIG A   1      -5.850   6.870 131.308  0.00  0.00    -0.021 A 
ATOM      6  C   LIG A   1      -5.054   7.614 130.420  0.00  0.00    +0.012 A 
ATOM      7  C   LIG A   1      -3.657   7.613 130.525  0.00  0.00    +0.050 A 
ATOM      8  C   LIG A   1      -3.056   6.854 131.520  0.00  0.00    +0.158 A 
ATOM      9  C   LIG A   1      -3.835   6.099 132.391  0.00  0.00    +0.159 A 
ATOM     10  C   LIG A   1      -5.219   6.089 132.288  0.00  0.00    +0.057 A 
BRANCH   9  11
ATOM     11  O   LIG A   1      -3.236   5.347 133.363  0.00  0.00    -0.503 OA
ATOM     12  H   LIG A   1      -2.279   5.424 133.177  0.00  0.00    +0.292 HD
ENDBRANCH   9  11
BRANCH   8  13
ATOM     13  O   LIG A   1      -1.699   6.818 131.683  0.00  0.00    -0.503 OA
ATOM     14  H   LIG A   1      -1.335   7.667 131.381  0.00  0.00    +0.292 HD
ENDBRANCH   8  13
ENDBRANCH   4   5
ENDBRANCH   1   3
BRANCH   1  15
ATOM     15  O   LIG A   1      -9.836   6.392 130.410  0.00  0.00    -0.456 OA
BRANCH  15  19
ATOM     16  C   LIG A   1     -12.729   7.487 128.469  0.00  0.00    +0.147 C 
ATOM     17  C   LIG A   1     -11.707   8.566 128.117  0.00  0.00    +0.038 C 
ATOM     18  C   LIG A   1     -10.385   7.992 128.605  0.00  0.00    +0.050 C 
ATOM     19  C   LIG A   1     -10.773   7.372 129.944  0.00  0.00    +0.208 C 
ATOM     20  C   LIG A   1     -12.124   6.696 129.648  0.00  0.00    +0.183 C 
BRANCH  16  21
ATOM     21  O   LIG A   1     -12.921   6.640 127.334  0.00  0.00    -0.389 OA
ATOM     22  H   LIG A   1     -13.169   5.766 127.707  0.00  0.00    +0.210 HD
ENDBRANCH  16  21
BRANCH  20  23
ATOM     23  O   LIG A   1     -11.959   5.323 129.258  0.00  0.00    -0.386 OA
ATOM     24  H   LIG A   1     -11.332   4.936 129.898  0.00  0.00    +0.210 HD
ENDBRANCH  20  23
ENDBRANCH  15  19
ENDBRANCH   1  15
TORSDOF 8
ENDMDL
MODEL 5
REMARK VINA RESULT:      -6.4      3.076      8.196
REMARK  Name = NuBBE_243
REMARK  8 active torsions:
REMARK  status: ('A' for Active; 'I' for Inactive)
REMARK    1  A    between atoms: O_1  and  C_2
REMARK    2  A    between atoms: C_6  and  O_11
REMARK    3  A    between atoms: C_8  and  O_10
REMARK    4  A    between atoms: O_11  and  C_12
REMARK    5  A    between atoms: C_12  and  C_13
REMARK    6  A    between atoms: C_14  and  C_15
REMARK    7  A    between atoms: C_18  and  O_22
REMARK    8  A    between atoms: C_19  and  O_20
REMARK                            x       y       z     vdW  Elec       q    Type
REMARK                         _______ _______ _______ _____ _____    ______ ____
ROOT
ATOM      1  C   LIG A   1      -9.814   1.400 124.480  0.00  0.00    +0.332 C 
ATOM      2  O   LIG A   1     -10.489   0.954 123.568  0.00  0.00    -0.246 OA
ENDROOT
BRANCH   1   3
ATOM      3  C   LIG A   1      -9.331   0.636 125.648  0.00  0.00    +0.092 C 
ATOM      4  C   LIG A   1      -9.034  -0.667 125.528  0.00  0.00    +0.015 C 
BRANCH   4   5
ATOM      5  C   LIG A   1      -8.528  -1.493 126.635  0.00  0.00    -0.021 A 
ATOM      6  C   LIG A   1      -8.926  -2.839 126.708  0.00  0.00    +0.012 A 
ATOM      7  C   LIG A   1      -8.474  -3.672 127.740  0.00  0.00    +0.050 A 
ATOM      8  C   LIG A   1      -7.627  -3.150 128.707  0.00  0.00    +0.158 A 
ATOM      9  C   LIG A   1      -7.244  -1.813 128.653  0.00  0.00    +0.159 A 
ATOM     10  C   LIG A   1      -7.694  -0.980 127.639  0.00  0.00    +0.057 A 
BRANCH   9  11
ATOM     11  O   LIG A   1      -6.416  -1.303 129.614  0.00  0.00    -0.503 OA
ATOM     12  H   LIG A   1      -5.515  -1.468 129.273  0.00  0.00    +0.292 HD
ENDBRANCH   9  11
BRANCH   8  13
ATOM     13  O   LIG A   1      -7.142  -3.911 129.734  0.00  0.00    -0.503 OA
ATOM     14  H   LIG A   1      -6.223  -3.643 129.903  0.00  0.00    +0.292 HD
ENDBRANCH   8  13
ENDBRANCH   4   5
ENDBRANCH   1   3
BRANCH   1  15
ATOM     15  O   LIG A   1      -9.375   2.676 124.618  0.00  0.00    -0.456 OA
BRANCH  15  19
ATOM     16  C   LIG A   1      -6.399   4.608 125.478  0.00  0.00    +0.147 C 
ATOM     17  C   LIG A   1      -5.839   3.649 124.429  0.00  0.00    +0.038 C 
ATOM     18  C   LIG A   1      -7.080   3.055 123.777  0.00  0.00    +0.050 C 
ATOM     19  C   LIG A   1      -7.994   2.814 124.975  0.00  0.00    +0.208 C 
ATOM     20  C   LIG A   1      -7.806   4.081 125.829  0.00  0.00    +0.183 C 
BRANCH  16  21
ATOM     21  O   LIG A   1      -6.473   5.920 124.917  0.00  0.00    -0.389 OA
ATOM     22  H   LIG A   1      -5.863   5.903 124.148  0.00  0.00    +0.210 HD
ENDBRANCH  16  21
BRANCH  20  23
ATOM     23  O   LIG A   1      -8.779   5.089 125.511  0.00  0.00    -0.386 OA
ATOM     24  H   LIG A   1      -8.540   5.870 126.047  0.00  0.00    +0.210 HD
ENDBRANCH  20  23
ENDBRANCH  15  19
ENDBRANCH   1  15
TORSDOF 8
ENDMDL
MODEL 6
REMARK VINA RESULT:      -6.4      9.390     10.834
REMARK  Name = NuBBE_243
REMARK  8 active torsions:
REMARK  status: ('A' for Active; 'I' for Inactive)
REMARK    1  A    between atoms: O_1  and  C_2
REMARK    2  A    between atoms: C_6  and  O_11
REMARK    3  A    between atoms: C_8  and  O_10
REMARK    4  A    between atoms: O_11  and  C_12
REMARK    5  A    between atoms: C_12  and  C_13
REMARK    6  A    between atoms: C_14  and  C_15
REMARK    7  A    between atoms: C_18  and  O_22
REMARK    8  A    between atoms: C_19  and  O_20
REMARK                            x       y       z     vdW  Elec       q    Type
REMARK                         _______ _______ _______ _____ _____    ______ ____
ROOT
ATOM      1  C   LIG A   1      -6.270   6.073 131.828  0.00  0.00    +0.332 C 
ATOM      2  O   LIG A   1      -6.153   6.075 133.041  0.00  0.00    -0.246 OA
ENDROOT
BRANCH   1   3
ATOM      3  C   LIG A   1      -7.407   6.635 131.071  0.00  0.00    +0.092 C 
ATOM      4  C   LIG A   1      -8.667   6.376 131.452  0.00  0.00    +0.015 C 
BRANCH   4   5
ATOM      5  C   LIG A   1      -9.853   6.912 130.767  0.00  0.00    -0.021 A 
ATOM      6  C   LIG A   1     -11.123   6.645 131.307  0.00  0.00    +0.012 A 
ATOM      7  C   LIG A   1     -12.286   7.131 130.696  0.00  0.00    +0.050 A 
ATOM      8  C   LIG A   1     -12.175   7.882 129.533  0.00  0.00    +0.158 A 
ATOM      9  C   LIG A   1     -10.923   8.134 128.981  0.00  0.00    +0.159 A 
ATOM     10  C   LIG A   1      -9.767   7.648 129.576  0.00  0.00    +0.057 A 
BRANCH   9  11
ATOM     11  O   LIG A   1     -10.820   8.866 127.831  0.00  0.00    -0.503 OA
ATOM     12  H   LIG A   1      -9.906   9.212 127.842  0.00  0.00    +0.292 HD
ENDBRANCH   9  11
BRANCH   8  13
ATOM     13  O   LIG A   1     -13.269   8.394 128.894  0.00  0.00    -0.503 OA
ATOM     14  H   LIG A   1     -14.062   7.973 129.267  0.00  0.00    +0.292 HD
ENDBRANCH   8  13
ENDBRANCH   4   5
ENDBRANCH   1   3
BRANCH   1  15
ATOM     15  O   LIG A   1      -5.397   5.556 130.927  0.00  0.00    -0.456 OA
BRANCH  15  19
ATOM     16  C   LIG A   1      -2.507   6.717 129.020  0.00  0.00    +0.147 C 
ATOM     17  C   LIG A   1      -1.844   6.260 130.318  0.00  0.00    +0.038 C 
ATOM     18  C   LIG A   1      -2.927   5.449 131.017  0.00  0.00    +0.050 C 
ATOM     19  C   LIG A   1      -4.176   6.290 130.767  0.00  0.00    +0.208 C 
ATOM     20  C   LIG A   1      -4.025   6.727 129.298  0.00  0.00    +0.183 C 
BRANCH  16  21
ATOM     21  O   LIG A   1      -2.186   5.791 127.982  0.00  0.00    -0.389 OA
ATOM     22  H   LIG A   1      -2.647   6.131 127.185  0.00  0.00    +0.210 HD
ENDBRANCH  16  21
BRANCH  20  23
ATOM     23  O   LIG A   1      -4.673   5.812 128.400  0.00  0.00    -0.386 OA
ATOM     24  H   LIG A   1      -5.398   6.316 127.981  0.00  0.00    +0.210 HD
ENDBRANCH  20  23
ENDBRANCH  15  19
ENDBRANCH   1  15
TORSDOF 8
ENDMDL
MODEL 7
REMARK VINA RESULT:      -6.3      3.468      8.183
REMARK  Name = NuBBE_243
REMARK  8 active torsions:
REMARK  status: ('A' for Active; 'I' for Inactive)
REMARK    1  A    between atoms: O_1  and  C_2
REMARK    2  A    between atoms: C_6  and  O_11
REMARK    3  A    between atoms: C_8  and  O_10
REMARK    4  A    between atoms: O_11  and  C_12
REMARK    5  A    between atoms: C_12  and  C_13
REMARK    6  A    between atoms: C_14  and  C_15
REMARK    7  A    between atoms: C_18  and  O_22
REMARK    8  A    between atoms: C_19  and  O_20
REMARK                            x       y       z     vdW  Elec       q    Type
REMARK                         _______ _______ _______ _____ _____    ______ ____
ROOT
ATOM      1  C   LIG A   1      -9.058  -2.101 124.197  0.00  0.00    +0.332 C 
ATOM      2  O   LIG A   1      -9.347  -2.816 123.254  0.00  0.00    -0.246 OA
ENDROOT
BRANCH   1   3
ATOM      3  C   LIG A   1      -8.100  -2.436 125.270  0.00  0.00    +0.092 C 
ATOM      4  C   LIG A   1      -8.420  -2.218 126.555  0.00  0.00    +0.015 C 
BRANCH   4   5
ATOM      5  C   LIG A   1      -7.533  -2.542 127.682  0.00  0.00    -0.021 A 
ATOM      6  C   LIG A   1      -8.065  -3.239 128.781  0.00  0.00    +0.012 A 
ATOM      7  C   LIG A   1      -7.265  -3.574 129.881  0.00  0.00    +0.050 A 
ATOM      8  C   LIG A   1      -5.928  -3.201 129.883  0.00  0.00    +0.158 A 
ATOM      9  C   LIG A   1      -5.399  -2.493 128.809  0.00  0.00    +0.159 A 
ATOM     10  C   LIG A   1      -6.186  -2.150 127.719  0.00  0.00    +0.057 A 
BRANCH   9  11
ATOM     11  O   LIG A   1      -4.083  -2.120 128.820  0.00  0.00    -0.503 OA
ATOM     12  H   LIG A   1      -3.989  -1.583 129.632  0.00  0.00    +0.292 HD
ENDBRANCH   9  11
BRANCH   8  13
ATOM     13  O   LIG A   1      -5.092  -3.506 130.920  0.00  0.00    -0.503 OA
ATOM     14  H   LIG A   1      -5.331  -2.944 131.678  0.00  0.00    +0.292 HD
ENDBRANCH   8  13
ENDBRANCH   4   5
ENDBRANCH   1   3
BRANCH   1  15
ATOM     15  O   LIG A   1      -9.551  -0.866 124.463  0.00  0.00    -0.456 OA
BRANCH  15  19
ATOM     16  C   LIG A   1      -8.427   2.601 124.244  0.00  0.00    +0.147 C 
ATOM     17  C   LIG A   1      -8.951   2.367 122.828  0.00  0.00    +0.038 C 
ATOM     18  C   LIG A   1      -9.747   1.074 122.941  0.00  0.00    +0.050 C 
ATOM     19  C   LIG A   1      -8.855   0.220 123.838  0.00  0.00    +0.208 C 
ATOM     20  C   LIG A   1      -8.374   1.212 124.913  0.00  0.00    +0.183 C 
BRANCH  16  21
ATOM     21  O   LIG A   1      -9.328   3.466 124.937  0.00  0.00    -0.389 OA
ATOM     22  H   LIG A   1     -10.224   3.138 124.705  0.00  0.00    +0.210 HD
ENDBRANCH  16  21
BRANCH  20  23
ATOM     23  O   LIG A   1      -9.235   1.212 126.064  0.00  0.00    -0.386 OA
ATOM     24  H   LIG A   1     -10.148   1.200 125.715  0.00  0.00    +0.210 HD
ENDBRANCH  20  23
ENDBRANCH  15  19
ENDBRANCH   1  15
TORSDOF 8
ENDMDL
MODEL 8
REMARK VINA RESULT:      -6.2      5.061      8.751
REMARK  Name = NuBBE_243
REMARK  8 active torsions:
REMARK  status: ('A' for Active; 'I' for Inactive)
REMARK    1  A    between atoms: O_1  and  C_2
REMARK    2  A    between atoms: C_6  and  O_11
REMARK    3  A    between atoms: C_8  and  O_10
REMARK    4  A    between atoms: O_11  and  C_12
REMARK    5  A    between atoms: C_12  and  C_13
REMARK    6  A    between atoms: C_14  and  C_15
REMARK    7  A    between atoms: C_18  and  O_22
REMARK    8  A    between atoms: C_19  and  O_20
REMARK                            x       y       z     vdW  Elec       q    Type
REMARK                         _______ _______ _______ _____ _____    ______ ____
ROOT
ATOM      1  C   LIG A   1      -8.587  -3.083 127.449  0.00  0.00    +0.332 C 
ATOM      2  O   LIG A   1      -9.188  -4.131 127.606  0.00  0.00    -0.246 OA
ENDROOT
BRANCH   1   3
ATOM      3  C   LIG A   1      -7.350  -2.686 128.150  0.00  0.00    +0.092 C 
ATOM      4  C   LIG A   1      -7.057  -3.206 129.352  0.00  0.00    +0.015 C 
BRANCH   4   5
ATOM      5  C   LIG A   1      -5.838  -2.880 130.107  0.00  0.00    -0.021 A 
ATOM      6  C   LIG A   1      -5.930  -2.717 131.500  0.00  0.00    +0.012 A 
ATOM      7  C   LIG A   1      -4.800  -2.407 132.268  0.00  0.00    +0.050 A 
ATOM      8  C   LIG A   1      -3.574  -2.251 131.635  0.00  0.00    +0.158 A 
ATOM      9  C   LIG A   1      -3.479  -2.391 130.254  0.00  0.00    +0.159 A 
ATOM     10  C   LIG A   1      -4.594  -2.690 129.485  0.00  0.00    +0.057 A 
BRANCH   9  11
ATOM     11  O   LIG A   1      -2.270  -2.228 129.635  0.00  0.00    -0.503 OA
ATOM     12  H   LIG A   1      -2.491  -1.825 128.772  0.00  0.00    +0.292 HD
ENDBRANCH   9  11
BRANCH   8  13
ATOM     13  O   LIG A   1      -2.433  -1.959 132.327  0.00  0.00    -0.503 OA
ATOM     14  H   LIG A   1      -2.433  -1.007 132.524  0.00  0.00    +0.292 HD
ENDBRANCH   8  13
ENDBRANCH   4   5
ENDBRANCH   1   3
BRANCH   1  15
ATOM     15  O   LIG A   1      -8.925  -2.070 126.613  0.00  0.00    -0.456 OA
BRANCH  15  19
ATOM     16  C   LIG A   1      -8.893  -1.238 123.057  0.00  0.00    +0.147 C 
ATOM     17  C   LIG A   1      -8.877  -2.765 123.007  0.00  0.00    +0.038 C 
ATOM     18  C   LIG A   1      -9.239  -3.181 124.426  0.00  0.00    +0.050 C 
ATOM     19  C   LIG A   1      -8.439  -2.194 125.270  0.00  0.00    +0.208 C 
ATOM     20  C   LIG A   1      -8.622  -0.857 124.529  0.00  0.00    +0.183 C 
BRANCH  16  21
ATOM     21  O   LIG A   1     -10.177  -0.772 122.640  0.00  0.00    -0.389 OA
ATOM     22  H   LIG A   1     -10.309   0.075 123.119  0.00  0.00    +0.210 HD
ENDBRANCH  16  21
BRANCH  20  23
ATOM     23  O   LIG A   1      -9.743  -0.115 125.036  0.00  0.00    -0.386 OA
ATOM     24  H   LIG A   1     -10.046  -0.597 125.829  0.00  0.00    +0.210 HD
ENDBRANCH  20  23
ENDBRANCH  15  19
ENDBRANCH   1  15
TORSDOF 8
ENDMDL
MODEL 9
REMARK VINA RESULT:      -6.0      6.033      7.628
REMARK  Name = NuBBE_243
REMARK  8 active torsions:
REMARK  status: ('A' for Active; 'I' for Inactive)
REMARK    1  A    between atoms: O_1  and  C_2
REMARK    2  A    between atoms: C_6  and  O_11
REMARK    3  A    between atoms: C_8  and  O_10
REMARK    4  A    between atoms: O_11  and  C_12
REMARK    5  A    between atoms: C_12  and  C_13
REMARK    6  A    between atoms: C_14  and  C_15
REMARK    7  A    between atoms: C_18  and  O_22
REMARK    8  A    between atoms: C_19  and  O_20
REMARK                            x       y       z     vdW  Elec       q    Type
REMARK                         _______ _______ _______ _____ _____    ______ ____
ROOT
ATOM      1  C   LIG A   1      -6.751  -2.316 127.718  0.00  0.00    +0.332 C 
ATOM      2  O   LIG A   1      -5.540  -2.451 127.690  0.00  0.00    -0.246 OA
ENDROOT
BRANCH   1   3
ATOM      3  C   LIG A   1      -7.504  -1.486 128.680  0.00  0.00    +0.092 C 
ATOM      4  C   LIG A   1      -7.429  -0.148 128.621  0.00  0.00    +0.015 C 
BRANCH   4   5
ATOM      5  C   LIG A   1      -8.162   0.750 129.526  0.00  0.00    -0.021 A 
ATOM      6  C   LIG A   1      -8.465   0.301 130.823  0.00  0.00    +0.012 A 
ATOM      7  C   LIG A   1      -9.159   1.115 131.728  0.00  0.00    +0.050 A 
ATOM      8  C   LIG A   1      -9.559   2.383 131.326  0.00  0.00    +0.158 A 
ATOM      9  C   LIG A   1      -9.280   2.828 130.038  0.00  0.00    +0.159 A 
ATOM     10  C   LIG A   1      -8.601   2.024 129.134  0.00  0.00    +0.057 A 
BRANCH   9  11
ATOM     11  O   LIG A   1      -9.684   4.074 129.645  0.00  0.00    -0.503 OA
ATOM     12  H   LIG A   1      -9.724   4.021 128.670  0.00  0.00    +0.292 HD
ENDBRANCH   9  11
BRANCH   8  13
ATOM     13  O   LIG A   1     -10.230   3.230 132.163  0.00  0.00    -0.503 OA
ATOM     14  H   LIG A   1     -11.153   3.285 131.861  0.00  0.00    +0.292 HD
ENDBRANCH   8  13
ENDBRANCH   4   5
ENDBRANCH   1   3
BRANCH   1  15
ATOM     15  O   LIG A   1      -7.653  -2.897 126.888  0.00  0.00    -0.456 OA
BRANCH  15  19
ATOM     16  C   LIG A   1      -9.205  -2.341 123.629  0.00  0.00    +0.147 C 
ATOM     17  C   LIG A   1      -7.805  -2.796 123.220  0.00  0.00    +0.038 C 
ATOM     18  C   LIG A   1      -7.219  -3.375 124.500  0.00  0.00    +0.050 C 
ATOM     19  C   LIG A   1      -7.684  -2.374 125.554  0.00  0.00    +0.208 C 
ATOM     20  C   LIG A   1      -9.140  -2.078 125.149  0.00  0.00    +0.183 C 
BRANCH  16  21
ATOM     21  O   LIG A   1     -10.137  -3.383 123.334  0.00  0.00    -0.389 OA
ATOM     22  H   LIG A   1      -9.853  -4.144 123.885  0.00  0.00    +0.210 HD
ENDBRANCH  16  21
BRANCH  20  23
ATOM     23  O   LIG A   1     -10.067  -2.948 125.817  0.00  0.00    -0.386 OA
ATOM     24  H   LIG A   1      -9.861  -3.850 125.504  0.00  0.00    +0.210 HD
ENDBRANCH  20  23
ENDBRANCH  15  19
ENDBRANCH   1  15
TORSDOF 8
ENDMDL
