MODEL 1
REMARK VINA RESULT:      -5.7      0.000      0.000
REMARK  Name = NuBBE_25
REMARK  11 active torsions:
REMARK  status: ('A' for Active; 'I' for Inactive)
REMARK    1  A    between atoms: C_1  and  C_2
REMARK    2  A    between atoms: C_2  and  C_3
REMARK    3  A    between atoms: C_3  and  C_4
REMARK    4  A    between atoms: C_4  and  C_5
REMARK    5  A    between atoms: C_5  and  C_6
REMARK    6  A    between atoms: C_7  and  C_8
REMARK    7  A    between atoms: C_9  and  C_10
REMARK    8  A    between atoms: N_11  and  C_13
REMARK    9  A    between atoms: C_13  and  C_14
REMARK   10  A    between atoms: C_14  and  C_15
REMARK   11  A    between atoms: C_14  and  C_16
REMARK                            x       y       z     vdW  Elec       q    Type
REMARK                         _______ _______ _______ _____ _____    ______ ____
ROOT
ATOM      1  C   LIG A   1      -8.842  -3.665 125.995  0.00  0.00    +0.005 C 
ATOM      2  C   LIG A   1      -8.908  -2.559 125.240  0.00  0.00    +0.067 C 
ENDROOT
BRANCH   2   3
ATOM      3  C   LIG A   1      -8.998  -2.684 123.766  0.00  0.00    +0.237 C 
ATOM      4  N   LIG A   1      -7.959  -2.225 123.009  0.00  0.00    -0.312 N 
ATOM      5  H   LIG A   1      -8.113  -2.413 122.025  0.00  0.00    +0.149 HD
ATOM      6  O   LIG A   1      -9.990  -3.150 123.233  0.00  0.00    -0.271 OA
BRANCH   4   7
ATOM      7  C   LIG A   1      -6.641  -1.752 123.404  0.00  0.00    +0.107 C 
BRANCH   7   8
ATOM      8  C   LIG A   1      -5.855  -2.838 124.166  0.00  0.00    +0.000 C 
ATOM      9  C   LIG A   1      -4.632  -3.330 123.388  0.00  0.00    +0.009 C 
ATOM     10  C   LIG A   1      -5.401  -2.341 125.542  0.00  0.00    +0.009 C 
ENDBRANCH   7   8
ENDBRANCH   4   7
ENDBRANCH   2   3
BRANCH   1  12
ATOM     11  C   LIG A   1      -8.084  -2.957 128.238  0.00  0.00    -0.027 C 
ATOM     12  C   LIG A   1      -8.936  -3.627 127.442  0.00  0.00    -0.004 C 
BRANCH  11  13
ATOM     13  C   LIG A   1      -8.078  -2.978 129.753  0.00  0.00    +0.027 C 
BRANCH  13  14
ATOM     14  C   LIG A   1      -6.685  -2.914 130.383  0.00  0.00    +0.004 C 
BRANCH  14  15
ATOM     15  C   LIG A   1      -5.930  -4.245 130.343  0.00  0.00    +0.000 C 
BRANCH  15  17
ATOM     16  C   LIG A   1      -4.034  -3.200 128.973  0.00  0.00    +0.004 C 
ATOM     17  C   LIG A   1      -4.418  -4.037 130.188  0.00  0.00    -0.003 C 
ENDBRANCH  15  17
ENDBRANCH  14  15
ENDBRANCH  13  14
ENDBRANCH  11  13
ENDBRANCH   1  12
TORSDOF 8
ENDMDL
MODEL 2
REMARK VINA RESULT:      -5.7      3.215      5.664
REMARK  Name = NuBBE_25
REMARK  11 active torsions:
REMARK  status: ('A' for Active; 'I' for Inactive)
REMARK    1  A    between atoms: C_1  and  C_2
REMARK    2  A    between atoms: C_2  and  C_3
REMARK    3  A    between atoms: C_3  and  C_4
REMARK    4  A    between atoms: C_4  and  C_5
REMARK    5  A    between atoms: C_5  and  C_6
REMARK    6  A    between atoms: C_7  and  C_8
REMARK    7  A    between atoms: C_9  and  C_10
REMARK    8  A    between atoms: N_11  and  C_13
REMARK    9  A    between atoms: C_13  and  C_14
REMARK   10  A    between atoms: C_14  and  C_15
REMARK   11  A    between atoms: C_14  and  C_16
REMARK                            x       y       z     vdW  Elec       q    Type
REMARK                         _______ _______ _______ _____ _____    ______ ____
ROOT
ATOM      1  C   LIG A   1      -8.197  -3.768 129.046  0.00  0.00    +0.005 C 
ATOM      2  C   LIG A   1      -8.101  -2.632 129.751  0.00  0.00    +0.067 C 
ENDROOT
BRANCH   2   3
ATOM      3  C   LIG A   1      -7.220  -2.584 130.942  0.00  0.00    +0.237 C 
ATOM      4  N   LIG A   1      -5.994  -1.996 130.821  0.00  0.00    -0.312 N 
ATOM      5  H   LIG A   1      -5.509  -1.978 131.711  0.00  0.00    +0.149 HD
ATOM      6  O   LIG A   1      -7.559  -3.089 131.997  0.00  0.00    -0.271 OA
BRANCH   4   7
ATOM      7  C   LIG A   1      -5.420  -1.227 129.727  0.00  0.00    +0.107 C 
BRANCH   7   8
ATOM      8  C   LIG A   1      -4.560  -2.113 128.804  0.00  0.00    +0.000 C 
ATOM      9  C   LIG A   1      -4.280  -3.491 129.410  0.00  0.00    +0.009 C 
ATOM     10  C   LIG A   1      -5.217  -2.300 127.433  0.00  0.00    +0.009 C 
ENDBRANCH   7   8
ENDBRANCH   4   7
ENDBRANCH   2   3
BRANCH   1  12
ATOM     11  C   LIG A   1      -8.670  -3.002 126.744  0.00  0.00    -0.027 C 
ATOM     12  C   LIG A   1      -8.891  -3.838 127.773  0.00  0.00    -0.004 C 
BRANCH  11  13
ATOM     13  C   LIG A   1      -9.443  -2.969 125.442  0.00  0.00    +0.027 C 
BRANCH  13  14
ATOM     14  C   LIG A   1      -8.573  -3.034 124.185  0.00  0.00    +0.004 C 
BRANCH  14  15
ATOM     15  C   LIG A   1      -7.245  -3.765 124.393  0.00  0.00    +0.000 C 
BRANCH  15  17
ATOM     16  C   LIG A   1      -4.762  -3.760 123.764  0.00  0.00    +0.004 C 
ATOM     17  C   LIG A   1      -6.061  -2.967 123.832  0.00  0.00    -0.003 C 
ENDBRANCH  15  17
ENDBRANCH  14  15
ENDBRANCH  13  14
ENDBRANCH  11  13
ENDBRANCH   1  12
TORSDOF 8
ENDMDL
MODEL 3
REMARK VINA RESULT:      -5.6      4.433      5.950
REMARK  Name = NuBBE_25
REMARK  11 active torsions:
REMARK  status: ('A' for Active; 'I' for Inactive)
REMARK    1  A    between atoms: C_1  and  C_2
REMARK    2  A    between atoms: C_2  and  C_3
REMARK    3  A    between atoms: C_3  and  C_4
REMARK    4  A    between atoms: C_4  and  C_5
REMARK    5  A    between atoms: C_5  and  C_6
REMARK    6  A    between atoms: C_7  and  C_8
REMARK    7  A    between atoms: C_9  and  C_10
REMARK    8  A    between atoms: N_11  and  C_13
REMARK    9  A    between atoms: C_13  and  C_14
REMARK   10  A    between atoms: C_14  and  C_15
REMARK   11  A    between atoms: C_14  and  C_16
REMARK                            x       y       z     vdW  Elec       q    Type
REMARK                         _______ _______ _______ _____ _____    ______ ____
ROOT
ATOM      1  C   LIG A   1      -8.978   1.298 125.470  0.00  0.00    +0.005 C 
ATOM      2  C   LIG A   1      -9.057   2.080 124.383  0.00  0.00    +0.067 C 
ENDROOT
BRANCH   2   3
ATOM      3  C   LIG A   1      -8.346   3.381 124.367  0.00  0.00    +0.237 C 
ATOM      4  N   LIG A   1      -7.279   3.528 123.529  0.00  0.00    -0.312 N 
ATOM      5  H   LIG A   1      -6.912   4.472 123.569  0.00  0.00    +0.149 HD
ATOM      6  O   LIG A   1      -8.678   4.289 125.109  0.00  0.00    -0.271 OA
BRANCH   4   7
ATOM      7  C   LIG A   1      -6.776   2.655 122.479  0.00  0.00    +0.107 C 
BRANCH   7   8
ATOM      8  C   LIG A   1      -5.875   3.422 121.491  0.00  0.00    +0.000 C 
ATOM      9  C   LIG A   1      -6.671   4.068 120.354  0.00  0.00    +0.009 C 
ATOM     10  C   LIG A   1      -5.055   4.504 122.200  0.00  0.00    +0.009 C 
ENDBRANCH   7   8
ENDBRANCH   4   7
ENDBRANCH   2   3
BRANCH   1  12
ATOM     11  C   LIG A   1      -8.823  -1.113 125.992  0.00  0.00    -0.027 C 
ATOM     12  C   LIG A   1      -9.491  -0.059 125.491  0.00  0.00    -0.004 C 
BRANCH  11  13
ATOM     13  C   LIG A   1      -9.271  -2.559 125.938  0.00  0.00    +0.027 C 
BRANCH  13  14
ATOM     14  C   LIG A   1      -8.969  -3.267 124.616  0.00  0.00    +0.004 C 
BRANCH  14  15
ATOM     15  C   LIG A   1      -7.535  -3.792 124.513  0.00  0.00    +0.000 C 
BRANCH  15  17
ATOM     16  C   LIG A   1      -5.170  -3.262 123.685  0.00  0.00    +0.004 C 
ATOM     17  C   LIG A   1      -6.625  -2.815 123.757  0.00  0.00    -0.003 C 
ENDBRANCH  15  17
ENDBRANCH  14  15
ENDBRANCH  13  14
ENDBRANCH  11  13
ENDBRANCH   1  12
TORSDOF 8
ENDMDL
MODEL 4
REMARK VINA RESULT:      -5.6      1.177      1.950
REMARK  Name = NuBBE_25
REMARK  11 active torsions:
REMARK  status: ('A' for Active; 'I' for Inactive)
REMARK    1  A    between atoms: C_1  and  C_2
REMARK    2  A    between atoms: C_2  and  C_3
REMARK    3  A    between atoms: C_3  and  C_4
REMARK    4  A    between atoms: C_4  and  C_5
REMARK    5  A    between atoms: C_5  and  C_6
REMARK    6  A    between atoms: C_7  and  C_8
REMARK    7  A    between atoms: C_9  and  C_10
REMARK    8  A    between atoms: N_11  and  C_13
REMARK    9  A    between atoms: C_13  and  C_14
REMARK   10  A    between atoms: C_14  and  C_15
REMARK   11  A    between atoms: C_14  and  C_16
REMARK                            x       y       z     vdW  Elec       q    Type
REMARK                         _______ _______ _______ _____ _____    ______ ____
ROOT
ATOM      1  C   LIG A   1      -8.279  -2.737 127.893  0.00  0.00    +0.005 C 
ATOM      2  C   LIG A   1      -8.675  -3.364 126.776  0.00  0.00    +0.067 C 
ENDROOT
BRANCH   2   3
ATOM      3  C   LIG A   1      -8.970  -2.571 125.559  0.00  0.00    +0.237 C 
ATOM      4  N   LIG A   1      -8.149  -2.710 124.478  0.00  0.00    -0.312 N 
ATOM      5  H   LIG A   1      -8.482  -2.159 123.694  0.00  0.00    +0.149 HD
ATOM      6  O   LIG A   1      -9.899  -1.784 125.530  0.00  0.00    -0.271 OA
BRANCH   4   7
ATOM      7  C   LIG A   1      -7.072  -3.655 124.226  0.00  0.00    +0.107 C 
BRANCH   7   8
ATOM      8  C   LIG A   1      -5.775  -2.936 123.804  0.00  0.00    +0.000 C 
ATOM      9  C   LIG A   1      -5.413  -1.783 124.744  0.00  0.00    +0.009 C 
ATOM     10  C   LIG A   1      -4.592  -3.906 123.731  0.00  0.00    +0.009 C 
ENDBRANCH   7   8
ENDBRANCH   4   7
ENDBRANCH   2   3
BRANCH   1  12
ATOM     11  C   LIG A   1      -7.295  -2.861 130.157  0.00  0.00    -0.027 C 
ATOM     12  C   LIG A   1      -7.800  -3.454 129.060  0.00  0.00    -0.004 C 
BRANCH  11  13
ATOM     13  C   LIG A   1      -6.685  -3.569 131.349  0.00  0.00    +0.027 C 
BRANCH  13  14
ATOM     14  C   LIG A   1      -5.309  -4.183 131.086  0.00  0.00    +0.004 C 
BRANCH  14  15
ATOM     15  C   LIG A   1      -4.155  -3.188 131.220  0.00  0.00    +0.000 C 
BRANCH  15  17
ATOM     16  C   LIG A   1      -4.092  -3.266 128.661  0.00  0.00    +0.004 C 
ATOM     17  C   LIG A   1      -3.292  -3.142 129.952  0.00  0.00    -0.003 C 
ENDBRANCH  15  17
ENDBRANCH  14  15
ENDBRANCH  13  14
ENDBRANCH  11  13
ENDBRANCH   1  12
TORSDOF 8
ENDMDL
MODEL 5
REMARK VINA RESULT:      -5.5      1.821      2.534
REMARK  Name = NuBBE_25
REMARK  11 active torsions:
REMARK  status: ('A' for Active; 'I' for Inactive)
REMARK    1  A    between atoms: C_1  and  C_2
REMARK    2  A    between atoms: C_2  and  C_3
REMARK    3  A    between atoms: C_3  and  C_4
REMARK    4  A    between atoms: C_4  and  C_5
REMARK    5  A    between atoms: C_5  and  C_6
REMARK    6  A    between atoms: C_7  and  C_8
REMARK    7  A    between atoms: C_9  and  C_10
REMARK    8  A    between atoms: N_11  and  C_13
REMARK    9  A    between atoms: C_13  and  C_14
REMARK   10  A    between atoms: C_14  and  C_15
REMARK   11  A    between atoms: C_14  and  C_16
REMARK                            x       y       z     vdW  Elec       q    Type
REMARK                         _______ _______ _______ _____ _____    ______ ____
ROOT
ATOM      1  C   LIG A   1      -8.669  -3.382 127.719  0.00  0.00    +0.005 C 
ATOM      2  C   LIG A   1      -8.159  -2.474 126.874  0.00  0.00    +0.067 C 
ENDROOT
BRANCH   2   3
ATOM      3  C   LIG A   1      -8.807  -2.255 125.560  0.00  0.00    +0.237 C 
ATOM      4  N   LIG A   1      -8.186  -2.730 124.441  0.00  0.00    -0.312 N 
ATOM      5  H   LIG A   1      -8.748  -2.565 123.614  0.00  0.00    +0.149 HD
ATOM      6  O   LIG A   1      -9.850  -1.633 125.468  0.00  0.00    -0.271 OA
BRANCH   4   7
ATOM      7  C   LIG A   1      -7.022  -3.593 124.302  0.00  0.00    +0.107 C 
BRANCH   7   8
ATOM      8  C   LIG A   1      -5.790  -2.807 123.814  0.00  0.00    +0.000 C 
ATOM      9  C   LIG A   1      -4.586  -3.715 123.545  0.00  0.00    +0.009 C 
ATOM     10  C   LIG A   1      -6.100  -2.007 122.546  0.00  0.00    +0.009 C 
ENDBRANCH   7   8
ENDBRANCH   4   7
ENDBRANCH   2   3
BRANCH   1  12
ATOM     11  C   LIG A   1      -6.914  -3.437 129.459  0.00  0.00    -0.027 C 
ATOM     12  C   LIG A   1      -8.203  -3.522 129.087  0.00  0.00    -0.004 C 
BRANCH  11  13
ATOM     13  C   LIG A   1      -6.372  -3.683 130.852  0.00  0.00    +0.027 C 
BRANCH  13  14
ATOM     14  C   LIG A   1      -5.515  -4.943 130.985  0.00  0.00    +0.004 C 
BRANCH  14  15
ATOM     15  C   LIG A   1      -5.039  -5.215 132.414  0.00  0.00    +0.000 C 
BRANCH  15  17
ATOM     16  C   LIG A   1      -5.367  -3.766 134.501  0.00  0.00    +0.004 C 
ATOM     17  C   LIG A   1      -6.021  -4.662 133.456  0.00  0.00    -0.003 C 
ENDBRANCH  15  17
ENDBRANCH  14  15
ENDBRANCH  13  14
ENDBRANCH  11  13
ENDBRANCH   1  12
TORSDOF 8
ENDMDL
MODEL 6
REMARK VINA RESULT:      -5.5     10.621     11.846
REMARK  Name = NuBBE_25
REMARK  11 active torsions:
REMARK  status: ('A' for Active; 'I' for Inactive)
REMARK    1  A    between atoms: C_1  and  C_2
REMARK    2  A    between atoms: C_2  and  C_3
REMARK    3  A    between atoms: C_3  and  C_4
REMARK    4  A    between atoms: C_4  and  C_5
REMARK    5  A    between atoms: C_5  and  C_6
REMARK    6  A    between atoms: C_7  and  C_8
REMARK    7  A    between atoms: C_9  and  C_10
REMARK    8  A    between atoms: N_11  and  C_13
REMARK    9  A    between atoms: C_13  and  C_14
REMARK   10  A    between atoms: C_14  and  C_15
REMARK   11  A    between atoms: C_14  and  C_16
REMARK                            x       y       z     vdW  Elec       q    Type
REMARK                         _______ _______ _______ _____ _____    ______ ____
ROOT
ATOM      1  C   LIG A   1      -9.081   6.553 130.439  0.00  0.00    +0.005 C 
ATOM      2  C   LIG A   1     -10.290   6.603 131.015  0.00  0.00    +0.067 C 
ENDROOT
BRANCH   2   3
ATOM      3  C   LIG A   1     -11.469   6.079 130.287  0.00  0.00    +0.237 C 
ATOM      4  N   LIG A   1     -12.605   6.834 130.257  0.00  0.00    -0.312 N 
ATOM      5  H   LIG A   1     -13.320   6.396 129.688  0.00  0.00    +0.149 HD
ATOM      6  O   LIG A   1     -11.445   4.982 129.756  0.00  0.00    -0.271 OA
BRANCH   4   7
ATOM      7  C   LIG A   1     -12.841   8.201 130.698  0.00  0.00    +0.107 C 
BRANCH   7   8
ATOM      8  C   LIG A   1     -12.733   9.199 129.527  0.00  0.00    +0.000 C 
ATOM      9  C   LIG A   1     -13.381   8.668 128.245  0.00  0.00    +0.009 C 
ATOM     10  C   LIG A   1     -13.365  10.549 129.880  0.00  0.00    +0.009 C 
ENDBRANCH   7   8
ENDBRANCH   4   7
ENDBRANCH   2   3
BRANCH   1  12
ATOM     11  C   LIG A   1      -6.929   5.974 131.509  0.00  0.00    -0.027 C 
ATOM     12  C   LIG A   1      -7.862   6.876 131.156  0.00  0.00    -0.004 C 
BRANCH  11  13
ATOM     13  C   LIG A   1      -5.699   6.247 132.349  0.00  0.00    +0.027 C 
BRANCH  13  14
ATOM     14  C   LIG A   1      -5.704   5.566 133.720  0.00  0.00    +0.004 C 
BRANCH  14  15
ATOM     15  C   LIG A   1      -7.084   5.520 134.379  0.00  0.00    +0.000 C 
BRANCH  15  17
ATOM     16  C   LIG A   1      -8.995   3.882 133.902  0.00  0.00    +0.004 C 
ATOM     17  C   LIG A   1      -7.608   4.083 134.501  0.00  0.00    -0.003 C 
ENDBRANCH  15  17
ENDBRANCH  14  15
ENDBRANCH  13  14
ENDBRANCH  11  13
ENDBRANCH   1  12
TORSDOF 8
ENDMDL
MODEL 7
REMARK VINA RESULT:      -5.5      3.243      6.242
REMARK  Name = NuBBE_25
REMARK  11 active torsions:
REMARK  status: ('A' for Active; 'I' for Inactive)
REMARK    1  A    between atoms: C_1  and  C_2
REMARK    2  A    between atoms: C_2  and  C_3
REMARK    3  A    between atoms: C_3  and  C_4
REMARK    4  A    between atoms: C_4  and  C_5
REMARK    5  A    between atoms: C_5  and  C_6
REMARK    6  A    between atoms: C_7  and  C_8
REMARK    7  A    between atoms: C_9  and  C_10
REMARK    8  A    between atoms: N_11  and  C_13
REMARK    9  A    between atoms: C_13  and  C_14
REMARK   10  A    between atoms: C_14  and  C_15
REMARK   11  A    between atoms: C_14  and  C_16
REMARK                            x       y       z     vdW  Elec       q    Type
REMARK                         _______ _______ _______ _____ _____    ______ ____
ROOT
ATOM      1  C   LIG A   1      -8.484  -3.126 129.096  0.00  0.00    +0.005 C 
ATOM      2  C   LIG A   1      -7.830  -1.970 129.281  0.00  0.00    +0.067 C 
ENDROOT
BRANCH   2   3
ATOM      3  C   LIG A   1      -7.656  -1.440 130.654  0.00  0.00    +0.237 C 
ATOM      4  N   LIG A   1      -6.587  -1.868 131.386  0.00  0.00    -0.312 N 
ATOM      5  H   LIG A   1      -6.547  -1.398 132.283  0.00  0.00    +0.149 HD
ATOM      6  O   LIG A   1      -8.467  -0.671 131.139  0.00  0.00    -0.271 OA
BRANCH   4   7
ATOM      7  C   LIG A   1      -5.436  -2.669 130.996  0.00  0.00    +0.107 C 
BRANCH   7   8
ATOM      8  C   LIG A   1      -5.463  -4.059 131.661  0.00  0.00    +0.000 C 
ATOM      9  C   LIG A   1      -5.689  -5.187 130.650  0.00  0.00    +0.009 C 
ATOM     10  C   LIG A   1      -4.170  -4.338 132.434  0.00  0.00    +0.009 C 
ENDBRANCH   7   8
ENDBRANCH   4   7
ENDBRANCH   2   3
BRANCH   1  12
ATOM     11  C   LIG A   1      -8.196  -3.218 126.642  0.00  0.00    -0.027 C 
ATOM     12  C   LIG A   1      -8.534  -3.795 127.809  0.00  0.00    -0.004 C 
BRANCH  11  13
ATOM     13  C   LIG A   1      -8.335  -3.840 125.269  0.00  0.00    +0.027 C 
BRANCH  13  14
ATOM     14  C   LIG A   1      -7.474  -3.187 124.186  0.00  0.00    +0.004 C 
BRANCH  14  15
ATOM     15  C   LIG A   1      -6.035  -2.911 124.629  0.00  0.00    +0.000 C 
BRANCH  15  17
ATOM     16  C   LIG A   1      -4.405  -4.617 123.633  0.00  0.00    +0.004 C 
ATOM     17  C   LIG A   1      -5.026  -3.231 123.517  0.00  0.00    -0.003 C 
ENDBRANCH  15  17
ENDBRANCH  14  15
ENDBRANCH  13  14
ENDBRANCH  11  13
ENDBRANCH   1  12
TORSDOF 8
ENDMDL
MODEL 8
REMARK VINA RESULT:      -5.4     10.516     11.561
REMARK  Name = NuBBE_25
REMARK  11 active torsions:
REMARK  status: ('A' for Active; 'I' for Inactive)
REMARK    1  A    between atoms: C_1  and  C_2
REMARK    2  A    between atoms: C_2  and  C_3
REMARK    3  A    between atoms: C_3  and  C_4
REMARK    4  A    between atoms: C_4  and  C_5
REMARK    5  A    between atoms: C_5  and  C_6
REMARK    6  A    between atoms: C_7  and  C_8
REMARK    7  A    between atoms: C_9  and  C_10
REMARK    8  A    between atoms: N_11  and  C_13
REMARK    9  A    between atoms: C_13  and  C_14
REMARK   10  A    between atoms: C_14  and  C_15
REMARK   11  A    between atoms: C_14  and  C_16
REMARK                            x       y       z     vdW  Elec       q    Type
REMARK                         _______ _______ _______ _____ _____    ______ ____
ROOT
ATOM      1  C   LIG A   1      -8.963   6.355 130.668  0.00  0.00    +0.005 C 
ATOM      2  C   LIG A   1     -10.121   6.035 131.263  0.00  0.00    +0.067 C 
ENDROOT
BRANCH   2   3
ATOM      3  C   LIG A   1     -11.260   5.565 130.440  0.00  0.00    +0.237 C 
ATOM      4  N   LIG A   1     -12.221   6.465 130.083  0.00  0.00    -0.312 N 
ATOM      5  H   LIG A   1     -12.916   6.039 129.481  0.00  0.00    +0.149 HD
ATOM      6  O   LIG A   1     -11.362   4.394 130.117  0.00  0.00    -0.271 OA
BRANCH   4   7
ATOM      7  C   LIG A   1     -12.261   7.912 130.236  0.00  0.00    +0.107 C 
BRANCH   7   8
ATOM      8  C   LIG A   1     -12.233   8.626 128.870  0.00  0.00    +0.000 C 
ATOM      9  C   LIG A   1     -10.868   8.519 128.183  0.00  0.00    +0.009 C 
ATOM     10  C   LIG A   1     -13.307   8.077 127.926  0.00  0.00    +0.009 C 
ENDBRANCH   7   8
ENDBRANCH   4   7
ENDBRANCH   2   3
BRANCH   1  12
ATOM     11  C   LIG A   1      -6.517   6.627 130.896  0.00  0.00    -0.027 C 
ATOM     12  C   LIG A   1      -7.755   6.646 131.419  0.00  0.00    -0.004 C 
BRANCH  11  13
ATOM     13  C   LIG A   1      -5.224   6.817 131.663  0.00  0.00    +0.027 C 
BRANCH  13  14
ATOM     14  C   LIG A   1      -4.124   7.539 130.883  0.00  0.00    +0.004 C 
BRANCH  14  15
ATOM     15  C   LIG A   1      -3.707   6.820 129.599  0.00  0.00    +0.000 C 
BRANCH  15  17
ATOM     16  C   LIG A   1      -1.621   6.467 131.044  0.00  0.00    +0.004 C 
ATOM     17  C   LIG A   1      -2.248   6.346 129.660  0.00  0.00    -0.003 C 
ENDBRANCH  15  17
ENDBRANCH  14  15
ENDBRANCH  13  14
ENDBRANCH  11  13
ENDBRANCH   1  12
TORSDOF 8
ENDMDL
MODEL 9
REMARK VINA RESULT:      -5.4     10.510     11.866
REMARK  Name = NuBBE_25
REMARK  11 active torsions:
REMARK  status: ('A' for Active; 'I' for Inactive)
REMARK    1  A    between atoms: C_1  and  C_2
REMARK    2  A    between atoms: C_2  and  C_3
REMARK    3  A    between atoms: C_3  and  C_4
REMARK    4  A    between atoms: C_4  and  C_5
REMARK    5  A    between atoms: C_5  and  C_6
REMARK    6  A    between atoms: C_7  and  C_8
REMARK    7  A    between atoms: C_9  and  C_10
REMARK    8  A    between atoms: N_11  and  C_13
REMARK    9  A    between atoms: C_13  and  C_14
REMARK   10  A    between atoms: C_14  and  C_15
REMARK   11  A    between atoms: C_14  and  C_16
REMARK                            x       y       z     vdW  Elec       q    Type
REMARK                         _______ _______ _______ _____ _____    ______ ____
ROOT
ATOM      1  C   LIG A   1      -7.708   6.371 131.595  0.00  0.00    +0.005 C 
ATOM      2  C   LIG A   1      -8.982   6.512 131.202  0.00  0.00    +0.067 C 
ENDROOT
BRANCH   2   3
ATOM      3  C   LIG A   1     -10.062   5.852 131.971  0.00  0.00    +0.237 C 
ATOM      4  N   LIG A   1     -11.310   5.790 131.421  0.00  0.00    -0.312 N 
ATOM      5  H   LIG A   1     -11.946   5.272 132.016  0.00  0.00    +0.149 HD
ATOM      6  O   LIG A   1      -9.859   5.405 133.087  0.00  0.00    -0.271 OA
BRANCH   4   7
ATOM      7  C   LIG A   1     -11.768   6.132 130.082  0.00  0.00    +0.107 C 
BRANCH   7   8
ATOM      8  C   LIG A   1     -12.794   7.282 130.112  0.00  0.00    +0.000 C 
ATOM      9  C   LIG A   1     -13.023   7.825 131.525  0.00  0.00    +0.009 C 
ATOM     10  C   LIG A   1     -12.370   8.437 129.200  0.00  0.00    +0.009 C 
ENDBRANCH   7   8
ENDBRANCH   4   7
ENDBRANCH   2   3
BRANCH   1  12
ATOM     11  C   LIG A   1      -5.384   6.645 130.800  0.00  0.00    -0.027 C 
ATOM     12  C   LIG A   1      -6.622   7.130 131.006  0.00  0.00    -0.004 C 
BRANCH  11  13
ATOM     13  C   LIG A   1      -4.194   7.431 130.290  0.00  0.00    +0.027 C 
BRANCH  13  14
ATOM     14  C   LIG A   1      -2.836   6.882 130.730  0.00  0.00    +0.004 C 
BRANCH  14  15
ATOM     15  C   LIG A   1      -1.911   6.522 129.566  0.00  0.00    +0.000 C 
BRANCH  15  17
ATOM     16  C   LIG A   1      -2.634   4.766 127.846  0.00  0.00    +0.004 C 
ATOM     17  C   LIG A   1      -2.700   6.225 128.283  0.00  0.00    -0.003 C 
ENDBRANCH  15  17
ENDBRANCH  14  15
ENDBRANCH  13  14
ENDBRANCH  11  13
ENDBRANCH   1  12
TORSDOF 8
ENDMDL
