MODEL 1
REMARK VINA RESULT:      -9.0      0.000      0.000
REMARK  Name = NuBBE_1411
REMARK  6 active torsions:
REMARK  status: ('A' for Active; 'I' for Inactive)
REMARK    1  A    between atoms: C_1  and  C_2
REMARK    2  A    between atoms: C_2  and  C_4
REMARK    3  A    between atoms: C_18  and  O_19
REMARK    4  A    between atoms: O_19  and  C_20
REMARK    5  A    between atoms: C_21  and  O_22
REMARK    6  A    between atoms: O_22  and  C_23
REMARK                            x       y       z     vdW  Elec       q    Type
REMARK                         _______ _______ _______ _____ _____    ______ ____
ROOT
ATOM      1  C   LIG A   1     -13.101   9.461 128.472  0.00  0.00    +0.060 C 
ATOM      2  C   LIG A   1     -12.732   7.982 128.631  0.00  0.00    +0.123 C 
ATOM      3  O   LIG A   1     -12.613   7.756 130.054  0.00  0.00    -0.481 OA
ATOM      4  C   LIG A   1     -13.883   7.104 128.127  0.00  0.00    +0.060 C 
ATOM      5  C   LIG A   1     -11.490   7.687 127.820  0.00  0.00    +0.020 C 
ATOM      6  C   LIG A   1     -10.429   7.045 128.316  0.00  0.00    +0.015 C 
ATOM      7  C   LIG A   1     -10.484   6.625 129.707  0.00  0.00    +0.059 A 
ATOM      8  C   LIG A   1     -11.564   7.008 130.512  0.00  0.00    +0.132 A 
ATOM      9  C   LIG A   1     -11.615   6.649 131.874  0.00  0.00    +0.047 A 
ATOM     10  C   LIG A   1     -10.596   5.887 132.449  0.00  0.00    +0.019 A 
ATOM     11  C   LIG A   1      -9.553   5.514 131.626  0.00  0.00    +0.065 A 
ATOM     12  C   LIG A   1      -9.487   5.859 130.289  0.00  0.00    +0.144 A 
ATOM     13  O   LIG A   1      -8.399   5.360 129.616  0.00  0.00    -0.465 OA
ATOM     14  C   LIG A   1      -7.608   4.640 130.601  0.00  0.00    +0.267 C 
ATOM     15  C   LIG A   1      -6.250   5.291 130.636  0.00  0.00    +0.221 C 
ATOM     16  C   LIG A   1      -5.339   4.891 129.542  0.00  0.00    +0.067 A 
ATOM     17  C   LIG A   1      -4.166   5.605 129.295  0.00  0.00    +0.064 A 
ATOM     18  C   LIG A   1      -3.376   5.300 128.177  0.00  0.00    +0.162 A 
ATOM     19  C   LIG A   1      -3.756   4.255 127.317  0.00  0.00    +0.165 A 
ATOM     20  C   LIG A   1      -4.914   3.517 127.606  0.00  0.00    +0.095 A 
ATOM     21  C   LIG A   1      -5.702   3.831 128.713  0.00  0.00    +0.135 A 
ATOM     22  O   LIG A   1      -6.822   3.064 128.885  0.00  0.00    -0.486 OA
ATOM     23  C   LIG A   1      -7.430   3.190 130.179  0.00  0.00    +0.293 C 
ATOM     24  O   LIG A   1      -5.919   6.156 131.441  0.00  0.00    -0.287 OA
ATOM     25  C   LIG A   1      -8.390   4.705 131.886  0.00  0.00    +0.221 C 
ATOM     26  O   LIG A   1      -8.168   4.132 132.939  0.00  0.00    -0.287 OA
ENDROOT
BRANCH  18  27
ATOM     27  O   LIG A   1      -2.263   6.094 128.073  0.00  0.00    -0.491 OA
ATOM     28  C   LIG A   1      -2.474   7.501 128.064  0.00  0.00    +0.277 C 
ENDBRANCH  18  27
BRANCH  19  29
ATOM     29  O   LIG A   1      -2.946   3.943 126.258  0.00  0.00    -0.491 OA
ATOM     30  C   LIG A   1      -1.880   3.039 126.532  0.00  0.00    +0.277 C 
ENDBRANCH  19  29
TORSDOF 2
ENDMDL
MODEL 2
REMARK VINA RESULT:      -8.5      3.752      7.963
REMARK  Name = NuBBE_1411
REMARK  6 active torsions:
REMARK  status: ('A' for Active; 'I' for Inactive)
REMARK    1  A    between atoms: C_1  and  C_2
REMARK    2  A    between atoms: C_2  and  C_4
REMARK    3  A    between atoms: C_18  and  O_19
REMARK    4  A    between atoms: O_19  and  C_20
REMARK    5  A    between atoms: C_21  and  O_22
REMARK    6  A    between atoms: O_22  and  C_23
REMARK                            x       y       z     vdW  Elec       q    Type
REMARK                         _______ _______ _______ _____ _____    ______ ____
ROOT
ATOM      1  C   LIG A   1      -8.261  -3.055 125.265  0.00  0.00    +0.060 C 
ATOM      2  C   LIG A   1      -7.369  -2.181 126.154  0.00  0.00    +0.123 C 
ATOM      3  O   LIG A   1      -7.467  -2.740 127.483  0.00  0.00    -0.481 OA
ATOM      4  C   LIG A   1      -5.906  -2.317 125.712  0.00  0.00    +0.060 C 
ATOM      5  C   LIG A   1      -7.794  -0.737 126.023  0.00  0.00    +0.020 C 
ATOM      6  C   LIG A   1      -8.024   0.055 127.074  0.00  0.00    +0.015 C 
ATOM      7  C   LIG A   1      -7.861  -0.518 128.399  0.00  0.00    +0.059 A 
ATOM      8  C   LIG A   1      -7.602  -1.888 128.543  0.00  0.00    +0.132 A 
ATOM      9  C   LIG A   1      -7.484  -2.472 129.820  0.00  0.00    +0.047 A 
ATOM     10  C   LIG A   1      -7.606  -1.695 130.973  0.00  0.00    +0.019 A 
ATOM     11  C   LIG A   1      -7.848  -0.347 130.798  0.00  0.00    +0.065 A 
ATOM     12  C   LIG A   1      -7.967   0.241 129.553  0.00  0.00    +0.144 A 
ATOM     13  O   LIG A   1      -8.160   1.601 129.573  0.00  0.00    -0.465 OA
ATOM     14  C   LIG A   1      -8.231   1.980 130.974  0.00  0.00    +0.267 C 
ATOM     15  C   LIG A   1      -9.579   2.617 131.190  0.00  0.00    +0.221 C 
ATOM     16  C   LIG A   1      -9.679   4.026 130.754  0.00  0.00    +0.067 A 
ATOM     17  C   LIG A   1     -10.922   4.651 130.643  0.00  0.00    +0.064 A 
ATOM     18  C   LIG A   1     -11.018   5.942 130.105  0.00  0.00    +0.162 A 
ATOM     19  C   LIG A   1      -9.855   6.618 129.698  0.00  0.00    +0.165 A 
ATOM     20  C   LIG A   1      -8.609   5.994 129.859  0.00  0.00    +0.095 A 
ATOM     21  C   LIG A   1      -8.519   4.705 130.386  0.00  0.00    +0.135 A 
ATOM     22  O   LIG A   1      -7.257   4.183 130.474  0.00  0.00    -0.486 OA
ATOM     23  C   LIG A   1      -7.160   3.011 131.298  0.00  0.00    +0.293 C 
ATOM     24  O   LIG A   1     -10.565   2.020 131.610  0.00  0.00    -0.287 OA
ATOM     25  C   LIG A   1      -7.978   0.719 131.756  0.00  0.00    +0.221 C 
ATOM     26  O   LIG A   1      -7.820   0.591 132.958  0.00  0.00    -0.287 OA
ENDROOT
BRANCH  18  27
ATOM     27  O   LIG A   1     -12.306   6.411 130.059  0.00  0.00    -0.491 OA
ATOM     28  C   LIG A   1     -12.735   7.221 131.146  0.00  0.00    +0.277 C 
ENDBRANCH  18  27
BRANCH  19  29
ATOM     29  O   LIG A   1      -9.966   7.896 129.220  0.00  0.00    -0.491 OA
ATOM     30  C   LIG A   1     -10.495   8.029 127.904  0.00  0.00    +0.277 C 
ENDBRANCH  19  29
TORSDOF 2
ENDMDL
MODEL 3
REMARK VINA RESULT:      -8.5      4.779      8.219
REMARK  Name = NuBBE_1411
REMARK  6 active torsions:
REMARK  status: ('A' for Active; 'I' for Inactive)
REMARK    1  A    between atoms: C_1  and  C_2
REMARK    2  A    between atoms: C_2  and  C_4
REMARK    3  A    between atoms: C_18  and  O_19
REMARK    4  A    between atoms: O_19  and  C_20
REMARK    5  A    between atoms: C_21  and  O_22
REMARK    6  A    between atoms: O_22  and  C_23
REMARK                            x       y       z     vdW  Elec       q    Type
REMARK                         _______ _______ _______ _____ _____    ______ ____
ROOT
ATOM      1  C   LIG A   1      -9.405  -3.156 123.956  0.00  0.00    +0.060 C 
ATOM      2  C   LIG A   1      -8.245  -2.781 124.884  0.00  0.00    +0.123 C 
ATOM      3  O   LIG A   1      -8.391  -3.612 126.057  0.00  0.00    -0.481 OA
ATOM      4  C   LIG A   1      -6.912  -3.158 124.224  0.00  0.00    +0.060 C 
ATOM      5  C   LIG A   1      -8.269  -1.290 125.136  0.00  0.00    +0.020 C 
ATOM      6  C   LIG A   1      -8.194  -0.755 126.358  0.00  0.00    +0.015 C 
ATOM      7  C   LIG A   1      -8.095  -1.664 127.487  0.00  0.00    +0.059 A 
ATOM      8  C   LIG A   1      -8.209  -3.046 127.287  0.00  0.00    +0.132 A 
ATOM      9  C   LIG A   1      -8.159  -3.941 128.374  0.00  0.00    +0.047 A 
ATOM     10  C   LIG A   1      -7.978  -3.472 129.676  0.00  0.00    +0.019 A 
ATOM     11  C   LIG A   1      -7.855  -2.107 129.839  0.00  0.00    +0.065 A 
ATOM     12  C   LIG A   1      -7.903  -1.216 128.784  0.00  0.00    +0.144 A 
ATOM     13  O   LIG A   1      -7.716   0.100 129.131  0.00  0.00    -0.465 OA
ATOM     14  C   LIG A   1      -7.575   0.122 130.578  0.00  0.00    +0.267 C 
ATOM     15  C   LIG A   1      -8.679   0.997 131.114  0.00  0.00    +0.221 C 
ATOM     16  C   LIG A   1      -8.423   2.450 131.019  0.00  0.00    +0.067 A 
ATOM     17  C   LIG A   1      -9.453   3.369 131.223  0.00  0.00    +0.064 A 
ATOM     18  C   LIG A   1      -9.234   4.736 131.003  0.00  0.00    +0.162 A 
ATOM     19  C   LIG A   1      -7.964   5.184 130.599  0.00  0.00    +0.165 A 
ATOM     20  C   LIG A   1      -6.927   4.252 130.443  0.00  0.00    +0.095 A 
ATOM     21  C   LIG A   1      -7.153   2.891 130.654  0.00  0.00    +0.135 A 
ATOM     22  O   LIG A   1      -6.079   2.069 130.448  0.00  0.00    -0.486 OA
ATOM     23  C   LIG A   1      -6.243   0.743 130.970  0.00  0.00    +0.293 C 
ATOM     24  O   LIG A   1      -9.756   0.575 131.524  0.00  0.00    -0.287 OA
ATOM     25  C   LIG A   1      -7.617  -1.317 131.019  0.00  0.00    +0.221 C 
ATOM     26  O   LIG A   1      -7.411  -1.776 132.129  0.00  0.00    -0.287 OA
ENDROOT
BRANCH  18  27
ATOM     27  O   LIG A   1     -10.345   5.504 131.241  0.00  0.00    -0.491 OA
ATOM     28  C   LIG A   1     -11.456   5.317 130.373  0.00  0.00    +0.277 C 
ENDBRANCH  18  27
BRANCH  19  29
ATOM     29  O   LIG A   1      -7.758   6.528 130.436  0.00  0.00    -0.491 OA
ATOM     30  C   LIG A   1      -6.612   7.069 131.087  0.00  0.00    +0.277 C 
ENDBRANCH  19  29
TORSDOF 2
ENDMDL
MODEL 4
REMARK VINA RESULT:      -8.4      4.743      7.787
REMARK  Name = NuBBE_1411
REMARK  6 active torsions:
REMARK  status: ('A' for Active; 'I' for Inactive)
REMARK    1  A    between atoms: C_1  and  C_2
REMARK    2  A    between atoms: C_2  and  C_4
REMARK    3  A    between atoms: C_18  and  O_19
REMARK    4  A    between atoms: O_19  and  C_20
REMARK    5  A    between atoms: C_21  and  O_22
REMARK    6  A    between atoms: O_22  and  C_23
REMARK                            x       y       z     vdW  Elec       q    Type
REMARK                         _______ _______ _______ _____ _____    ______ ____
ROOT
ATOM      1  C   LIG A   1      -9.295  -2.976 123.627  0.00  0.00    +0.060 C 
ATOM      2  C   LIG A   1      -8.137  -2.893 124.628  0.00  0.00    +0.123 C 
ATOM      3  O   LIG A   1      -8.614  -3.526 125.837  0.00  0.00    -0.481 OA
ATOM      4  C   LIG A   1      -6.953  -3.723 124.118  0.00  0.00    +0.060 C 
ATOM      5  C   LIG A   1      -7.707  -1.452 124.776  0.00  0.00    +0.020 C 
ATOM      6  C   LIG A   1      -7.545  -0.855 125.960  0.00  0.00    +0.015 C 
ATOM      7  C   LIG A   1      -7.810  -1.641 127.153  0.00  0.00    +0.059 A 
ATOM      8  C   LIG A   1      -8.341  -2.932 127.038  0.00  0.00    +0.132 A 
ATOM      9  C   LIG A   1      -8.646  -3.694 128.183  0.00  0.00    +0.047 A 
ATOM     10  C   LIG A   1      -8.410  -3.186 129.461  0.00  0.00    +0.019 A 
ATOM     11  C   LIG A   1      -7.873  -1.917 129.541  0.00  0.00    +0.065 A 
ATOM     12  C   LIG A   1      -7.570  -1.156 128.428  0.00  0.00    +0.144 A 
ATOM     13  O   LIG A   1      -7.000   0.064 128.700  0.00  0.00    -0.465 OA
ATOM     14  C   LIG A   1      -6.952   0.176 130.149  0.00  0.00    +0.267 C 
ATOM     15  C   LIG A   1      -7.755   1.394 130.522  0.00  0.00    +0.221 C 
ATOM     16  C   LIG A   1      -7.049   2.682 130.352  0.00  0.00    +0.067 A 
ATOM     17  C   LIG A   1      -7.748   3.889 130.399  0.00  0.00    +0.064 A 
ATOM     18  C   LIG A   1      -7.095   5.095 130.107  0.00  0.00    +0.162 A 
ATOM     19  C   LIG A   1      -5.725   5.089 129.789  0.00  0.00    +0.165 A 
ATOM     20  C   LIG A   1      -5.027   3.872 129.792  0.00  0.00    +0.095 A 
ATOM     21  C   LIG A   1      -5.684   2.674 130.073  0.00  0.00    +0.135 A 
ATOM     22  O   LIG A   1      -4.913   1.544 130.021  0.00  0.00    -0.486 OA
ATOM     23  C   LIG A   1      -5.520   0.388 130.616  0.00  0.00    +0.293 C 
ATOM     24  O   LIG A   1      -8.934   1.367 130.861  0.00  0.00    -0.287 OA
ATOM     25  C   LIG A   1      -7.474  -1.132 130.681  0.00  0.00    +0.221 C 
ATOM     26  O   LIG A   1      -7.495  -1.528 131.834  0.00  0.00    -0.287 OA
ENDROOT
BRANCH  18  27
ATOM     27  O   LIG A   1      -7.920   6.187 130.192  0.00  0.00    -0.491 OA
ATOM     28  C   LIG A   1      -8.490   6.467 131.465  0.00  0.00    +0.277 C 
ENDBRANCH  18  27
BRANCH  19  29
ATOM     29  O   LIG A   1      -5.096   6.282 129.555  0.00  0.00    -0.491 OA
ATOM     30  C   LIG A   1      -4.546   6.935 130.695  0.00  0.00    +0.277 C 
ENDBRANCH  19  29
TORSDOF 2
ENDMDL
MODEL 5
REMARK VINA RESULT:      -8.1      4.115      7.615
REMARK  Name = NuBBE_1411
REMARK  6 active torsions:
REMARK  status: ('A' for Active; 'I' for Inactive)
REMARK    1  A    between atoms: C_1  and  C_2
REMARK    2  A    between atoms: C_2  and  C_4
REMARK    3  A    between atoms: C_18  and  O_19
REMARK    4  A    between atoms: O_19  and  C_20
REMARK    5  A    between atoms: C_21  and  O_22
REMARK    6  A    between atoms: O_22  and  C_23
REMARK                            x       y       z     vdW  Elec       q    Type
REMARK                         _______ _______ _______ _____ _____    ______ ____
ROOT
ATOM      1  C   LIG A   1      -5.245  -2.898 123.229  0.00  0.00    +0.060 C 
ATOM      2  C   LIG A   1      -6.272  -2.274 124.180  0.00  0.00    +0.123 C 
ATOM      3  O   LIG A   1      -6.964  -1.266 123.409  0.00  0.00    -0.481 OA
ATOM      4  C   LIG A   1      -7.310  -3.327 124.586  0.00  0.00    +0.060 C 
ATOM      5  C   LIG A   1      -5.564  -1.772 125.419  0.00  0.00    +0.020 C 
ATOM      6  C   LIG A   1      -5.742  -0.545 125.915  0.00  0.00    +0.015 C 
ATOM      7  C   LIG A   1      -6.656   0.341 125.213  0.00  0.00    +0.059 A 
ATOM      8  C   LIG A   1      -7.214  -0.054 123.991  0.00  0.00    +0.132 A 
ATOM      9  C   LIG A   1      -8.068   0.807 123.273  0.00  0.00    +0.047 A 
ATOM     10  C   LIG A   1      -8.390   2.070 123.772  0.00  0.00    +0.019 A 
ATOM     11  C   LIG A   1      -7.835   2.424 124.985  0.00  0.00    +0.065 A 
ATOM     12  C   LIG A   1      -6.996   1.592 125.701  0.00  0.00    +0.144 A 
ATOM     13  O   LIG A   1      -6.577   2.095 126.908  0.00  0.00    -0.465 OA
ATOM     14  C   LIG A   1      -7.144   3.430 127.011  0.00  0.00    +0.267 C 
ATOM     15  C   LIG A   1      -5.991   4.389 127.147  0.00  0.00    +0.221 C 
ATOM     16  C   LIG A   1      -5.412   4.479 128.505  0.00  0.00    +0.067 A 
ATOM     17  C   LIG A   1      -4.186   5.112 128.716  0.00  0.00    +0.064 A 
ATOM     18  C   LIG A   1      -3.583   5.078 129.981  0.00  0.00    +0.162 A 
ATOM     19  C   LIG A   1      -4.228   4.424 131.046  0.00  0.00    +0.165 A 
ATOM     20  C   LIG A   1      -5.481   3.833 130.828  0.00  0.00    +0.095 A 
ATOM     21  C   LIG A   1      -6.073   3.861 129.565  0.00  0.00    +0.135 A 
ATOM     22  O   LIG A   1      -7.283   3.230 129.459  0.00  0.00    -0.486 OA
ATOM     23  C   LIG A   1      -8.007   3.542 128.259  0.00  0.00    +0.293 C 
ATOM     24  O   LIG A   1      -5.487   5.000 126.210  0.00  0.00    -0.287 OA
ATOM     25  C   LIG A   1      -7.997   3.611 125.784  0.00  0.00    +0.221 C 
ATOM     26  O   LIG A   1      -8.757   4.526 125.517  0.00  0.00    -0.287 OA
ENDROOT
BRANCH  18  27
ATOM     27  O   LIG A   1      -2.382   5.740 130.022  0.00  0.00    -0.491 OA
ATOM     28  C   LIG A   1      -2.050   6.540 128.894  0.00  0.00    +0.277 C 
ENDBRANCH  18  27
BRANCH  19  29
ATOM     29  O   LIG A   1      -3.644   4.444 132.284  0.00  0.00    -0.491 OA
ATOM     30  C   LIG A   1      -3.078   3.215 132.730  0.00  0.00    +0.277 C 
ENDBRANCH  19  29
TORSDOF 2
ENDMDL
MODEL 6
REMARK VINA RESULT:      -8.0      2.904      4.025
REMARK  Name = NuBBE_1411
REMARK  6 active torsions:
REMARK  status: ('A' for Active; 'I' for Inactive)
REMARK    1  A    between atoms: C_1  and  C_2
REMARK    2  A    between atoms: C_2  and  C_4
REMARK    3  A    between atoms: C_18  and  O_19
REMARK    4  A    between atoms: O_19  and  C_20
REMARK    5  A    between atoms: C_21  and  O_22
REMARK    6  A    between atoms: O_22  and  C_23
REMARK                            x       y       z     vdW  Elec       q    Type
REMARK                         _______ _______ _______ _____ _____    ______ ____
ROOT
ATOM      1  C   LIG A   1     -12.857   8.158 129.398  0.00  0.00    +0.060 C 
ATOM      2  C   LIG A   1     -11.701   7.282 128.904  0.00  0.00    +0.123 C 
ATOM      3  O   LIG A   1     -11.935   5.968 129.459  0.00  0.00    -0.481 OA
ATOM      4  C   LIG A   1     -11.768   7.148 127.378  0.00  0.00    +0.060 C 
ATOM      5  C   LIG A   1     -10.387   7.925 129.289  0.00  0.00    +0.020 C 
ATOM      6  C   LIG A   1      -9.400   7.263 129.897  0.00  0.00    +0.015 C 
ATOM      7  C   LIG A   1      -9.620   5.860 130.207  0.00  0.00    +0.059 A 
ATOM      8  C   LIG A   1     -10.876   5.281 129.985  0.00  0.00    +0.132 A 
ATOM      9  C   LIG A   1     -11.122   3.935 130.318  0.00  0.00    +0.047 A 
ATOM     10  C   LIG A   1     -10.113   3.139 130.864  0.00  0.00    +0.019 A 
ATOM     11  C   LIG A   1      -8.883   3.734 131.058  0.00  0.00    +0.065 A 
ATOM     12  C   LIG A   1      -8.625   5.054 130.737  0.00  0.00    +0.144 A 
ATOM     13  O   LIG A   1      -7.331   5.459 130.956  0.00  0.00    -0.465 OA
ATOM     14  C   LIG A   1      -6.640   4.318 131.533  0.00  0.00    +0.267 C 
ATOM     15  C   LIG A   1      -6.131   4.749 132.884  0.00  0.00    +0.221 C 
ATOM     16  C   LIG A   1      -4.887   5.548 132.854  0.00  0.00    +0.067 A 
ATOM     17  C   LIG A   1      -4.454   6.235 133.989  0.00  0.00    +0.064 A 
ATOM     18  C   LIG A   1      -3.348   7.093 133.916  0.00  0.00    +0.162 A 
ATOM     19  C   LIG A   1      -2.658   7.243 132.700  0.00  0.00    +0.165 A 
ATOM     20  C   LIG A   1      -3.078   6.510 131.580  0.00  0.00    +0.095 A 
ATOM     21  C   LIG A   1      -4.186   5.664 131.655  0.00  0.00    +0.135 A 
ATOM     22  O   LIG A   1      -4.523   5.019 130.497  0.00  0.00    -0.486 OA
ATOM     23  C   LIG A   1      -5.445   3.934 130.674  0.00  0.00    +0.293 C 
ATOM     24  O   LIG A   1      -6.721   4.548 133.940  0.00  0.00    -0.287 OA
ATOM     25  C   LIG A   1      -7.641   3.194 131.547  0.00  0.00    +0.221 C 
ATOM     26  O   LIG A   1      -7.461   2.021 131.828  0.00  0.00    -0.287 OA
ENDROOT
BRANCH  18  27
ATOM     27  O   LIG A   1      -3.055   7.696 135.113  0.00  0.00    -0.491 OA
ATOM     28  C   LIG A   1      -2.254   6.957 136.027  0.00  0.00    +0.277 C 
ENDBRANCH  18  27
BRANCH  19  29
ATOM     29  O   LIG A   1      -1.552   8.049 132.663  0.00  0.00    -0.491 OA
ATOM     30  C   LIG A   1      -0.296   7.397 132.830  0.00  0.00    +0.277 C 
ENDBRANCH  19  29
TORSDOF 2
ENDMDL
MODEL 7
REMARK VINA RESULT:      -8.0      3.659      7.300
REMARK  Name = NuBBE_1411
REMARK  6 active torsions:
REMARK  status: ('A' for Active; 'I' for Inactive)
REMARK    1  A    between atoms: C_1  and  C_2
REMARK    2  A    between atoms: C_2  and  C_4
REMARK    3  A    between atoms: C_18  and  O_19
REMARK    4  A    between atoms: O_19  and  C_20
REMARK    5  A    between atoms: C_21  and  O_22
REMARK    6  A    between atoms: O_22  and  C_23
REMARK                            x       y       z     vdW  Elec       q    Type
REMARK                         _______ _______ _______ _____ _____    ______ ____
ROOT
ATOM      1  C   LIG A   1      -1.592   6.656 130.781  0.00  0.00    +0.060 C 
ATOM      2  C   LIG A   1      -2.825   6.242 129.972  0.00  0.00    +0.123 C 
ATOM      3  O   LIG A   1      -3.948   6.903 130.596  0.00  0.00    -0.481 OA
ATOM      4  C   LIG A   1      -2.714   6.788 128.543  0.00  0.00    +0.060 C 
ATOM      5  C   LIG A   1      -2.905   4.733 129.921  0.00  0.00    +0.020 C 
ATOM      6  C   LIG A   1      -4.017   4.050 130.209  0.00  0.00    +0.015 C 
ATOM      7  C   LIG A   1      -5.194   4.810 130.596  0.00  0.00    +0.059 A 
ATOM      8  C   LIG A   1      -5.103   6.196 130.783  0.00  0.00    +0.132 A 
ATOM      9  C   LIG A   1      -6.221   6.945 131.200  0.00  0.00    +0.047 A 
ATOM     10  C   LIG A   1      -7.452   6.324 131.423  0.00  0.00    +0.019 A 
ATOM     11  C   LIG A   1      -7.512   4.961 131.218  0.00  0.00    +0.065 A 
ATOM     12  C   LIG A   1      -6.425   4.212 130.809  0.00  0.00    +0.144 A 
ATOM     13  O   LIG A   1      -6.684   2.877 130.612  0.00  0.00    -0.465 OA
ATOM     14  C   LIG A   1      -8.079   2.678 130.969  0.00  0.00    +0.267 C 
ATOM     15  C   LIG A   1      -8.107   1.670 132.089  0.00  0.00    +0.221 C 
ATOM     16  C   LIG A   1      -7.965   0.262 131.663  0.00  0.00    +0.067 A 
ATOM     17  C   LIG A   1      -7.703  -0.742 132.597  0.00  0.00    +0.064 A 
ATOM     18  C   LIG A   1      -7.441  -2.051 132.171  0.00  0.00    +0.162 A 
ATOM     19  C   LIG A   1      -7.464  -2.359 130.799  0.00  0.00    +0.165 A 
ATOM     20  C   LIG A   1      -7.774  -1.348 129.877  0.00  0.00    +0.095 A 
ATOM     21  C   LIG A   1      -8.025  -0.044 130.305  0.00  0.00    +0.135 A 
ATOM     22  O   LIG A   1      -8.289   0.867 129.318  0.00  0.00    -0.486 OA
ATOM     23  C   LIG A   1      -8.849   2.101 129.791  0.00  0.00    +0.293 C 
ATOM     24  O   LIG A   1      -8.153   1.963 133.279  0.00  0.00    -0.287 OA
ATOM     25  C   LIG A   1      -8.616   4.042 131.311  0.00  0.00    +0.221 C 
ATOM     26  O   LIG A   1      -9.768   4.367 131.545  0.00  0.00    -0.287 OA
ENDROOT
BRANCH  18  27
ATOM     27  O   LIG A   1      -7.199  -2.916 133.208  0.00  0.00    -0.491 OA
ATOM     28  C   LIG A   1      -8.283  -3.183 134.090  0.00  0.00    +0.277 C 
ENDBRANCH  18  27
BRANCH  19  29
ATOM     29  O   LIG A   1      -7.252  -3.654 130.408  0.00  0.00    -0.491 OA
ATOM     30  C   LIG A   1      -5.899  -4.018 130.155  0.00  0.00    +0.277 C 
ENDBRANCH  19  29
TORSDOF 2
ENDMDL
MODEL 8
REMARK VINA RESULT:      -7.9      7.823     11.060
REMARK  Name = NuBBE_1411
REMARK  6 active torsions:
REMARK  status: ('A' for Active; 'I' for Inactive)
REMARK    1  A    between atoms: C_1  and  C_2
REMARK    2  A    between atoms: C_2  and  C_4
REMARK    3  A    between atoms: C_18  and  O_19
REMARK    4  A    between atoms: O_19  and  C_20
REMARK    5  A    between atoms: C_21  and  O_22
REMARK    6  A    between atoms: O_22  and  C_23
REMARK                            x       y       z     vdW  Elec       q    Type
REMARK                         _______ _______ _______ _____ _____    ______ ____
ROOT
ATOM      1  C   LIG A   1      -8.246  -4.095 124.903  0.00  0.00    +0.060 C 
ATOM      2  C   LIG A   1      -8.450  -3.040 125.996  0.00  0.00    +0.123 C 
ATOM      3  O   LIG A   1      -7.191  -2.338 126.108  0.00  0.00    -0.481 OA
ATOM      4  C   LIG A   1      -9.499  -2.018 125.540  0.00  0.00    +0.060 C 
ATOM      5  C   LIG A   1      -8.932  -3.716 127.260  0.00  0.00    +0.020 C 
ATOM      6  C   LIG A   1      -8.382  -3.503 128.458  0.00  0.00    +0.015 C 
ATOM      7  C   LIG A   1      -7.260  -2.582 128.531  0.00  0.00    +0.059 A 
ATOM      8  C   LIG A   1      -6.710  -2.053 127.356  0.00  0.00    +0.132 A 
ATOM      9  C   LIG A   1      -5.595  -1.192 127.402  0.00  0.00    +0.047 A 
ATOM     10  C   LIG A   1      -5.021  -0.834 128.623  0.00  0.00    +0.019 A 
ATOM     11  C   LIG A   1      -5.593  -1.362 129.762  0.00  0.00    +0.065 A 
ATOM     12  C   LIG A   1      -6.686  -2.207 129.735  0.00  0.00    +0.144 A 
ATOM     13  O   LIG A   1      -7.148  -2.595 130.969  0.00  0.00    -0.465 OA
ATOM     14  C   LIG A   1      -6.251  -1.997 131.944  0.00  0.00    +0.267 C 
ATOM     15  C   LIG A   1      -5.641  -3.127 132.733  0.00  0.00    +0.221 C 
ATOM     16  C   LIG A   1      -6.505  -3.682 133.796  0.00  0.00    +0.067 A 
ATOM     17  C   LIG A   1      -6.185  -4.890 134.417  0.00  0.00    +0.064 A 
ATOM     18  C   LIG A   1      -7.075  -5.473 135.329  0.00  0.00    +0.162 A 
ATOM     19  C   LIG A   1      -8.284  -4.825 135.637  0.00  0.00    +0.165 A 
ATOM     20  C   LIG A   1      -8.570  -3.589 135.040  0.00  0.00    +0.095 A 
ATOM     21  C   LIG A   1      -7.685  -3.017 134.125  0.00  0.00    +0.135 A 
ATOM     22  O   LIG A   1      -8.077  -1.823 133.583  0.00  0.00    -0.486 OA
ATOM     23  C   LIG A   1      -7.030  -1.112 132.905  0.00  0.00    +0.293 C 
ATOM     24  O   LIG A   1      -4.552  -3.633 132.484  0.00  0.00    -0.287 OA
ATOM     25  C   LIG A   1      -5.280  -1.162 131.154  0.00  0.00    +0.221 C 
ATOM     26  O   LIG A   1      -4.435  -0.386 131.567  0.00  0.00    -0.287 OA
ENDROOT
BRANCH  18  27
ATOM     27  O   LIG A   1      -6.617  -6.658 135.845  0.00  0.00    -0.491 OA
ATOM     28  C   LIG A   1      -5.915  -6.594 137.081  0.00  0.00    +0.277 C 
ENDBRANCH  18  27
BRANCH  19  29
ATOM     29  O   LIG A   1      -9.117  -5.388 136.567  0.00  0.00    -0.491 OA
ATOM     30  C   LIG A   1      -9.385  -4.602 137.725  0.00  0.00    +0.277 C 
ENDBRANCH  19  29
TORSDOF 2
ENDMDL
MODEL 9
REMARK VINA RESULT:      -7.8      5.033      8.166
REMARK  Name = NuBBE_1411
REMARK  6 active torsions:
REMARK  status: ('A' for Active; 'I' for Inactive)
REMARK    1  A    between atoms: C_1  and  C_2
REMARK    2  A    between atoms: C_2  and  C_4
REMARK    3  A    between atoms: C_18  and  O_19
REMARK    4  A    between atoms: O_19  and  C_20
REMARK    5  A    between atoms: C_21  and  O_22
REMARK    6  A    between atoms: O_22  and  C_23
REMARK                            x       y       z     vdW  Elec       q    Type
REMARK                         _______ _______ _______ _____ _____    ______ ____
ROOT
ATOM      1  C   LIG A   1      -9.388  -0.928 122.880  0.00  0.00    +0.060 C 
ATOM      2  C   LIG A   1      -8.245  -1.325 123.820  0.00  0.00    +0.123 C 
ATOM      3  O   LIG A   1      -8.757  -2.406 124.631  0.00  0.00    -0.481 OA
ATOM      4  C   LIG A   1      -7.074  -1.887 123.004  0.00  0.00    +0.060 C 
ATOM      5  C   LIG A   1      -7.778  -0.106 124.582  0.00  0.00    +0.020 C 
ATOM      6  C   LIG A   1      -7.621  -0.089 125.908  0.00  0.00    +0.015 C 
ATOM      7  C   LIG A   1      -7.926  -1.308 126.639  0.00  0.00    +0.059 A 
ATOM      8  C   LIG A   1      -8.489  -2.403 125.972  0.00  0.00    +0.132 A 
ATOM      9  C   LIG A   1      -8.833  -3.578 126.669  0.00  0.00    +0.047 A 
ATOM     10  C   LIG A   1      -8.604  -3.684 128.042  0.00  0.00    +0.019 A 
ATOM     11  C   LIG A   1      -8.036  -2.593 128.669  0.00  0.00    +0.065 A 
ATOM     12  C   LIG A   1      -7.694  -1.434 127.999  0.00  0.00    +0.144 A 
ATOM     13  O   LIG A   1      -7.097  -0.472 128.777  0.00  0.00    -0.465 OA
ATOM     14  C   LIG A   1      -7.070  -1.004 130.130  0.00  0.00    +0.267 C 
ATOM     15  C   LIG A   1      -7.847  -0.045 130.995  0.00  0.00    +0.221 C 
ATOM     16  C   LIG A   1      -7.104   1.165 131.405  0.00  0.00    +0.067 A 
ATOM     17  C   LIG A   1      -7.771   2.253 131.971  0.00  0.00    +0.064 A 
ATOM     18  C   LIG A   1      -7.082   3.444 132.235  0.00  0.00    +0.162 A 
ATOM     19  C   LIG A   1      -5.708   3.535 131.951  0.00  0.00    +0.165 A 
ATOM     20  C   LIG A   1      -5.043   2.417 131.425  0.00  0.00    +0.095 A 
ATOM     21  C   LIG A   1      -5.735   1.237 131.155  0.00  0.00    +0.135 A 
ATOM     22  O   LIG A   1      -4.993   0.220 130.618  0.00  0.00    -0.486 OA
ATOM     23  C   LIG A   1      -5.641  -1.061 130.648  0.00  0.00    +0.293 C 
ATOM     24  O   LIG A   1      -9.031  -0.182 131.284  0.00  0.00    -0.287 OA
ATOM     25  C   LIG A   1      -7.635  -2.396 130.038  0.00  0.00    +0.221 C 
ATOM     26  O   LIG A   1      -7.685  -3.253 130.903  0.00  0.00    -0.287 OA
ENDROOT
BRANCH  18  27
ATOM     27  O   LIG A   1      -7.879   4.416 132.785  0.00  0.00    -0.491 OA
ATOM     28  C   LIG A   1      -8.400   4.163 134.084  0.00  0.00    +0.277 C 
ENDBRANCH  18  27
BRANCH  19  29
ATOM     29  O   LIG A   1      -5.044   4.691 132.262  0.00  0.00    -0.491 OA
ATOM     30  C   LIG A   1      -4.380   4.713 133.522  0.00  0.00    +0.277 C 
ENDBRANCH  19  29
TORSDOF 2
ENDMDL
