MODEL 1
REMARK VINA RESULT:      -6.9      0.000      0.000
REMARK  Name = NuBBE_2061
REMARK  7 active torsions:
REMARK  status: ('A' for Active; 'I' for Inactive)
REMARK    1  A    between atoms: C_1  and  O_2
REMARK    2  A    between atoms: O_2  and  C_3
REMARK    3  A    between atoms: C_13  and  O_15
REMARK    4  A    between atoms: C_18  and  O_19
REMARK    5  A    between atoms: O_19  and  C_20
REMARK    6  A    between atoms: C_21  and  O_22
REMARK    7  A    between atoms: O_22  and  C_23
REMARK                            x       y       z     vdW  Elec       q    Type
REMARK                         _______ _______ _______ _____ _____    ______ ____
ROOT
ATOM      1  C   LIG A   1      -5.733  -2.397 123.431  0.00  0.00    +0.147 C 
ATOM      2  C   LIG A   1      -6.936  -2.356 122.516  0.00  0.00    +0.005 C 
ATOM      3  C   LIG A   1      -8.181  -2.251 123.022  0.00  0.00    +0.008 C 
ATOM      4  C   LIG A   1      -8.272  -2.207 124.453  0.00  0.00    +0.009 C 
ATOM      5  C   LIG A   1      -8.722  -3.275 125.139  0.00  0.00    +0.033 C 
ATOM      6  C   LIG A   1      -8.089  -3.347 126.479  0.00  0.00    +0.160 C 
ATOM      7  N   LIG A   1      -7.327  -2.044 126.706  0.00  0.00    +0.233 N 
ATOM      8  O   LIG A   1      -6.102  -2.281 127.281  0.00  0.00    -0.774 OA
ATOM      9  C   LIG A   1      -8.132  -1.235 127.686  0.00  0.00    +0.168 C 
ATOM     10  C   LIG A   1      -7.561   0.156 127.825  0.00  0.00    +0.190 C 
ATOM     11  C   LIG A   1      -7.791   0.872 126.518  0.00  0.00    -0.001 A 
ATOM     12  C   LIG A   1      -8.072   2.250 126.525  0.00  0.00    +0.056 A 
ATOM     13  C   LIG A   1      -8.301   2.962 125.348  0.00  0.00    +0.162 A 
ATOM     14  C   LIG A   1      -8.234   2.282 124.129  0.00  0.00    +0.162 A 
ATOM     15  C   LIG A   1      -7.960   0.903 124.118  0.00  0.00    +0.059 A 
ATOM     16  C   LIG A   1      -7.723   0.166 125.302  0.00  0.00    +0.017 A 
ATOM     17  C   LIG A   1      -7.300  -1.335 125.259  0.00  0.00    +0.044 C 
ATOM     18  C   LIG A   1      -5.874  -1.396 124.600  0.00  0.00    +0.103 C 
ENDROOT
BRANCH   1  20
ATOM     19  C   LIG A   1      -4.331  -4.335 123.569  0.00  0.00    +0.194 C 
ATOM     20  O   LIG A   1      -5.602  -3.762 123.838  0.00  0.00    -0.376 OA
ENDBRANCH   1  20
BRANCH  10  21
ATOM     21  O   LIG A   1      -8.235   0.824 128.894  0.00  0.00    -0.382 OA
ATOM     22  H   LIG A   1      -7.712   1.620 129.094  0.00  0.00    +0.210 HD
ENDBRANCH  10  21
BRANCH  13  23
ATOM     23  O   LIG A   1      -8.687   4.274 125.370  0.00  0.00    -0.491 OA
ATOM     24  C   LIG A   1      -7.642   5.230 125.522  0.00  0.00    +0.277 C 
ENDBRANCH  13  23
BRANCH  14  25
ATOM     25  O   LIG A   1      -8.420   2.823 122.880  0.00  0.00    -0.491 OA
ATOM     26  C   LIG A   1      -7.235   3.191 122.177  0.00  0.00    +0.277 C 
ENDBRANCH  14  25
TORSDOF 4
ENDMDL
MODEL 2
REMARK VINA RESULT:      -6.8      2.354      4.887
REMARK  Name = NuBBE_2061
REMARK  7 active torsions:
REMARK  status: ('A' for Active; 'I' for Inactive)
REMARK    1  A    between atoms: C_1  and  O_2
REMARK    2  A    between atoms: O_2  and  C_3
REMARK    3  A    between atoms: C_13  and  O_15
REMARK    4  A    between atoms: C_18  and  O_19
REMARK    5  A    between atoms: O_19  and  C_20
REMARK    6  A    between atoms: C_21  and  O_22
REMARK    7  A    between atoms: O_22  and  C_23
REMARK                            x       y       z     vdW  Elec       q    Type
REMARK                         _______ _______ _______ _____ _____    ______ ____
ROOT
ATOM      1  C   LIG A   1      -7.651  -3.419 124.555  0.00  0.00    +0.147 C 
ATOM      2  C   LIG A   1      -6.173  -3.285 124.268  0.00  0.00    +0.005 C 
ATOM      3  C   LIG A   1      -5.584  -2.073 124.249  0.00  0.00    +0.008 C 
ATOM      4  C   LIG A   1      -6.450  -0.954 124.491  0.00  0.00    +0.009 C 
ATOM      5  C   LIG A   1      -6.808  -0.141 123.479  0.00  0.00    +0.033 C 
ATOM      6  C   LIG A   1      -8.161   0.423 123.707  0.00  0.00    +0.160 C 
ATOM      7  N   LIG A   1      -8.577   0.073 125.134  0.00  0.00    +0.233 N 
ATOM      8  O   LIG A   1      -9.890  -0.326 125.182  0.00  0.00    -0.774 OA
ATOM      9  C   LIG A   1      -8.464   1.338 125.942  0.00  0.00    +0.168 C 
ATOM     10  C   LIG A   1      -8.665   1.050 127.411  0.00  0.00    +0.190 C 
ATOM     11  C   LIG A   1      -7.485   0.238 127.879  0.00  0.00    -0.001 A 
ATOM     12  C   LIG A   1      -6.986   0.427 129.180  0.00  0.00    +0.056 A 
ATOM     13  C   LIG A   1      -5.894  -0.290 129.664  0.00  0.00    +0.162 A 
ATOM     14  C   LIG A   1      -5.288  -1.234 128.830  0.00  0.00    +0.162 A 
ATOM     15  C   LIG A   1      -5.779  -1.423 127.525  0.00  0.00    +0.059 A 
ATOM     16  C   LIG A   1      -6.888  -0.704 127.020  0.00  0.00    +0.017 A 
ATOM     17  C   LIG A   1      -7.491  -1.016 125.615  0.00  0.00    +0.044 C 
ATOM     18  C   LIG A   1      -8.100  -2.464 125.684  0.00  0.00    +0.103 C 
ENDROOT
BRANCH   1  20
ATOM     19  C   LIG A   1      -9.724  -3.330 123.355  0.00  0.00    +0.194 C 
ATOM     20  O   LIG A   1      -8.310  -3.202 123.304  0.00  0.00    -0.376 OA
ENDBRANCH   1  20
BRANCH  10  21
ATOM     21  O   LIG A   1      -8.736   2.292 128.115  0.00  0.00    -0.382 OA
ATOM     22  H   LIG A   1      -9.177   2.922 127.519  0.00  0.00    +0.210 HD
ENDBRANCH  10  21
BRANCH  13  23
ATOM     23  O   LIG A   1      -5.344  -0.018 130.887  0.00  0.00    -0.491 OA
ATOM     24  C   LIG A   1      -5.931  -0.689 131.998  0.00  0.00    +0.277 C 
ENDBRANCH  13  23
BRANCH  14  25
ATOM     25  O   LIG A   1      -4.216  -2.034 129.142  0.00  0.00    -0.491 OA
ATOM     26  C   LIG A   1      -4.528  -3.353 129.583  0.00  0.00    +0.277 C 
ENDBRANCH  14  25
TORSDOF 4
ENDMDL
MODEL 3
REMARK VINA RESULT:      -6.7      2.163      3.817
REMARK  Name = NuBBE_2061
REMARK  7 active torsions:
REMARK  status: ('A' for Active; 'I' for Inactive)
REMARK    1  A    between atoms: C_1  and  O_2
REMARK    2  A    between atoms: O_2  and  C_3
REMARK    3  A    between atoms: C_13  and  O_15
REMARK    4  A    between atoms: C_18  and  O_19
REMARK    5  A    between atoms: O_19  and  C_20
REMARK    6  A    between atoms: C_21  and  O_22
REMARK    7  A    between atoms: O_22  and  C_23
REMARK                            x       y       z     vdW  Elec       q    Type
REMARK                         _______ _______ _______ _____ _____    ______ ____
ROOT
ATOM      1  C   LIG A   1      -7.090  -2.106 127.977  0.00  0.00    +0.147 C 
ATOM      2  C   LIG A   1      -5.632  -2.136 127.579  0.00  0.00    +0.005 C 
ATOM      3  C   LIG A   1      -5.276  -2.178 126.280  0.00  0.00    +0.008 C 
ATOM      4  C   LIG A   1      -6.356  -2.216 125.336  0.00  0.00    +0.009 C 
ATOM      5  C   LIG A   1      -6.648  -3.356 124.682  0.00  0.00    +0.033 C 
ATOM      6  C   LIG A   1      -8.097  -3.434 124.377  0.00  0.00    +0.160 C 
ATOM      7  N   LIG A   1      -8.716  -2.076 124.699  0.00  0.00    +0.233 N 
ATOM      8  O   LIG A   1      -9.921  -2.222 125.341  0.00  0.00    -0.774 OA
ATOM      9  C   LIG A   1      -8.990  -1.400 123.383  0.00  0.00    +0.168 C 
ATOM     10  C   LIG A   1      -9.420   0.031 123.599  0.00  0.00    +0.190 C 
ATOM     11  C   LIG A   1      -8.229   0.786 124.131  0.00  0.00    -0.001 A 
ATOM     12  C   LIG A   1      -8.037   2.128 123.757  0.00  0.00    +0.056 A 
ATOM     13  C   LIG A   1      -6.951   2.873 124.213  0.00  0.00    +0.162 A 
ATOM     14  C   LIG A   1      -6.036   2.266 125.077  0.00  0.00    +0.162 A 
ATOM     15  C   LIG A   1      -6.220   0.922 125.449  0.00  0.00    +0.059 A 
ATOM     16  C   LIG A   1      -7.319   0.154 124.998  0.00  0.00    +0.017 A 
ATOM     17  C   LIG A   1      -7.570  -1.295 125.520  0.00  0.00    +0.044 C 
ATOM     18  C   LIG A   1      -7.914  -1.183 127.050  0.00  0.00    +0.103 C 
ENDROOT
BRANCH   1  20
ATOM     19  C   LIG A   1      -8.877  -3.658 128.355  0.00  0.00    +0.194 C 
ATOM     20  O   LIG A   1      -7.520  -3.470 127.981  0.00  0.00    -0.376 OA
ENDBRANCH   1  20
BRANCH  10  21
ATOM     21  O   LIG A   1      -9.847   0.575 122.347  0.00  0.00    -0.382 OA
ATOM     22  H   LIG A   1     -10.820   0.563 122.360  0.00  0.00    +0.210 HD
ENDBRANCH  10  21
BRANCH  13  23
ATOM     23  O   LIG A   1      -6.708   4.139 123.753  0.00  0.00    -0.491 OA
ATOM     24  C   LIG A   1      -5.625   4.273 122.837  0.00  0.00    +0.277 C 
ENDBRANCH  13  23
BRANCH  14  25
ATOM     25  O   LIG A   1      -4.921   2.849 125.629  0.00  0.00    -0.491 OA
ATOM     26  C   LIG A   1      -4.281   2.111 126.668  0.00  0.00    +0.277 C 
ENDBRANCH  14  25
TORSDOF 4
ENDMDL
MODEL 4
REMARK VINA RESULT:      -6.7      2.685      4.133
REMARK  Name = NuBBE_2061
REMARK  7 active torsions:
REMARK  status: ('A' for Active; 'I' for Inactive)
REMARK    1  A    between atoms: C_1  and  O_2
REMARK    2  A    between atoms: O_2  and  C_3
REMARK    3  A    between atoms: C_13  and  O_15
REMARK    4  A    between atoms: C_18  and  O_19
REMARK    5  A    between atoms: O_19  and  C_20
REMARK    6  A    between atoms: C_21  and  O_22
REMARK    7  A    between atoms: O_22  and  C_23
REMARK                            x       y       z     vdW  Elec       q    Type
REMARK                         _______ _______ _______ _____ _____    ______ ____
ROOT
ATOM      1  C   LIG A   1      -7.163  -2.106 126.677  0.00  0.00    +0.147 C 
ATOM      2  C   LIG A   1      -5.742  -2.341 126.220  0.00  0.00    +0.005 C 
ATOM      3  C   LIG A   1      -5.283  -1.777 125.085  0.00  0.00    +0.008 C 
ATOM      4  C   LIG A   1      -6.228  -0.979 124.357  0.00  0.00    +0.009 C 
ATOM      5  C   LIG A   1      -6.765  -1.438 123.211  0.00  0.00    +0.033 C 
ATOM      6  C   LIG A   1      -8.139  -0.910 123.022  0.00  0.00    +0.160 C 
ATOM      7  N   LIG A   1      -8.374   0.168 124.078  0.00  0.00    +0.233 N 
ATOM      8  O   LIG A   1      -9.629   0.059 124.625  0.00  0.00    -0.774 OA
ATOM      9  C   LIG A   1      -8.308   1.493 123.368  0.00  0.00    +0.168 C 
ATOM     10  C   LIG A   1      -8.332   2.630 124.360  0.00  0.00    +0.190 C 
ATOM     11  C   LIG A   1      -7.036   2.588 125.128  0.00  0.00    -0.001 A 
ATOM     12  C   LIG A   1      -6.432   3.792 125.532  0.00  0.00    +0.056 A 
ATOM     13  C   LIG A   1      -5.230   3.815 126.237  0.00  0.00    +0.162 A 
ATOM     14  C   LIG A   1      -4.618   2.601 126.560  0.00  0.00    +0.162 A 
ATOM     15  C   LIG A   1      -5.215   1.393 126.152  0.00  0.00    +0.059 A 
ATOM     16  C   LIG A   1      -6.436   1.354 125.438  0.00  0.00    +0.017 A 
ATOM     17  C   LIG A   1      -7.141   0.003 125.103  0.00  0.00    +0.044 C 
ATOM     18  C   LIG A   1      -7.591  -0.636 126.468  0.00  0.00    +0.103 C 
ENDROOT
BRANCH   1  20
ATOM     19  C   LIG A   1      -9.352  -2.984 126.252  0.00  0.00    +0.194 C 
ATOM     20  O   LIG A   1      -7.962  -3.057 125.970  0.00  0.00    -0.376 OA
ENDBRANCH   1  20
BRANCH  10  21
ATOM     21  O   LIG A   1      -8.457   3.861 123.644  0.00  0.00    -0.382 OA
ATOM     22  H   LIG A   1      -9.294   3.808 123.150  0.00  0.00    +0.210 HD
ENDBRANCH  10  21
BRANCH  13  23
ATOM     23  O   LIG A   1      -4.591   4.990 126.525  0.00  0.00    -0.491 OA
ATOM     24  C   LIG A   1      -4.544   5.354 127.901  0.00  0.00    +0.277 C 
ENDBRANCH  13  23
BRANCH  14  25
ATOM     25  O   LIG A   1      -3.445   2.434 127.255  0.00  0.00    -0.491 OA
ATOM     26  C   LIG A   1      -2.251   2.778 126.556  0.00  0.00    +0.277 C 
ENDBRANCH  14  25
TORSDOF 4
ENDMDL
MODEL 5
REMARK VINA RESULT:      -6.6      2.678      5.006
REMARK  Name = NuBBE_2061
REMARK  7 active torsions:
REMARK  status: ('A' for Active; 'I' for Inactive)
REMARK    1  A    between atoms: C_1  and  O_2
REMARK    2  A    between atoms: O_2  and  C_3
REMARK    3  A    between atoms: C_13  and  O_15
REMARK    4  A    between atoms: C_18  and  O_19
REMARK    5  A    between atoms: O_19  and  C_20
REMARK    6  A    between atoms: C_21  and  O_22
REMARK    7  A    between atoms: O_22  and  C_23
REMARK                            x       y       z     vdW  Elec       q    Type
REMARK                         _______ _______ _______ _____ _____    ______ ____
ROOT
ATOM      1  C   LIG A   1      -5.424  -2.791 129.356  0.00  0.00    +0.147 C 
ATOM      2  C   LIG A   1      -6.640  -3.669 129.548  0.00  0.00    +0.005 C 
ATOM      3  C   LIG A   1      -7.852  -3.124 129.775  0.00  0.00    +0.008 C 
ATOM      4  C   LIG A   1      -7.890  -1.691 129.840  0.00  0.00    +0.009 C 
ATOM      5  C   LIG A   1      -8.045  -1.069 131.025  0.00  0.00    +0.033 C 
ATOM      6  C   LIG A   1      -7.357   0.245 131.026  0.00  0.00    +0.160 C 
ATOM      7  N   LIG A   1      -6.916   0.542 129.594  0.00  0.00    +0.233 N 
ATOM      8  O   LIG A   1      -5.647   1.066 129.567  0.00  0.00    -0.774 OA
ATOM      9  C   LIG A   1      -7.848   1.597 129.063  0.00  0.00    +0.168 C 
ATOM     10  C   LIG A   1      -7.617   1.816 127.586  0.00  0.00    +0.190 C 
ATOM     11  C   LIG A   1      -8.065   0.569 126.868  0.00  0.00    -0.001 A 
ATOM     12  C   LIG A   1      -8.664   0.678 125.601  0.00  0.00    +0.056 A 
ATOM     13  C   LIG A   1      -9.104  -0.440 124.894  0.00  0.00    +0.162 A 
ATOM     14  C   LIG A   1      -8.930  -1.704 125.462  0.00  0.00    +0.162 A 
ATOM     15  C   LIG A   1      -8.338  -1.818 126.732  0.00  0.00    +0.059 A 
ATOM     16  C   LIG A   1      -7.883  -0.694 127.461  0.00  0.00    +0.017 A 
ATOM     17  C   LIG A   1      -7.119  -0.853 128.812  0.00  0.00    +0.044 C 
ATOM     18  C   LIG A   1      -5.749  -1.553 128.490  0.00  0.00    +0.103 C 
ENDROOT
BRANCH   1  20
ATOM     19  C   LIG A   1      -3.779  -1.689 130.705  0.00  0.00    +0.194 C 
ATOM     20  O   LIG A   1      -4.956  -2.483 130.671  0.00  0.00    -0.376 OA
ENDBRANCH   1  20
BRANCH  10  21
ATOM     21  O   LIG A   1      -8.385   2.946 127.166  0.00  0.00    -0.382 OA
ATOM     22  H   LIG A   1      -9.023   3.125 127.877  0.00  0.00    +0.210 HD
ENDBRANCH  10  21
BRANCH  13  23
ATOM     23  O   LIG A   1      -9.790  -0.317 123.715  0.00  0.00    -0.491 OA
ATOM     24  C   LIG A   1      -9.890   1.002 123.187  0.00  0.00    +0.277 C 
ENDBRANCH  13  23
BRANCH  14  25
ATOM     25  O   LIG A   1      -9.291  -2.908 124.906  0.00  0.00    -0.491 OA
ATOM     26  C   LIG A   1      -8.240  -3.855 124.730  0.00  0.00    +0.277 C 
ENDBRANCH  14  25
TORSDOF 4
ENDMDL
MODEL 6
REMARK VINA RESULT:      -6.4      2.132      5.275
REMARK  Name = NuBBE_2061
REMARK  7 active torsions:
REMARK  status: ('A' for Active; 'I' for Inactive)
REMARK    1  A    between atoms: C_1  and  O_2
REMARK    2  A    between atoms: O_2  and  C_3
REMARK    3  A    between atoms: C_13  and  O_15
REMARK    4  A    between atoms: C_18  and  O_19
REMARK    5  A    between atoms: O_19  and  C_20
REMARK    6  A    between atoms: C_21  and  O_22
REMARK    7  A    between atoms: O_22  and  C_23
REMARK                            x       y       z     vdW  Elec       q    Type
REMARK                         _______ _______ _______ _____ _____    ______ ____
ROOT
ATOM      1  C   LIG A   1      -6.743   2.382 123.826  0.00  0.00    +0.147 C 
ATOM      2  C   LIG A   1      -7.836   3.205 124.471  0.00  0.00    +0.005 C 
ATOM      3  C   LIG A   1      -9.024   2.647 124.779  0.00  0.00    +0.008 C 
ATOM      4  C   LIG A   1      -9.172   1.262 124.436  0.00  0.00    +0.009 C 
ATOM      5  C   LIG A   1      -9.941   0.898 123.392  0.00  0.00    +0.033 C 
ATOM      6  C   LIG A   1      -9.425  -0.341 122.761  0.00  0.00    +0.160 C 
ATOM      7  N   LIG A   1      -8.336  -0.909 123.669  0.00  0.00    +0.233 N 
ATOM      8  O   LIG A   1      -7.260  -1.348 122.936  0.00  0.00    -0.774 OA
ATOM      9  C   LIG A   1      -8.927  -2.108 124.359  0.00  0.00    +0.168 C 
ATOM     10  C   LIG A   1      -7.992  -2.622 125.428  0.00  0.00    +0.190 C 
ATOM     11  C   LIG A   1      -7.942  -1.586 126.522  0.00  0.00    -0.001 A 
ATOM     12  C   LIG A   1      -7.820  -2.000 127.860  0.00  0.00    +0.056 A 
ATOM     13  C   LIG A   1      -7.775  -1.087 128.913  0.00  0.00    +0.162 A 
ATOM     14  C   LIG A   1      -7.842   0.277 128.622  0.00  0.00    +0.162 A 
ATOM     15  C   LIG A   1      -7.971   0.696 127.285  0.00  0.00    +0.059 A 
ATOM     16  C   LIG A   1      -8.015  -0.217 126.205  0.00  0.00    +0.017 A 
ATOM     17  C   LIG A   1      -8.035   0.273 124.724  0.00  0.00    +0.044 C 
ATOM     18  C   LIG A   1      -6.653   0.970 124.448  0.00  0.00    +0.103 C 
ENDROOT
BRANCH   1  20
ATOM     19  C   LIG A   1      -6.589   3.558 121.744  0.00  0.00    +0.194 C 
ATOM     20  O   LIG A   1      -7.026   2.391 122.424  0.00  0.00    -0.376 OA
ENDBRANCH   1  20
BRANCH  10  21
ATOM     21  O   LIG A   1      -8.502  -3.861 125.926  0.00  0.00    -0.382 OA
ATOM     22  H   LIG A   1      -8.506  -3.786 126.896  0.00  0.00    +0.210 HD
ENDBRANCH  10  21
BRANCH  13  23
ATOM     23  O   LIG A   1      -7.773  -1.500 130.218  0.00  0.00    -0.491 OA
ATOM     24  C   LIG A   1      -7.375  -2.849 130.444  0.00  0.00    +0.277 C 
ENDBRANCH  13  23
BRANCH  14  25
ATOM     25  O   LIG A   1      -7.802   1.311 129.527  0.00  0.00    -0.491 OA
ATOM     26  C   LIG A   1      -8.623   2.436 129.225  0.00  0.00    +0.277 C 
ENDBRANCH  14  25
TORSDOF 4
ENDMDL
MODEL 7
REMARK VINA RESULT:      -6.2      1.952      4.251
REMARK  Name = NuBBE_2061
REMARK  7 active torsions:
REMARK  status: ('A' for Active; 'I' for Inactive)
REMARK    1  A    between atoms: C_1  and  O_2
REMARK    2  A    between atoms: O_2  and  C_3
REMARK    3  A    between atoms: C_13  and  O_15
REMARK    4  A    between atoms: C_18  and  O_19
REMARK    5  A    between atoms: O_19  and  C_20
REMARK    6  A    between atoms: C_21  and  O_22
REMARK    7  A    between atoms: O_22  and  C_23
REMARK                            x       y       z     vdW  Elec       q    Type
REMARK                         _______ _______ _______ _____ _____    ______ ____
ROOT
ATOM      1  C   LIG A   1      -8.794  -2.656 125.938  0.00  0.00    +0.147 C 
ATOM      2  C   LIG A   1      -7.537  -2.891 126.745  0.00  0.00    +0.005 C 
ATOM      3  C   LIG A   1      -6.404  -2.216 126.464  0.00  0.00    +0.008 C 
ATOM      4  C   LIG A   1      -6.478  -1.304 125.359  0.00  0.00    +0.009 C 
ATOM      5  C   LIG A   1      -5.886  -1.605 124.188  0.00  0.00    +0.033 C 
ATOM      6  C   LIG A   1      -6.628  -1.006 123.051  0.00  0.00    +0.160 C 
ATOM      7  N   LIG A   1      -7.671  -0.050 123.627  0.00  0.00    +0.233 N 
ATOM      8  O   LIG A   1      -8.871  -0.174 122.970  0.00  0.00    -0.774 OA
ATOM      9  C   LIG A   1      -7.165   1.345 123.377  0.00  0.00    +0.168 C 
ATOM     10  C   LIG A   1      -8.032   2.359 124.085  0.00  0.00    +0.190 C 
ATOM     11  C   LIG A   1      -7.822   2.178 125.566  0.00  0.00    -0.001 A 
ATOM     12  C   LIG A   1      -7.843   3.303 126.410  0.00  0.00    +0.056 A 
ATOM     13  C   LIG A   1      -7.648   3.197 127.787  0.00  0.00    +0.162 A 
ATOM     14  C   LIG A   1      -7.437   1.931 128.339  0.00  0.00    +0.162 A 
ATOM     15  C   LIG A   1      -7.408   0.803 127.498  0.00  0.00    +0.059 A 
ATOM     16  C   LIG A   1      -7.608   0.894 126.100  0.00  0.00    +0.017 A 
ATOM     17  C   LIG A   1      -7.693  -0.381 125.204  0.00  0.00    +0.044 C 
ATOM     18  C   LIG A   1      -8.995  -1.156 125.625  0.00  0.00    +0.103 C 
ENDROOT
BRANCH   1  20
ATOM     19  C   LIG A   1      -9.653  -3.246 123.780  0.00  0.00    +0.194 C 
ATOM     20  O   LIG A   1      -8.673  -3.487 124.781  0.00  0.00    -0.376 OA
ENDBRANCH   1  20
BRANCH  10  21
ATOM     21  O   LIG A   1      -7.633   3.669 123.673  0.00  0.00    -0.382 OA
ATOM     22  H   LIG A   1      -7.765   3.706 122.710  0.00  0.00    +0.210 HD
ENDBRANCH  10  21
BRANCH  13  23
ATOM     23  O   LIG A   1      -7.554   4.305 128.584  0.00  0.00    -0.491 OA
ATOM     24  C   LIG A   1      -8.774   4.766 129.156  0.00  0.00    +0.277 C 
ENDBRANCH  13  23
BRANCH  14  25
ATOM     25  O   LIG A   1      -7.239   1.639 129.667  0.00  0.00    -0.491 OA
ATOM     26  C   LIG A   1      -8.390   1.209 130.390  0.00  0.00    +0.277 C 
ENDBRANCH  14  25
TORSDOF 4
ENDMDL
MODEL 8
REMARK VINA RESULT:      -6.1      1.862      2.710
REMARK  Name = NuBBE_2061
REMARK  7 active torsions:
REMARK  status: ('A' for Active; 'I' for Inactive)
REMARK    1  A    between atoms: C_1  and  O_2
REMARK    2  A    between atoms: O_2  and  C_3
REMARK    3  A    between atoms: C_13  and  O_15
REMARK    4  A    between atoms: C_18  and  O_19
REMARK    5  A    between atoms: O_19  and  C_20
REMARK    6  A    between atoms: C_21  and  O_22
REMARK    7  A    between atoms: O_22  and  C_23
REMARK                            x       y       z     vdW  Elec       q    Type
REMARK                         _______ _______ _______ _____ _____    ______ ____
ROOT
ATOM      1  C   LIG A   1      -5.765  -1.591 125.151  0.00  0.00    +0.147 C 
ATOM      2  C   LIG A   1      -6.935  -1.146 124.302  0.00  0.00    +0.005 C 
ATOM      3  C   LIG A   1      -8.192  -1.193 124.786  0.00  0.00    +0.008 C 
ATOM      4  C   LIG A   1      -8.329  -1.704 126.119  0.00  0.00    +0.009 C 
ATOM      5  C   LIG A   1      -8.836  -2.935 126.327  0.00  0.00    +0.033 C 
ATOM      6  C   LIG A   1      -8.251  -3.549 127.544  0.00  0.00    +0.160 C 
ATOM      7  N   LIG A   1      -7.455  -2.470 128.275  0.00  0.00    +0.233 N 
ATOM      8  O   LIG A   1      -6.259  -2.964 128.734  0.00  0.00    -0.774 OA
ATOM      9  C   LIG A   1      -8.267  -2.072 129.478  0.00  0.00    +0.168 C 
ATOM     10  C   LIG A   1      -7.656  -0.869 130.157  0.00  0.00    +0.190 C 
ATOM     11  C   LIG A   1      -7.819   0.307 129.229  0.00  0.00    -0.001 A 
ATOM     12  C   LIG A   1      -8.057   1.584 129.766  0.00  0.00    +0.056 A 
ATOM     13  C   LIG A   1      -8.222   2.707 128.956  0.00  0.00    +0.162 A 
ATOM     14  C   LIG A   1      -8.137   2.552 127.570  0.00  0.00    +0.162 A 
ATOM     15  C   LIG A   1      -7.906   1.274 127.027  0.00  0.00    +0.059 A 
ATOM     16  C   LIG A   1      -7.733   0.127 127.836  0.00  0.00    +0.017 A 
ATOM     17  C   LIG A   1      -7.358  -1.256 127.219  0.00  0.00    +0.044 C 
ATOM     18  C   LIG A   1      -5.913  -1.117 126.614  0.00  0.00    +0.103 C 
ENDROOT
BRANCH   1  20
ATOM     19  C   LIG A   1      -5.014  -3.440 123.825  0.00  0.00    +0.194 C 
ATOM     20  O   LIG A   1      -5.691  -3.011 124.997  0.00  0.00    -0.376 OA
ENDBRANCH   1  20
BRANCH  10  21
ATOM     21  O   LIG A   1      -8.344  -0.641 131.390  0.00  0.00    -0.382 OA
ATOM     22  H   LIG A   1      -7.901  -1.193 132.058  0.00  0.00    +0.210 HD
ENDBRANCH  10  21
BRANCH  13  23
ATOM     23  O   LIG A   1      -8.567   3.923 129.480  0.00  0.00    -0.491 OA
ATOM     24  C   LIG A   1      -9.697   3.930 130.347  0.00  0.00    +0.277 C 
ENDBRANCH  13  23
BRANCH  14  25
ATOM     25  O   LIG A   1      -8.263   3.543 126.626  0.00  0.00    -0.491 OA
ATOM     26  C   LIG A   1      -8.255   3.114 125.266  0.00  0.00    +0.277 C 
ENDBRANCH  14  25
TORSDOF 4
ENDMDL
MODEL 9
REMARK VINA RESULT:      -6.1      2.852      5.951
REMARK  Name = NuBBE_2061
REMARK  7 active torsions:
REMARK  status: ('A' for Active; 'I' for Inactive)
REMARK    1  A    between atoms: C_1  and  O_2
REMARK    2  A    between atoms: O_2  and  C_3
REMARK    3  A    between atoms: C_13  and  O_15
REMARK    4  A    between atoms: C_18  and  O_19
REMARK    5  A    between atoms: O_19  and  C_20
REMARK    6  A    between atoms: C_21  and  O_22
REMARK    7  A    between atoms: O_22  and  C_23
REMARK                            x       y       z     vdW  Elec       q    Type
REMARK                         _______ _______ _______ _____ _____    ______ ____
ROOT
ATOM      1  C   LIG A   1      -7.995  -1.635 124.970  0.00  0.00    +0.147 C 
ATOM      2  C   LIG A   1      -6.610  -2.236 125.060  0.00  0.00    +0.005 C 
ATOM      3  C   LIG A   1      -5.649  -1.641 125.795  0.00  0.00    +0.008 C 
ATOM      4  C   LIG A   1      -6.028  -0.419 126.445  0.00  0.00    +0.009 C 
ATOM      5  C   LIG A   1      -5.579   0.764 125.983  0.00  0.00    +0.033 C 
ATOM      6  C   LIG A   1      -6.566   1.841 126.241  0.00  0.00    +0.160 C 
ATOM      7  N   LIG A   1      -7.645   1.275 127.162  0.00  0.00    +0.233 N 
ATOM      8  O   LIG A   1      -8.896   1.675 126.761  0.00  0.00    -0.774 OA
ATOM      9  C   LIG A   1      -7.403   1.860 128.526  0.00  0.00    +0.168 C 
ATOM     10  C   LIG A   1      -8.299   1.207 129.552  0.00  0.00    +0.190 C 
ATOM     11  C   LIG A   1      -7.844  -0.221 129.706  0.00  0.00    -0.001 A 
ATOM     12  C   LIG A   1      -7.912  -0.836 130.969  0.00  0.00    +0.056 A 
ATOM     13  C   LIG A   1      -7.498  -2.152 131.173  0.00  0.00    +0.162 A 
ATOM     14  C   LIG A   1      -7.016  -2.879 130.082  0.00  0.00    +0.162 A 
ATOM     15  C   LIG A   1      -6.940  -2.267 128.818  0.00  0.00    +0.059 A 
ATOM     16  C   LIG A   1      -7.358  -0.934 128.594  0.00  0.00    +0.017 A 
ATOM     17  C   LIG A   1      -7.380  -0.315 127.162  0.00  0.00    +0.044 C 
ATOM     18  C   LIG A   1      -8.469  -1.094 126.338  0.00  0.00    +0.103 C 
ENDROOT
BRANCH   1  20
ATOM     19  C   LIG A   1      -9.149   0.021 123.679  0.00  0.00    +0.194 C 
ATOM     20  O   LIG A   1      -7.923  -0.646 123.939  0.00  0.00    -0.376 OA
ENDBRANCH   1  20
BRANCH  10  21
ATOM     21  O   LIG A   1      -8.173   1.915 130.787  0.00  0.00    -0.382 OA
ATOM     22  H   LIG A   1      -8.486   2.821 130.618  0.00  0.00    +0.210 HD
ENDBRANCH  10  21
BRANCH  13  23
ATOM     23  O   LIG A   1      -7.458  -2.703 132.424  0.00  0.00    -0.491 OA
ATOM     24  C   LIG A   1      -6.391  -2.271 133.262  0.00  0.00    +0.277 C 
ENDBRANCH  13  23
BRANCH  14  25
ATOM     25  O   LIG A   1      -6.578  -4.182 130.096  0.00  0.00    -0.491 OA
ATOM     26  C   LIG A   1      -5.188  -4.371 130.347  0.00  0.00    +0.277 C 
ENDBRANCH  14  25
TORSDOF 4
ENDMDL
