MODEL 1
REMARK VINA RESULT:      -6.7      0.000      0.000
REMARK  Name = NuBBE_1924
REMARK  6 active torsions:
REMARK  status: ('A' for Active; 'I' for Inactive)
REMARK    1  A    between atoms: C_5  and  C_6
REMARK    2  A    between atoms: C_6  and  C_7
REMARK    3  A    between atoms: C_10  and  O_11
REMARK    4  A    between atoms: O_11  and  C_12
REMARK    5  A    between atoms: C_13  and  C_24
REMARK    6  A    between atoms: C_15  and  C_18
REMARK                            x       y       z     vdW  Elec       q    Type
REMARK                         _______ _______ _______ _____ _____    ______ ____
ROOT
ATOM      1  O   LIG A   1     -12.881   8.056 129.838  0.00  0.00    -0.284 OA
ATOM      2  C   LIG A   1     -11.955   7.283 130.065  0.00  0.00    +0.223 C 
ATOM      3  C   LIG A   1     -11.724   6.846 131.457  0.00  0.00    +0.096 C 
ATOM      4  C   LIG A   1     -10.605   6.187 131.768  0.00  0.00    +0.113 C 
ATOM      5  C   LIG A   1      -9.494   5.880 130.806  0.00  0.00    +0.059 C 
ATOM      6  C   LIG A   1      -9.962   6.023 129.373  0.00  0.00    +0.038 C 
ATOM      7  C   LIG A   1     -11.066   6.689 128.997  0.00  0.00    +0.164 C 
ATOM      8  C   LIG A   1      -9.170   4.452 131.279  0.00  0.00    +0.049 C 
ATOM      9  C   LIG A   1      -9.545   4.466 132.782  0.00  0.00    +0.207 C 
ATOM     10  O   LIG A   1     -10.448   5.579 132.998  0.00  0.00    -0.487 OA
ATOM     11  C   LIG A   1      -9.955   3.338 130.571  0.00  0.00    +0.013 C 
ENDROOT
BRANCH   9  12
ATOM     12  C   LIG A   1      -8.345   4.512 133.713  0.00  0.00    -0.007 A 
ATOM     13  C   LIG A   1      -7.391   3.484 133.746  0.00  0.00    +0.007 A 
ATOM     14  C   LIG A   1      -6.315   3.537 134.633  0.00  0.00    +0.000 A 
ATOM     15  C   LIG A   1      -6.166   4.626 135.489  0.00  0.00    +0.000 A 
ATOM     16  C   LIG A   1      -7.086   5.671 135.450  0.00  0.00    +0.000 A 
ATOM     17  C   LIG A   1      -8.163   5.618 134.562  0.00  0.00    +0.007 A 
ENDBRANCH   9  12
BRANCH   7  18
ATOM     18  O   LIG A   1     -11.342   6.780 127.638  0.00  0.00    -0.492 OA
ATOM     19  C   LIG A   1     -10.854   7.949 126.985  0.00  0.00    +0.277 C 
ENDBRANCH   7  18
BRANCH   5  20
ATOM     20  C   LIG A   1      -8.315   6.876 131.059  0.00  0.00    +0.045 C 
BRANCH  20  21
ATOM     21  C   LIG A   1      -6.934   6.284 130.889  0.00  0.00    -0.033 C 
ATOM     22  C   LIG A   1      -5.915   6.516 131.726  0.00  0.00    +0.004 C 
ENDBRANCH  20  21
ENDBRANCH   5  20
TORSDOF 4
ENDMDL
MODEL 2
REMARK VINA RESULT:      -6.7      8.222     10.846
REMARK  Name = NuBBE_1924
REMARK  6 active torsions:
REMARK  status: ('A' for Active; 'I' for Inactive)
REMARK    1  A    between atoms: C_5  and  C_6
REMARK    2  A    between atoms: C_6  and  C_7
REMARK    3  A    between atoms: C_10  and  O_11
REMARK    4  A    between atoms: O_11  and  C_12
REMARK    5  A    between atoms: C_13  and  C_24
REMARK    6  A    between atoms: C_15  and  C_18
REMARK                            x       y       z     vdW  Elec       q    Type
REMARK                         _______ _______ _______ _____ _____    ______ ____
ROOT
ATOM      1  O   LIG A   1      -9.902  -3.657 123.279  0.00  0.00    -0.284 OA
ATOM      2  C   LIG A   1      -9.358  -2.693 123.808  0.00  0.00    +0.223 C 
ATOM      3  C   LIG A   1      -9.323  -1.411 123.076  0.00  0.00    +0.096 C 
ATOM      4  C   LIG A   1      -8.557  -0.412 123.523  0.00  0.00    +0.113 C 
ATOM      5  C   LIG A   1      -7.654  -0.493 124.720  0.00  0.00    +0.059 C 
ATOM      6  C   LIG A   1      -8.022  -1.669 125.598  0.00  0.00    +0.038 C 
ATOM      7  C   LIG A   1      -8.772  -2.711 125.201  0.00  0.00    +0.164 C 
ATOM      8  C   LIG A   1      -7.922   0.906 125.303  0.00  0.00    +0.049 C 
ATOM      9  C   LIG A   1      -8.267   1.765 124.060  0.00  0.00    +0.207 C 
ATOM     10  O   LIG A   1      -8.657   0.860 122.997  0.00  0.00    -0.487 OA
ATOM     11  C   LIG A   1      -9.081   0.980 126.308  0.00  0.00    +0.013 C 
ENDROOT
BRANCH   9  12
ATOM     12  C   LIG A   1      -7.149   2.703 123.635  0.00  0.00    -0.007 A 
ATOM     13  C   LIG A   1      -6.320   3.343 124.569  0.00  0.00    +0.007 A 
ATOM     14  C   LIG A   1      -5.322   4.224 124.151  0.00  0.00    +0.000 A 
ATOM     15  C   LIG A   1      -5.125   4.466 122.794  0.00  0.00    +0.000 A 
ATOM     16  C   LIG A   1      -5.918   3.817 121.851  0.00  0.00    +0.000 A 
ATOM     17  C   LIG A   1      -6.917   2.935 122.268  0.00  0.00    +0.007 A 
ENDBRANCH   9  12
BRANCH   7  18
ATOM     18  O   LIG A   1      -8.985  -3.745 126.105  0.00  0.00    -0.492 OA
ATOM     19  C   LIG A   1      -8.637  -3.463 127.457  0.00  0.00    +0.277 C 
ENDBRANCH   7  18
BRANCH   5  20
ATOM     20  C   LIG A   1      -6.178  -0.664 124.231  0.00  0.00    +0.045 C 
BRANCH  20  21
ATOM     21  C   LIG A   1      -5.554  -2.003 124.550  0.00  0.00    -0.033 C 
ATOM     22  C   LIG A   1      -5.195  -2.900 123.622  0.00  0.00    +0.004 C 
ENDBRANCH  20  21
ENDBRANCH   5  20
TORSDOF 4
ENDMDL
MODEL 3
REMARK VINA RESULT:      -6.6      7.074      9.504
REMARK  Name = NuBBE_1924
REMARK  6 active torsions:
REMARK  status: ('A' for Active; 'I' for Inactive)
REMARK    1  A    between atoms: C_5  and  C_6
REMARK    2  A    between atoms: C_6  and  C_7
REMARK    3  A    between atoms: C_10  and  O_11
REMARK    4  A    between atoms: O_11  and  C_12
REMARK    5  A    between atoms: C_13  and  C_24
REMARK    6  A    between atoms: C_15  and  C_18
REMARK                            x       y       z     vdW  Elec       q    Type
REMARK                         _______ _______ _______ _____ _____    ______ ____
ROOT
ATOM      1  O   LIG A   1      -6.543   4.671 128.235  0.00  0.00    -0.284 OA
ATOM      2  C   LIG A   1      -6.521   3.833 127.338  0.00  0.00    +0.223 C 
ATOM      3  C   LIG A   1      -7.741   3.040 127.083  0.00  0.00    +0.096 C 
ATOM      4  C   LIG A   1      -7.685   1.982 126.270  0.00  0.00    +0.113 C 
ATOM      5  C   LIG A   1      -6.438   1.474 125.606  0.00  0.00    +0.059 C 
ATOM      6  C   LIG A   1      -5.350   2.526 125.619  0.00  0.00    +0.038 C 
ATOM      7  C   LIG A   1      -5.340   3.601 126.425  0.00  0.00    +0.164 C 
ATOM      8  C   LIG A   1      -7.036   1.126 124.232  0.00  0.00    +0.049 C 
ATOM      9  C   LIG A   1      -8.510   0.768 124.550  0.00  0.00    +0.207 C 
ATOM     10  O   LIG A   1      -8.832   1.346 125.839  0.00  0.00    -0.487 OA
ATOM     11  C   LIG A   1      -7.001   2.263 123.200  0.00  0.00    +0.013 C 
ENDROOT
BRANCH   9  12
ATOM     12  C   LIG A   1      -8.803  -0.722 124.499  0.00  0.00    -0.007 A 
ATOM     13  C   LIG A   1      -9.175  -1.446 125.642  0.00  0.00    +0.007 A 
ATOM     14  C   LIG A   1      -9.407  -2.820 125.572  0.00  0.00    +0.000 A 
ATOM     15  C   LIG A   1      -9.290  -3.489 124.355  0.00  0.00    +0.000 A 
ATOM     16  C   LIG A   1      -8.952  -2.782 123.204  0.00  0.00    +0.000 A 
ATOM     17  C   LIG A   1      -8.719  -1.407 123.274  0.00  0.00    +0.007 A 
ENDBRANCH   9  12
BRANCH   7  18
ATOM     18  O   LIG A   1      -4.246   4.456 126.360  0.00  0.00    -0.492 OA
ATOM     19  C   LIG A   1      -3.022   3.932 126.866  0.00  0.00    +0.277 C 
ENDBRANCH   7  18
BRANCH   5  20
ATOM     20  C   LIG A   1      -5.933   0.210 126.377  0.00  0.00    +0.045 C 
BRANCH  20  21
ATOM     21  C   LIG A   1      -5.288  -0.848 125.511  0.00  0.00    -0.033 C 
ATOM     22  C   LIG A   1      -5.612  -2.147 125.553  0.00  0.00    +0.004 C 
ENDBRANCH  20  21
ENDBRANCH   5  20
TORSDOF 4
ENDMDL
MODEL 4
REMARK VINA RESULT:      -6.6      7.903      9.460
REMARK  Name = NuBBE_1924
REMARK  6 active torsions:
REMARK  status: ('A' for Active; 'I' for Inactive)
REMARK    1  A    between atoms: C_5  and  C_6
REMARK    2  A    between atoms: C_6  and  C_7
REMARK    3  A    between atoms: C_10  and  O_11
REMARK    4  A    between atoms: O_11  and  C_12
REMARK    5  A    between atoms: C_13  and  C_24
REMARK    6  A    between atoms: C_15  and  C_18
REMARK                            x       y       z     vdW  Elec       q    Type
REMARK                         _______ _______ _______ _____ _____    ______ ____
ROOT
ATOM      1  O   LIG A   1      -5.644   4.820 123.968  0.00  0.00    -0.284 OA
ATOM      2  C   LIG A   1      -6.330   3.804 123.928  0.00  0.00    +0.223 C 
ATOM      3  C   LIG A   1      -6.717   3.162 125.200  0.00  0.00    +0.096 C 
ATOM      4  C   LIG A   1      -7.273   1.947 125.188  0.00  0.00    +0.113 C 
ATOM      5  C   LIG A   1      -7.503   1.121 123.956  0.00  0.00    +0.059 C 
ATOM      6  C   LIG A   1      -7.429   1.975 122.708  0.00  0.00    +0.038 C 
ATOM      7  C   LIG A   1      -6.867   3.195 122.654  0.00  0.00    +0.164 C 
ATOM      8  C   LIG A   1      -8.889   0.556 124.315  0.00  0.00    +0.049 C 
ATOM      9  C   LIG A   1      -8.876   0.503 125.864  0.00  0.00    +0.207 C 
ATOM     10  O   LIG A   1      -7.840   1.405 126.324  0.00  0.00    -0.487 OA
ATOM     11  C   LIG A   1     -10.079   1.405 123.846  0.00  0.00    +0.013 C 
ENDROOT
BRANCH   9  12
ATOM     12  C   LIG A   1      -8.710  -0.898 126.427  0.00  0.00    -0.007 A 
ATOM     13  C   LIG A   1      -7.898  -1.160 127.542  0.00  0.00    +0.007 A 
ATOM     14  C   LIG A   1      -7.739  -2.461 128.019  0.00  0.00    +0.000 A 
ATOM     15  C   LIG A   1      -8.401  -3.520 127.400  0.00  0.00    +0.000 A 
ATOM     16  C   LIG A   1      -9.235  -3.276 126.312  0.00  0.00    +0.000 A 
ATOM     17  C   LIG A   1      -9.394  -1.974 125.834  0.00  0.00    +0.007 A 
ENDBRANCH   9  12
BRANCH   7  18
ATOM     18  O   LIG A   1      -6.827   3.840 121.423  0.00  0.00    -0.492 OA
ATOM     19  C   LIG A   1      -5.632   3.660 120.670  0.00  0.00    +0.277 C 
ENDBRANCH   7  18
BRANCH   5  20
ATOM     20  C   LIG A   1      -6.405   0.010 123.878  0.00  0.00    +0.045 C 
BRANCH  20  21
ATOM     21  C   LIG A   1      -6.848  -1.279 123.224  0.00  0.00    -0.033 C 
ATOM     22  C   LIG A   1      -6.459  -2.494 123.628  0.00  0.00    +0.004 C 
ENDBRANCH  20  21
ENDBRANCH   5  20
TORSDOF 4
ENDMDL
MODEL 5
REMARK VINA RESULT:      -6.5      8.102      9.960
REMARK  Name = NuBBE_1924
REMARK  6 active torsions:
REMARK  status: ('A' for Active; 'I' for Inactive)
REMARK    1  A    between atoms: C_5  and  C_6
REMARK    2  A    between atoms: C_6  and  C_7
REMARK    3  A    between atoms: C_10  and  O_11
REMARK    4  A    between atoms: O_11  and  C_12
REMARK    5  A    between atoms: C_13  and  C_24
REMARK    6  A    between atoms: C_15  and  C_18
REMARK                            x       y       z     vdW  Elec       q    Type
REMARK                         _______ _______ _______ _____ _____    ______ ____
ROOT
ATOM      1  O   LIG A   1      -6.699  -1.787 122.098  0.00  0.00    -0.284 OA
ATOM      2  C   LIG A   1      -7.090  -1.693 123.257  0.00  0.00    +0.223 C 
ATOM      3  C   LIG A   1      -6.103  -1.806 124.349  0.00  0.00    +0.096 C 
ATOM      4  C   LIG A   1      -6.520  -1.926 125.611  0.00  0.00    +0.113 C 
ATOM      5  C   LIG A   1      -7.958  -2.008 126.036  0.00  0.00    +0.059 C 
ATOM      6  C   LIG A   1      -8.877  -1.523 124.935  0.00  0.00    +0.038 C 
ATOM      7  C   LIG A   1      -8.521  -1.400 123.646  0.00  0.00    +0.164 C 
ATOM      8  C   LIG A   1      -7.876  -1.129 127.296  0.00  0.00    +0.049 C 
ATOM      9  C   LIG A   1      -6.420  -1.325 127.789  0.00  0.00    +0.207 C 
ATOM     10  O   LIG A   1      -5.642  -1.821 126.671  0.00  0.00    -0.487 OA
ATOM     11  C   LIG A   1      -8.136   0.367 127.063  0.00  0.00    +0.013 C 
ENDROOT
BRANCH   9  12
ATOM     12  C   LIG A   1      -6.303  -2.219 129.012  0.00  0.00    -0.007 A 
ATOM     13  C   LIG A   1      -5.313  -3.207 129.119  0.00  0.00    +0.007 A 
ATOM     14  C   LIG A   1      -5.248  -4.035 130.240  0.00  0.00    +0.000 A 
ATOM     15  C   LIG A   1      -6.162  -3.877 131.280  0.00  0.00    +0.000 A 
ATOM     16  C   LIG A   1      -7.134  -2.882 131.206  0.00  0.00    +0.000 A 
ATOM     17  C   LIG A   1      -7.198  -2.054 130.084  0.00  0.00    +0.007 A 
ENDBRANCH   9  12
BRANCH   7  18
ATOM     18  O   LIG A   1      -9.490  -0.988 122.737  0.00  0.00    -0.492 OA
ATOM     19  C   LIG A   1      -9.762   0.409 122.717  0.00  0.00    +0.277 C 
ENDBRANCH   7  18
BRANCH   5  20
ATOM     20  C   LIG A   1      -8.303  -3.498 126.367  0.00  0.00    +0.045 C 
BRANCH  20  21
ATOM     21  C   LIG A   1      -9.433  -3.685 127.353  0.00  0.00    -0.033 C 
ATOM     22  C   LIG A   1      -9.334  -4.413 128.473  0.00  0.00    +0.004 C 
ENDBRANCH  20  21
ENDBRANCH   5  20
TORSDOF 4
ENDMDL
MODEL 6
REMARK VINA RESULT:      -6.2      7.593     10.650
REMARK  Name = NuBBE_1924
REMARK  6 active torsions:
REMARK  status: ('A' for Active; 'I' for Inactive)
REMARK    1  A    between atoms: C_5  and  C_6
REMARK    2  A    between atoms: C_6  and  C_7
REMARK    3  A    between atoms: C_10  and  O_11
REMARK    4  A    between atoms: O_11  and  C_12
REMARK    5  A    between atoms: C_13  and  C_24
REMARK    6  A    between atoms: C_15  and  C_18
REMARK                            x       y       z     vdW  Elec       q    Type
REMARK                         _______ _______ _______ _____ _____    ______ ____
ROOT
ATOM      1  O   LIG A   1      -4.383  -0.710 130.810  0.00  0.00    -0.284 OA
ATOM      2  C   LIG A   1      -5.341  -1.004 130.101  0.00  0.00    +0.223 C 
ATOM      3  C   LIG A   1      -5.086  -1.673 128.810  0.00  0.00    +0.096 C 
ATOM      4  C   LIG A   1      -6.078  -1.809 127.926  0.00  0.00    +0.113 C 
ATOM      5  C   LIG A   1      -7.471  -1.279 128.111  0.00  0.00    +0.059 C 
ATOM      6  C   LIG A   1      -7.738  -0.953 129.565  0.00  0.00    +0.038 C 
ATOM      7  C   LIG A   1      -6.784  -0.786 130.495  0.00  0.00    +0.164 C 
ATOM      8  C   LIG A   1      -8.249  -2.470 127.524  0.00  0.00    +0.049 C 
ATOM      9  C   LIG A   1      -7.274  -3.069 126.479  0.00  0.00    +0.207 C 
ATOM     10  O   LIG A   1      -5.940  -2.607 126.808  0.00  0.00    -0.487 OA
ATOM     11  C   LIG A   1      -8.636  -3.558 128.537  0.00  0.00    +0.013 C 
ENDROOT
BRANCH   9  12
ATOM     12  C   LIG A   1      -7.651  -2.755 125.040  0.00  0.00    -0.007 A 
ATOM     13  C   LIG A   1      -6.772  -2.097 124.168  0.00  0.00    +0.007 A 
ATOM     14  C   LIG A   1      -7.156  -1.793 122.861  0.00  0.00    +0.000 A 
ATOM     15  C   LIG A   1      -8.419  -2.159 122.401  0.00  0.00    +0.000 A 
ATOM     16  C   LIG A   1      -9.294  -2.841 123.242  0.00  0.00    +0.000 A 
ATOM     17  C   LIG A   1      -8.910  -3.144 124.549  0.00  0.00    +0.007 A 
ENDBRANCH   9  12
BRANCH   7  18
ATOM     18  O   LIG A   1      -7.180  -0.438 131.782  0.00  0.00    -0.492 OA
ATOM     19  C   LIG A   1      -7.463  -1.526 132.656  0.00  0.00    +0.277 C 
ENDBRANCH   7  18
BRANCH   5  20
ATOM     20  C   LIG A   1      -7.636   0.022 127.258  0.00  0.00    +0.045 C 
BRANCH  20  21
ATOM     21  C   LIG A   1      -9.001   0.206 126.637  0.00  0.00    -0.033 C 
ATOM     22  C   LIG A   1      -9.199   0.550 125.357  0.00  0.00    +0.004 C 
ENDBRANCH  20  21
ENDBRANCH   5  20
TORSDOF 4
ENDMDL
MODEL 7
REMARK VINA RESULT:      -6.2      7.451     10.427
REMARK  Name = NuBBE_1924
REMARK  6 active torsions:
REMARK  status: ('A' for Active; 'I' for Inactive)
REMARK    1  A    between atoms: C_5  and  C_6
REMARK    2  A    between atoms: C_6  and  C_7
REMARK    3  A    between atoms: C_10  and  O_11
REMARK    4  A    between atoms: O_11  and  C_12
REMARK    5  A    between atoms: C_13  and  C_24
REMARK    6  A    between atoms: C_15  and  C_18
REMARK                            x       y       z     vdW  Elec       q    Type
REMARK                         _______ _______ _______ _____ _____    ______ ____
ROOT
ATOM      1  O   LIG A   1      -7.041  -0.366 133.483  0.00  0.00    -0.284 OA
ATOM      2  C   LIG A   1      -6.821  -1.039 132.480  0.00  0.00    +0.223 C 
ATOM      3  C   LIG A   1      -6.384  -0.351 131.249  0.00  0.00    +0.096 C 
ATOM      4  C   LIG A   1      -6.347  -1.020 130.094  0.00  0.00    +0.113 C 
ATOM      5  C   LIG A   1      -6.771  -2.449 129.915  0.00  0.00    +0.059 C 
ATOM      6  C   LIG A   1      -6.843  -3.164 131.247  0.00  0.00    +0.038 C 
ATOM      7  C   LIG A   1      -6.902  -2.547 132.439  0.00  0.00    +0.164 C 
ATOM      8  C   LIG A   1      -5.656  -2.901 128.956  0.00  0.00    +0.049 C 
ATOM      9  C   LIG A   1      -5.284  -1.608 128.187  0.00  0.00    +0.207 C 
ATOM     10  O   LIG A   1      -5.749  -0.482 128.971  0.00  0.00    -0.487 OA
ATOM     11  C   LIG A   1      -4.401  -3.465 129.638  0.00  0.00    +0.013 C 
ENDROOT
BRANCH   9  12
ATOM     12  C   LIG A   1      -5.809  -1.571 126.761  0.00  0.00    -0.007 A 
ATOM     13  C   LIG A   1      -5.468  -2.552 125.818  0.00  0.00    +0.007 A 
ATOM     14  C   LIG A   1      -5.940  -2.476 124.507  0.00  0.00    +0.000 A 
ATOM     15  C   LIG A   1      -6.773  -1.427 124.122  0.00  0.00    +0.000 A 
ATOM     16  C   LIG A   1      -7.147  -0.461 125.052  0.00  0.00    +0.000 A 
ATOM     17  C   LIG A   1      -6.675  -0.537 126.364  0.00  0.00    +0.007 A 
ENDBRANCH   9  12
BRANCH   7  18
ATOM     18  O   LIG A   1      -7.016  -3.337 133.578  0.00  0.00    -0.492 OA
ATOM     19  C   LIG A   1      -8.332  -3.472 134.105  0.00  0.00    +0.277 C 
ENDBRANCH   7  18
BRANCH   5  20
ATOM     20  C   LIG A   1      -8.185  -2.477 129.245  0.00  0.00    +0.045 C 
BRANCH  20  21
ATOM     21  C   LIG A   1      -8.453  -3.686 128.378  0.00  0.00    -0.033 C 
ATOM     22  C   LIG A   1      -8.933  -3.618 127.129  0.00  0.00    +0.004 C 
ENDBRANCH  20  21
ENDBRANCH   5  20
TORSDOF 4
ENDMDL
MODEL 8
REMARK VINA RESULT:      -6.1      2.341      6.199
REMARK  Name = NuBBE_1924
REMARK  6 active torsions:
REMARK  status: ('A' for Active; 'I' for Inactive)
REMARK    1  A    between atoms: C_5  and  C_6
REMARK    2  A    between atoms: C_6  and  C_7
REMARK    3  A    between atoms: C_10  and  O_11
REMARK    4  A    between atoms: O_11  and  C_12
REMARK    5  A    between atoms: C_13  and  C_24
REMARK    6  A    between atoms: C_15  and  C_18
REMARK                            x       y       z     vdW  Elec       q    Type
REMARK                         _______ _______ _______ _____ _____    ______ ____
ROOT
ATOM      1  O   LIG A   1      -7.101   1.142 133.798  0.00  0.00    -0.284 OA
ATOM      2  C   LIG A   1      -7.232   2.150 133.111  0.00  0.00    +0.223 C 
ATOM      3  C   LIG A   1      -8.365   3.055 133.391  0.00  0.00    +0.096 C 
ATOM      4  C   LIG A   1      -8.660   4.035 132.534  0.00  0.00    +0.113 C 
ATOM      5  C   LIG A   1      -7.949   4.280 131.234  0.00  0.00    +0.059 C 
ATOM      6  C   LIG A   1      -6.611   3.572 131.206  0.00  0.00    +0.038 C 
ATOM      7  C   LIG A   1      -6.264   2.569 132.029  0.00  0.00    +0.164 C 
ATOM      8  C   LIG A   1      -7.906   5.818 131.284  0.00  0.00    +0.049 C 
ATOM      9  C   LIG A   1      -9.166   6.196 132.103  0.00  0.00    +0.207 C 
ATOM     10  O   LIG A   1      -9.566   5.025 132.857  0.00  0.00    -0.487 OA
ATOM     11  C   LIG A   1      -6.663   6.414 131.961  0.00  0.00    +0.013 C 
ENDROOT
BRANCH   9  12
ATOM     12  C   LIG A   1     -10.302   6.751 131.260  0.00  0.00    -0.007 A 
ATOM     13  C   LIG A   1     -11.637   6.707 131.688  0.00  0.00    +0.007 A 
ATOM     14  C   LIG A   1     -12.663   7.195 130.879  0.00  0.00    +0.000 A 
ATOM     15  C   LIG A   1     -12.370   7.752 129.636  0.00  0.00    +0.000 A 
ATOM     16  C   LIG A   1     -11.048   7.833 129.207  0.00  0.00    +0.000 A 
ATOM     17  C   LIG A   1     -10.020   7.344 130.016  0.00  0.00    +0.007 A 
ENDBRANCH   9  12
BRANCH   7  18
ATOM     18  O   LIG A   1      -5.018   1.980 131.850  0.00  0.00    -0.492 OA
ATOM     19  C   LIG A   1      -3.953   2.548 132.607  0.00  0.00    +0.277 C 
ENDBRANCH   7  18
BRANCH   5  20
ATOM     20  C   LIG A   1      -8.835   3.743 130.062  0.00  0.00    +0.045 C 
BRANCH  20  21
ATOM     21  C   LIG A   1     -10.030   2.924 130.492  0.00  0.00    -0.033 C 
ATOM     22  C   LIG A   1     -11.301   3.306 130.313  0.00  0.00    +0.004 C 
ENDBRANCH  20  21
ENDBRANCH   5  20
TORSDOF 4
ENDMDL
MODEL 9
REMARK VINA RESULT:      -5.9      7.411     10.495
REMARK  Name = NuBBE_1924
REMARK  6 active torsions:
REMARK  status: ('A' for Active; 'I' for Inactive)
REMARK    1  A    between atoms: C_5  and  C_6
REMARK    2  A    between atoms: C_6  and  C_7
REMARK    3  A    between atoms: C_10  and  O_11
REMARK    4  A    between atoms: O_11  and  C_12
REMARK    5  A    between atoms: C_13  and  C_24
REMARK    6  A    between atoms: C_15  and  C_18
REMARK                            x       y       z     vdW  Elec       q    Type
REMARK                         _______ _______ _______ _____ _____    ______ ____
ROOT
ATOM      1  O   LIG A   1      -3.362  -3.725 130.791  0.00  0.00    -0.284 OA
ATOM      2  C   LIG A   1      -4.425  -3.341 130.313  0.00  0.00    +0.223 C 
ATOM      3  C   LIG A   1      -4.478  -3.020 128.872  0.00  0.00    +0.096 C 
ATOM      4  C   LIG A   1      -5.548  -2.399 128.370  0.00  0.00    +0.113 C 
ATOM      5  C   LIG A   1      -6.727  -1.933 129.175  0.00  0.00    +0.059 C 
ATOM      6  C   LIG A   1      -6.762  -2.612 130.528  0.00  0.00    +0.038 C 
ATOM      7  C   LIG A   1      -5.715  -3.236 131.093  0.00  0.00    +0.164 C 
ATOM      8  C   LIG A   1      -7.844  -2.317 128.189  0.00  0.00    +0.049 C 
ATOM      9  C   LIG A   1      -7.164  -2.208 126.800  0.00  0.00    +0.207 C 
ATOM     10  O   LIG A   1      -5.731  -2.272 127.008  0.00  0.00    -0.487 OA
ATOM     11  C   LIG A   1      -8.410  -3.734 128.367  0.00  0.00    +0.013 C 
ENDROOT
BRANCH   9  12
ATOM     12  C   LIG A   1      -7.576  -0.976 126.012  0.00  0.00    -0.007 A 
ATOM     13  C   LIG A   1      -6.633  -0.092 125.468  0.00  0.00    +0.007 A 
ATOM     14  C   LIG A   1      -7.040   1.050 124.776  0.00  0.00    +0.000 A 
ATOM     15  C   LIG A   1      -8.396   1.316 124.602  0.00  0.00    +0.000 A 
ATOM     16  C   LIG A   1      -9.348   0.434 125.108  0.00  0.00    +0.000 A 
ATOM     17  C   LIG A   1      -8.941  -0.707 125.801  0.00  0.00    +0.007 A 
ENDBRANCH   9  12
BRANCH   7  18
ATOM     18  O   LIG A   1      -5.883  -3.770 132.366  0.00  0.00    -0.492 OA
ATOM     19  C   LIG A   1      -6.175  -2.831 133.396  0.00  0.00    +0.277 C 
ENDBRANCH   7  18
BRANCH   5  20
ATOM     20  C   LIG A   1      -6.618  -0.387 129.384  0.00  0.00    +0.045 C 
BRANCH  20  21
ATOM     21  C   LIG A   1      -7.942   0.332 129.514  0.00  0.00    -0.033 C 
ATOM     22  C   LIG A   1      -8.275   1.418 128.804  0.00  0.00    +0.004 C 
ENDBRANCH  20  21
ENDBRANCH   5  20
TORSDOF 4
ENDMDL
