MODEL 1
REMARK VINA RESULT:      -6.3      0.000      0.000
REMARK  Name = NuBBE_450
REMARK  8 active torsions:
REMARK  status: ('A' for Active; 'I' for Inactive)
REMARK    1  A    between atoms: C_3  and  C_5
REMARK    2  A    between atoms: C_10  and  C_11
REMARK    3  A    between atoms: C_11  and  O_12
REMARK    4  A    between atoms: O_12  and  C_13
REMARK    5  A    between atoms: C_13  and  C_14
REMARK    6  A    between atoms: C_18  and  O_20
REMARK    7  A    between atoms: O_20  and  C_21
REMARK    8  A    between atoms: C_21  and  C_22
REMARK                            x       y       z     vdW  Elec       q    Type
REMARK                         _______ _______ _______ _____ _____    ______ ____
ROOT
ATOM      1  C   LIG A   1     -11.566   7.240 129.533  0.00  0.00    +0.081 C 
ATOM      2  C   LIG A   1     -12.162   8.426 130.307  0.00  0.00    -0.003 C 
ATOM      3  C   LIG A   1     -12.950   9.397 129.443  0.00  0.00    +0.008 C 
ATOM      4  C   LIG A   1     -13.038   7.715 131.331  0.00  0.00    +0.004 C 
ATOM      5  C   LIG A   1     -12.210   6.503 131.764  0.00  0.00    +0.009 C 
ATOM      6  C   LIG A   1     -11.177   6.241 130.646  0.00  0.00    +0.032 C 
ATOM      7  C   LIG A   1      -9.737   6.418 131.089  0.00  0.00    +0.005 C 
ATOM      8  C   LIG A   1      -8.940   7.322 130.493  0.00  0.00    +0.194 C 
ATOM      9  O   LIG A   1      -9.271   8.091 129.410  0.00  0.00    -0.461 OA
ATOM     10  C   LIG A   1     -10.367   7.572 128.645  0.00  0.00    +0.370 C 
ENDROOT
BRANCH   7  11
ATOM     11  C   LIG A   1      -9.195   5.546 132.192  0.00  0.00    +0.266 C 
BRANCH  11  12
ATOM     12  O   LIG A   1      -9.460   4.171 131.875  0.00  0.00    -0.460 OA
BRANCH  12  13
ATOM     13  C   LIG A   1      -8.591   3.591 131.005  0.00  0.00    +0.304 C 
ATOM     14  C   LIG A   1      -9.323   2.871 129.920  0.00  0.00    +0.136 C 
ATOM     15  O   LIG A   1      -7.375   3.599 131.098  0.00  0.00    -0.251 OA
ENDBRANCH  12  13
ENDBRANCH  11  12
ENDBRANCH   7  11
BRANCH  10  16
ATOM     16  O   LIG A   1      -9.995   6.361 127.957  0.00  0.00    -0.425 OA
BRANCH  16  17
ATOM     17  C   LIG A   1      -9.903   6.459 126.611  0.00  0.00    +0.307 C 
ATOM     18  C   LIG A   1     -10.889   7.465 126.102  0.00  0.00    +0.136 C 
ATOM     19  O   LIG A   1      -9.152   5.815 125.889  0.00  0.00    -0.251 OA
ENDBRANCH  16  17
ENDBRANCH  10  16
TORSDOF 5
ENDMDL
MODEL 2
REMARK VINA RESULT:      -6.2      7.866     10.125
REMARK  Name = NuBBE_450
REMARK  8 active torsions:
REMARK  status: ('A' for Active; 'I' for Inactive)
REMARK    1  A    between atoms: C_3  and  C_5
REMARK    2  A    between atoms: C_10  and  C_11
REMARK    3  A    between atoms: C_11  and  O_12
REMARK    4  A    between atoms: O_12  and  C_13
REMARK    5  A    between atoms: C_13  and  C_14
REMARK    6  A    between atoms: C_18  and  O_20
REMARK    7  A    between atoms: O_20  and  C_21
REMARK    8  A    between atoms: C_21  and  C_22
REMARK                            x       y       z     vdW  Elec       q    Type
REMARK                         _______ _______ _______ _____ _____    ______ ____
ROOT
ATOM      1  C   LIG A   1      -7.390  -1.365 124.169  0.00  0.00    +0.081 C 
ATOM      2  C   LIG A   1      -6.462  -2.415 123.540  0.00  0.00    -0.003 C 
ATOM      3  C   LIG A   1      -6.067  -2.114 122.104  0.00  0.00    +0.008 C 
ATOM      4  C   LIG A   1      -5.272  -2.381 124.491  0.00  0.00    +0.004 C 
ATOM      5  C   LIG A   1      -5.898  -2.247 125.881  0.00  0.00    +0.009 C 
ATOM      6  C   LIG A   1      -7.320  -1.679 125.681  0.00  0.00    +0.032 C 
ATOM      7  C   LIG A   1      -8.425  -2.623 126.116  0.00  0.00    +0.005 C 
ATOM      8  C   LIG A   1      -9.351  -3.047 125.240  0.00  0.00    +0.194 C 
ATOM      9  O   LIG A   1      -9.473  -2.635 123.940  0.00  0.00    -0.461 OA
ATOM     10  C   LIG A   1      -8.834  -1.380 123.668  0.00  0.00    +0.370 C 
ENDROOT
BRANCH   7  11
ATOM     11  C   LIG A   1      -8.490  -3.063 127.555  0.00  0.00    +0.266 C 
BRANCH  11  12
ATOM     12  O   LIG A   1      -8.141  -1.956 128.400  0.00  0.00    -0.460 OA
BRANCH  12  13
ATOM     13  C   LIG A   1      -7.727  -2.282 129.654  0.00  0.00    +0.304 C 
ATOM     14  C   LIG A   1      -7.022  -3.600 129.657  0.00  0.00    +0.136 C 
ATOM     15  O   LIG A   1      -7.932  -1.633 130.665  0.00  0.00    -0.251 OA
ENDBRANCH  12  13
ENDBRANCH  11  12
ENDBRANCH   7  11
BRANCH  10  16
ATOM     16  O   LIG A   1      -9.524  -0.293 124.315  0.00  0.00    -0.425 OA
BRANCH  16  17
ATOM     17  C   LIG A   1     -10.016   0.660 123.491  0.00  0.00    +0.307 C 
ATOM     18  C   LIG A   1      -9.423   1.991 123.836  0.00  0.00    +0.136 C 
ATOM     19  O   LIG A   1     -10.842   0.492 122.603  0.00  0.00    -0.251 OA
ENDBRANCH  16  17
ENDBRANCH  10  16
TORSDOF 5
ENDMDL
MODEL 3
REMARK VINA RESULT:      -6.2      7.807     10.826
REMARK  Name = NuBBE_450
REMARK  8 active torsions:
REMARK  status: ('A' for Active; 'I' for Inactive)
REMARK    1  A    between atoms: C_3  and  C_5
REMARK    2  A    between atoms: C_10  and  C_11
REMARK    3  A    between atoms: C_11  and  O_12
REMARK    4  A    between atoms: O_12  and  C_13
REMARK    5  A    between atoms: C_13  and  C_14
REMARK    6  A    between atoms: C_18  and  O_20
REMARK    7  A    between atoms: O_20  and  C_21
REMARK    8  A    between atoms: C_21  and  C_22
REMARK                            x       y       z     vdW  Elec       q    Type
REMARK                         _______ _______ _______ _____ _____    ______ ____
ROOT
ATOM      1  C   LIG A   1      -6.490  -2.382 124.861  0.00  0.00    +0.081 C 
ATOM      2  C   LIG A   1      -5.312  -2.533 123.887  0.00  0.00    -0.003 C 
ATOM      3  C   LIG A   1      -4.623  -3.886 123.952  0.00  0.00    +0.008 C 
ATOM      4  C   LIG A   1      -5.990  -2.288 122.545  0.00  0.00    +0.004 C 
ATOM      5  C   LIG A   1      -6.972  -1.147 122.816  0.00  0.00    +0.009 C 
ATOM      6  C   LIG A   1      -7.233  -1.130 124.339  0.00  0.00    +0.032 C 
ATOM      7  C   LIG A   1      -6.761   0.137 125.028  0.00  0.00    +0.005 C 
ATOM      8  C   LIG A   1      -5.843   0.086 126.008  0.00  0.00    +0.194 C 
ATOM      9  O   LIG A   1      -5.312  -1.054 126.550  0.00  0.00    -0.461 OA
ATOM     10  C   LIG A   1      -6.111  -2.225 126.333  0.00  0.00    +0.370 C 
ENDROOT
BRANCH   7  11
ATOM     11  C   LIG A   1      -7.357   1.459 124.619  0.00  0.00    +0.266 C 
BRANCH  11  12
ATOM     12  O   LIG A   1      -8.726   1.509 125.046  0.00  0.00    -0.460 OA
BRANCH  12  13
ATOM     13  C   LIG A   1      -9.649   1.598 124.051  0.00  0.00    +0.304 C 
ATOM     14  C   LIG A   1      -9.061   2.235 122.834  0.00  0.00    +0.136 C 
ATOM     15  O   LIG A   1     -10.817   1.258 124.128  0.00  0.00    -0.251 OA
ENDBRANCH  12  13
ENDBRANCH  11  12
ENDBRANCH   7  11
BRANCH  10  16
ATOM     16  O   LIG A   1      -7.336  -2.166 127.088  0.00  0.00    -0.425 OA
BRANCH  16  17
ATOM     17  C   LIG A   1      -7.354  -2.892 128.229  0.00  0.00    +0.307 C 
ATOM     18  C   LIG A   1      -8.652  -3.631 128.346  0.00  0.00    +0.136 C 
ATOM     19  O   LIG A   1      -6.467  -2.938 129.072  0.00  0.00    -0.251 OA
ENDBRANCH  16  17
ENDBRANCH  10  16
TORSDOF 5
ENDMDL
MODEL 4
REMARK VINA RESULT:      -6.1      6.559     10.063
REMARK  Name = NuBBE_450
REMARK  8 active torsions:
REMARK  status: ('A' for Active; 'I' for Inactive)
REMARK    1  A    between atoms: C_3  and  C_5
REMARK    2  A    between atoms: C_10  and  C_11
REMARK    3  A    between atoms: C_11  and  O_12
REMARK    4  A    between atoms: O_12  and  C_13
REMARK    5  A    between atoms: C_13  and  C_14
REMARK    6  A    between atoms: C_18  and  O_20
REMARK    7  A    between atoms: O_20  and  C_21
REMARK    8  A    between atoms: C_21  and  C_22
REMARK                            x       y       z     vdW  Elec       q    Type
REMARK                         _______ _______ _______ _____ _____    ______ ____
ROOT
ATOM      1  C   LIG A   1      -7.868  -1.764 128.047  0.00  0.00    +0.081 C 
ATOM      2  C   LIG A   1      -7.614  -3.024 128.889  0.00  0.00    -0.003 C 
ATOM      3  C   LIG A   1      -7.546  -2.766 130.385  0.00  0.00    +0.008 C 
ATOM      4  C   LIG A   1      -8.801  -3.897 128.501  0.00  0.00    +0.004 C 
ATOM      5  C   LIG A   1      -8.967  -3.669 126.998  0.00  0.00    +0.009 C 
ATOM      6  C   LIG A   1      -8.275  -2.328 126.666  0.00  0.00    +0.032 C 
ATOM      7  C   LIG A   1      -7.084  -2.466 125.737  0.00  0.00    +0.005 C 
ATOM      8  C   LIG A   1      -5.860  -2.067 126.124  0.00  0.00    +0.194 C 
ATOM      9  O   LIG A   1      -5.557  -1.435 127.300  0.00  0.00    -0.461 OA
ATOM     10  C   LIG A   1      -6.685  -0.805 127.925  0.00  0.00    +0.370 C 
ENDROOT
BRANCH   7  11
ATOM     11  C   LIG A   1      -7.292  -3.031 124.356  0.00  0.00    +0.266 C 
BRANCH  11  12
ATOM     12  O   LIG A   1      -7.757  -1.988 123.487  0.00  0.00    -0.460 OA
BRANCH  12  13
ATOM     13  C   LIG A   1      -9.087  -2.012 123.200  0.00  0.00    +0.304 C 
ATOM     14  C   LIG A   1      -9.636  -3.394 123.335  0.00  0.00    +0.136 C 
ATOM     15  O   LIG A   1      -9.754  -1.060 122.833  0.00  0.00    -0.251 OA
ENDBRANCH  12  13
ENDBRANCH  11  12
ENDBRANCH   7  11
BRANCH  10  16
ATOM     16  O   LIG A   1      -7.132   0.334 127.165  0.00  0.00    -0.425 OA
BRANCH  16  17
ATOM     17  C   LIG A   1      -7.912   1.214 127.834  0.00  0.00    +0.307 C 
ATOM     18  C   LIG A   1      -7.231   1.643 129.097  0.00  0.00    +0.136 C 
ATOM     19  O   LIG A   1      -9.024   1.599 127.495  0.00  0.00    -0.251 OA
ENDBRANCH  16  17
ENDBRANCH  10  16
TORSDOF 5
ENDMDL
MODEL 5
REMARK VINA RESULT:      -6.0      1.943      5.272
REMARK  Name = NuBBE_450
REMARK  8 active torsions:
REMARK  status: ('A' for Active; 'I' for Inactive)
REMARK    1  A    between atoms: C_3  and  C_5
REMARK    2  A    between atoms: C_10  and  C_11
REMARK    3  A    between atoms: C_11  and  O_12
REMARK    4  A    between atoms: O_12  and  C_13
REMARK    5  A    between atoms: C_13  and  C_14
REMARK    6  A    between atoms: C_18  and  O_20
REMARK    7  A    between atoms: O_20  and  C_21
REMARK    8  A    between atoms: C_21  and  C_22
REMARK                            x       y       z     vdW  Elec       q    Type
REMARK                         _______ _______ _______ _____ _____    ______ ____
ROOT
ATOM      1  C   LIG A   1      -8.919   4.314 131.176  0.00  0.00    +0.081 C 
ATOM      2  C   LIG A   1      -9.238   4.803 132.597  0.00  0.00    -0.003 C 
ATOM      3  C   LIG A   1      -8.986   3.768 133.681  0.00  0.00    +0.008 C 
ATOM      4  C   LIG A   1      -8.316   6.011 132.720  0.00  0.00    +0.004 C 
ATOM      5  C   LIG A   1      -8.388   6.686 131.349  0.00  0.00    +0.009 C 
ATOM      6  C   LIG A   1      -8.876   5.618 130.345  0.00  0.00    +0.032 C 
ATOM      7  C   LIG A   1     -10.221   5.934 129.719  0.00  0.00    +0.005 C 
ATOM      8  C   LIG A   1     -11.263   5.099 129.868  0.00  0.00    +0.194 C 
ATOM      9  O   LIG A   1     -11.229   3.878 130.487  0.00  0.00    -0.461 OA
ATOM     10  C   LIG A   1      -9.913   3.316 130.586  0.00  0.00    +0.370 C 
ENDROOT
BRANCH   7  11
ATOM     11  C   LIG A   1     -10.372   7.189 128.899  0.00  0.00    +0.266 C 
BRANCH  11  12
ATOM     12  O   LIG A   1     -10.177   6.870 127.513  0.00  0.00    -0.460 OA
BRANCH  12  13
ATOM     13  C   LIG A   1     -11.051   7.452 126.648  0.00  0.00    +0.304 C 
ATOM     14  C   LIG A   1     -12.457   7.311 127.135  0.00  0.00    +0.136 C 
ATOM     15  O   LIG A   1     -10.761   7.981 125.589  0.00  0.00    -0.251 OA
ENDBRANCH  12  13
ENDBRANCH  11  12
ENDBRANCH   7  11
BRANCH  10  16
ATOM     16  O   LIG A   1      -9.414   2.927 129.291  0.00  0.00    -0.425 OA
BRANCH  16  17
ATOM     17  C   LIG A   1      -8.688   1.785 129.264  0.00  0.00    +0.307 C 
ATOM     18  C   LIG A   1      -8.314   1.451 127.852  0.00  0.00    +0.136 C 
ATOM     19  O   LIG A   1      -8.389   1.095 130.230  0.00  0.00    -0.251 OA
ENDBRANCH  16  17
ENDBRANCH  10  16
TORSDOF 5
ENDMDL
MODEL 6
REMARK VINA RESULT:      -5.9      1.715      2.304
REMARK  Name = NuBBE_450
REMARK  8 active torsions:
REMARK  status: ('A' for Active; 'I' for Inactive)
REMARK    1  A    between atoms: C_3  and  C_5
REMARK    2  A    between atoms: C_10  and  C_11
REMARK    3  A    between atoms: C_11  and  O_12
REMARK    4  A    between atoms: O_12  and  C_13
REMARK    5  A    between atoms: C_13  and  C_14
REMARK    6  A    between atoms: C_18  and  O_20
REMARK    7  A    between atoms: O_20  and  C_21
REMARK    8  A    between atoms: C_21  and  C_22
REMARK                            x       y       z     vdW  Elec       q    Type
REMARK                         _______ _______ _______ _____ _____    ______ ____
ROOT
ATOM      1  C   LIG A   1     -11.153   6.461 129.656  0.00  0.00    +0.081 C 
ATOM      2  C   LIG A   1     -11.690   7.899 129.732  0.00  0.00    -0.003 C 
ATOM      3  C   LIG A   1     -12.176   8.451 128.402  0.00  0.00    +0.008 C 
ATOM      4  C   LIG A   1     -12.816   7.752 130.748  0.00  0.00    +0.004 C 
ATOM      5  C   LIG A   1     -12.256   6.796 131.803  0.00  0.00    +0.009 C 
ATOM      6  C   LIG A   1     -11.102   6.015 131.136  0.00  0.00    +0.032 C 
ATOM      7  C   LIG A   1      -9.744   6.277 131.759  0.00  0.00    +0.005 C 
ATOM      8  C   LIG A   1      -8.737   6.786 131.028  0.00  0.00    +0.194 C 
ATOM      9  O   LIG A   1      -8.770   7.033 129.682  0.00  0.00    -0.461 OA
ATOM     10  C   LIG A   1      -9.790   6.304 128.984  0.00  0.00    +0.370 C 
ENDROOT
BRANCH   7  11
ATOM     11  C   LIG A   1      -9.523   5.932 133.209  0.00  0.00    +0.266 C 
BRANCH  11  12
ATOM     12  O   LIG A   1      -9.581   4.506 133.366  0.00  0.00    -0.460 OA
BRANCH  12  13
ATOM     13  C   LIG A   1      -8.513   3.941 133.991  0.00  0.00    +0.304 C 
ATOM     14  C   LIG A   1      -8.137   2.649 133.340  0.00  0.00    +0.136 C 
ATOM     15  O   LIG A   1      -7.950   4.379 134.979  0.00  0.00    -0.251 OA
ENDBRANCH  12  13
ENDBRANCH  11  12
ENDBRANCH   7  11
BRANCH  10  16
ATOM     16  O   LIG A   1      -9.489   4.895 128.947  0.00  0.00    -0.425 OA
BRANCH  16  17
ATOM     17  C   LIG A   1      -8.399   4.549 128.225  0.00  0.00    +0.307 C 
ATOM     18  C   LIG A   1      -7.427   3.806 129.088  0.00  0.00    +0.136 C 
ATOM     19  O   LIG A   1      -8.199   4.813 127.046  0.00  0.00    -0.251 OA
ENDBRANCH  16  17
ENDBRANCH  10  16
TORSDOF 5
ENDMDL
MODEL 7
REMARK VINA RESULT:      -5.8      2.956      5.516
REMARK  Name = NuBBE_450
REMARK  8 active torsions:
REMARK  status: ('A' for Active; 'I' for Inactive)
REMARK    1  A    between atoms: C_3  and  C_5
REMARK    2  A    between atoms: C_10  and  C_11
REMARK    3  A    between atoms: C_11  and  O_12
REMARK    4  A    between atoms: O_12  and  C_13
REMARK    5  A    between atoms: C_13  and  C_14
REMARK    6  A    between atoms: C_18  and  O_20
REMARK    7  A    between atoms: O_20  and  C_21
REMARK    8  A    between atoms: C_21  and  C_22
REMARK                            x       y       z     vdW  Elec       q    Type
REMARK                         _______ _______ _______ _____ _____    ______ ____
ROOT
ATOM      1  C   LIG A   1      -6.830   6.477 132.046  0.00  0.00    +0.081 C 
ATOM      2  C   LIG A   1      -7.041   5.489 133.204  0.00  0.00    -0.003 C 
ATOM      3  C   LIG A   1      -6.039   5.638 134.337  0.00  0.00    +0.008 C 
ATOM      4  C   LIG A   1      -8.463   5.824 133.637  0.00  0.00    +0.004 C 
ATOM      5  C   LIG A   1      -9.215   6.063 132.326  0.00  0.00    +0.009 C 
ATOM      6  C   LIG A   1      -8.154   6.392 131.252  0.00  0.00    +0.032 C 
ATOM      7  C   LIG A   1      -8.079   5.372 130.132  0.00  0.00    +0.005 C 
ATOM      8  C   LIG A   1      -6.939   4.703 129.886  0.00  0.00    +0.194 C 
ATOM      9  O   LIG A   1      -5.739   4.907 130.513  0.00  0.00    -0.461 OA
ATOM     10  C   LIG A   1      -5.628   6.188 131.148  0.00  0.00    +0.370 C 
ENDROOT
BRANCH   7  11
ATOM     11  C   LIG A   1      -9.294   5.134 129.273  0.00  0.00    +0.266 C 
BRANCH  11  12
ATOM     12  O   LIG A   1      -9.452   6.238 128.369  0.00  0.00    -0.460 OA
BRANCH  12  13
ATOM     13  C   LIG A   1     -10.650   6.879 128.429  0.00  0.00    +0.304 C 
ATOM     14  C   LIG A   1     -10.470   8.358 128.310  0.00  0.00    +0.136 C 
ATOM     15  O   LIG A   1     -11.734   6.350 128.605  0.00  0.00    -0.251 OA
ENDBRANCH  12  13
ENDBRANCH  11  12
ENDBRANCH   7  11
BRANCH  10  16
ATOM     16  O   LIG A   1      -5.557   7.248 130.173  0.00  0.00    -0.425 OA
BRANCH  16  17
ATOM     17  C   LIG A   1      -4.309   7.623 129.809  0.00  0.00    +0.307 C 
ATOM     18  C   LIG A   1      -3.480   7.893 131.027  0.00  0.00    +0.136 C 
ATOM     19  O   LIG A   1      -3.899   7.757 128.663  0.00  0.00    -0.251 OA
ENDBRANCH  16  17
ENDBRANCH  10  16
TORSDOF 5
ENDMDL
MODEL 8
REMARK VINA RESULT:      -5.6      6.149      9.425
REMARK  Name = NuBBE_450
REMARK  8 active torsions:
REMARK  status: ('A' for Active; 'I' for Inactive)
REMARK    1  A    between atoms: C_3  and  C_5
REMARK    2  A    between atoms: C_10  and  C_11
REMARK    3  A    between atoms: C_11  and  O_12
REMARK    4  A    between atoms: O_12  and  C_13
REMARK    5  A    between atoms: C_13  and  C_14
REMARK    6  A    between atoms: C_18  and  O_20
REMARK    7  A    between atoms: O_20  and  C_21
REMARK    8  A    between atoms: C_21  and  C_22
REMARK                            x       y       z     vdW  Elec       q    Type
REMARK                         _______ _______ _______ _____ _____    ______ ____
ROOT
ATOM      1  C   LIG A   1      -7.810  -2.373 126.682  0.00  0.00    +0.081 C 
ATOM      2  C   LIG A   1      -8.479  -2.716 128.023  0.00  0.00    -0.003 C 
ATOM      3  C   LIG A   1      -8.943  -4.159 128.133  0.00  0.00    +0.008 C 
ATOM      4  C   LIG A   1      -7.369  -2.384 129.013  0.00  0.00    +0.004 C 
ATOM      5  C   LIG A   1      -6.740  -1.102 128.464  0.00  0.00    +0.009 C 
ATOM      6  C   LIG A   1      -7.103  -1.028 126.965  0.00  0.00    +0.032 C 
ATOM      7  C   LIG A   1      -7.977   0.158 126.603  0.00  0.00    +0.005 C 
ATOM      8  C   LIG A   1      -9.189  -0.023 126.053  0.00  0.00    +0.194 C 
ATOM      9  O   LIG A   1      -9.728  -1.225 125.679  0.00  0.00    -0.461 OA
ATOM     10  C   LIG A   1      -8.754  -2.261 125.487  0.00  0.00    +0.370 C 
ENDROOT
BRANCH   7  11
ATOM     11  C   LIG A   1      -7.458   1.552 126.843  0.00  0.00    +0.266 C 
BRANCH  11  12
ATOM     12  O   LIG A   1      -8.470   2.500 126.471  0.00  0.00    -0.460 OA
BRANCH  12  13
ATOM     13  C   LIG A   1      -8.060   3.504 125.649  0.00  0.00    +0.304 C 
ATOM     14  C   LIG A   1      -6.659   3.273 125.184  0.00  0.00    +0.136 C 
ATOM     15  O   LIG A   1      -8.707   4.494 125.355  0.00  0.00    -0.251 OA
ENDBRANCH  12  13
ENDBRANCH  11  12
ENDBRANCH   7  11
BRANCH  10  16
ATOM     16  O   LIG A   1      -7.944  -2.005 124.323  0.00  0.00    -0.425 OA
BRANCH  16  17
ATOM     17  C   LIG A   1      -8.466  -2.419 123.145  0.00  0.00    +0.307 C 
ATOM     18  C   LIG A   1      -9.532  -3.442 123.390  0.00  0.00    +0.136 C 
ATOM     19  O   LIG A   1      -8.120  -2.048 122.030  0.00  0.00    -0.251 OA
ENDBRANCH  16  17
ENDBRANCH  10  16
TORSDOF 5
ENDMDL
MODEL 9
REMARK VINA RESULT:      -5.6      7.926      9.614
REMARK  Name = NuBBE_450
REMARK  8 active torsions:
REMARK  status: ('A' for Active; 'I' for Inactive)
REMARK    1  A    between atoms: C_3  and  C_5
REMARK    2  A    between atoms: C_10  and  C_11
REMARK    3  A    between atoms: C_11  and  O_12
REMARK    4  A    between atoms: O_12  and  C_13
REMARK    5  A    between atoms: C_13  and  C_14
REMARK    6  A    between atoms: C_18  and  O_20
REMARK    7  A    between atoms: O_20  and  C_21
REMARK    8  A    between atoms: C_21  and  C_22
REMARK                            x       y       z     vdW  Elec       q    Type
REMARK                         _______ _______ _______ _____ _____    ______ ____
ROOT
ATOM      1  C   LIG A   1      -7.981  -1.451 124.076  0.00  0.00    +0.081 C 
ATOM      2  C   LIG A   1      -8.475  -2.867 124.410  0.00  0.00    -0.003 C 
ATOM      3  C   LIG A   1      -9.553  -3.386 123.472  0.00  0.00    +0.008 C 
ATOM      4  C   LIG A   1      -7.185  -3.672 124.317  0.00  0.00    +0.004 C 
ATOM      5  C   LIG A   1      -6.125  -2.767 124.947  0.00  0.00    +0.009 C 
ATOM      6  C   LIG A   1      -6.672  -1.323 124.889  0.00  0.00    +0.032 C 
ATOM      7  C   LIG A   1      -6.911  -0.702 126.252  0.00  0.00    +0.005 C 
ATOM      8  C   LIG A   1      -8.136  -0.285 126.614  0.00  0.00    +0.194 C 
ATOM      9  O   LIG A   1      -9.247  -0.277 125.815  0.00  0.00    -0.461 OA
ATOM     10  C   LIG A   1      -8.952  -0.320 124.412  0.00  0.00    +0.370 C 
ENDROOT
BRANCH   7  11
ATOM     11  C   LIG A   1      -5.747  -0.531 127.194  0.00  0.00    +0.266 C 
BRANCH  11  12
ATOM     12  O   LIG A   1      -6.126  -0.996 128.498  0.00  0.00    -0.460 OA
BRANCH  12  13
ATOM     13  C   LIG A   1      -6.005  -2.336 128.701  0.00  0.00    +0.304 C 
ATOM     14  C   LIG A   1      -4.575  -2.761 128.620  0.00  0.00    +0.136 C 
ATOM     15  O   LIG A   1      -6.925  -3.116 128.878  0.00  0.00    -0.251 OA
ENDBRANCH  12  13
ENDBRANCH  11  12
ENDBRANCH   7  11
BRANCH  10  16
ATOM     16  O   LIG A   1      -8.347   0.911 123.969  0.00  0.00    -0.425 OA
BRANCH  16  17
ATOM     17  C   LIG A   1      -9.072   1.633 123.084  0.00  0.00    +0.307 C 
ATOM     18  C   LIG A   1     -10.217   0.814 122.571  0.00  0.00    +0.136 C 
ATOM     19  O   LIG A   1      -8.837   2.778 122.719  0.00  0.00    -0.251 OA
ENDBRANCH  16  17
ENDBRANCH  10  16
TORSDOF 5
ENDMDL
