MODEL 1
REMARK VINA RESULT:      -7.5      0.000      0.000
REMARK  Name = NuBBE_532
REMARK  9 active torsions:
REMARK  status: ('A' for Active; 'I' for Inactive)
REMARK    1  A    between atoms: C_1  and  O_2
REMARK    2  A    between atoms: O_2  and  C_3
REMARK    3  A    between atoms: C_4  and  O_5
REMARK    4  A    between atoms: O_5  and  C_6
REMARK    5  A    between atoms: C_9  and  O_10
REMARK    6  A    between atoms: C_11  and  O_12
REMARK    7  A    between atoms: O_12  and  C_13
REMARK    8  A    between atoms: N_20  and  C_21
REMARK    9  A    between atoms: N_20  and  C_22
REMARK                            x       y       z     vdW  Elec       q    Type
REMARK                         _______ _______ _______ _____ _____    ______ ____
ROOT
ATOM      1  C   LIG A   1      -7.335   3.055 122.388  0.00  0.00    +0.162 A 
ATOM      2  C   LIG A   1      -6.435   3.576 123.342  0.00  0.00    +0.170 A 
ATOM      3  C   LIG A   1      -6.264   2.929 124.597  0.00  0.00    +0.040 A 
ATOM      4  C   LIG A   1      -5.328   3.382 125.684  0.00  0.00    +0.035 A 
ATOM      5  C   LIG A   1      -5.116   4.710 126.113  0.00  0.00    +0.167 A 
ATOM      6  C   LIG A   1      -4.228   5.024 127.160  0.00  0.00    +0.162 A 
ATOM      7  C   LIG A   1      -3.488   4.008 127.769  0.00  0.00    +0.050 A 
ATOM      8  C   LIG A   1      -3.722   2.683 127.422  0.00  0.00    +0.008 A 
ATOM      9  C   LIG A   1      -4.675   2.374 126.447  0.00  0.00    -0.030 A 
ATOM     10  C   LIG A   1      -5.107   0.937 126.265  0.00  0.00    +0.095 C 
ATOM     11  C   LIG A   1      -6.966   1.706 124.815  0.00  0.00    +0.015 A 
ATOM     12  C   LIG A   1      -6.645   0.936 126.089  0.00  0.00    +0.102 C 
ATOM     13  N   LIG A   1      -7.252  -0.495 126.170  0.00  0.00    +0.245 N 
ATOM     14  C   LIG A   1      -6.443  -1.527 125.394  0.00  0.00    +0.193 C 
ATOM     15  C   LIG A   1      -7.329  -0.933 127.636  0.00  0.00    +0.193 C 
ATOM     16  C   LIG A   1      -8.695  -0.418 125.636  0.00  0.00    +0.138 C 
ATOM     17  C   LIG A   1      -8.732   0.004 124.170  0.00  0.00    +0.086 C 
ATOM     18  C   LIG A   1      -7.915   1.237 123.900  0.00  0.00    -0.030 A 
ATOM     19  C   LIG A   1      -8.086   1.914 122.690  0.00  0.00    +0.053 A 
ENDROOT
BRANCH   1  21
ATOM     20  C   LIG A   1      -8.857   3.712 120.685  0.00  0.00    +0.277 C 
ATOM     21  O   LIG A   1      -7.531   3.732 121.211  0.00  0.00    -0.491 OA
ENDBRANCH   1  21
BRANCH   2  22
ATOM     22  O   LIG A   1      -5.707   4.730 123.171  0.00  0.00    -0.491 OA
ATOM     23  C   LIG A   1      -4.622   4.706 122.246  0.00  0.00    +0.277 C 
ENDBRANCH   2  22
BRANCH   5  24
ATOM     24  O   LIG A   1      -5.852   5.752 125.597  0.00  0.00    -0.503 OA
ATOM     25  H   LIG A   1      -5.603   5.861 124.663  0.00  0.00    +0.292 HD
ENDBRANCH   5  24
BRANCH   6  26
ATOM     26  O   LIG A   1      -4.111   6.347 127.513  0.00  0.00    -0.491 OA
ATOM     27  C   LIG A   1      -2.912   6.713 128.186  0.00  0.00    +0.277 C 
ENDBRANCH   6  26
TORSDOF 4
ENDMDL
MODEL 2
REMARK VINA RESULT:      -7.4      1.630      5.221
REMARK  Name = NuBBE_532
REMARK  9 active torsions:
REMARK  status: ('A' for Active; 'I' for Inactive)
REMARK    1  A    between atoms: C_1  and  O_2
REMARK    2  A    between atoms: O_2  and  C_3
REMARK    3  A    between atoms: C_4  and  O_5
REMARK    4  A    between atoms: O_5  and  C_6
REMARK    5  A    between atoms: C_9  and  O_10
REMARK    6  A    between atoms: C_11  and  O_12
REMARK    7  A    between atoms: O_12  and  C_13
REMARK    8  A    between atoms: N_20  and  C_21
REMARK    9  A    between atoms: N_20  and  C_22
REMARK                            x       y       z     vdW  Elec       q    Type
REMARK                         _______ _______ _______ _____ _____    ______ ____
ROOT
ATOM      1  C   LIG A   1      -4.771   2.472 126.259  0.00  0.00    +0.162 A 
ATOM      2  C   LIG A   1      -5.410   3.010 125.121  0.00  0.00    +0.170 A 
ATOM      3  C   LIG A   1      -6.286   2.205 124.341  0.00  0.00    +0.040 A 
ATOM      4  C   LIG A   1      -7.031   2.670 123.120  0.00  0.00    +0.035 A 
ATOM      5  C   LIG A   1      -6.522   3.477 122.080  0.00  0.00    +0.167 A 
ATOM      6  C   LIG A   1      -7.302   3.839 120.965  0.00  0.00    +0.162 A 
ATOM      7  C   LIG A   1      -8.638   3.437 120.895  0.00  0.00    +0.050 A 
ATOM      8  C   LIG A   1      -9.153   2.584 121.864  0.00  0.00    +0.008 A 
ATOM      9  C   LIG A   1      -8.342   2.155 122.917  0.00  0.00    -0.030 A 
ATOM     10  C   LIG A   1      -8.823   1.034 123.810  0.00  0.00    +0.095 C 
ATOM     11  C   LIG A   1      -6.553   0.880 124.797  0.00  0.00    +0.015 A 
ATOM     12  C   LIG A   1      -7.621   0.089 124.053  0.00  0.00    +0.102 C 
ATOM     13  N   LIG A   1      -8.043  -1.250 124.725  0.00  0.00    +0.245 N 
ATOM     14  C   LIG A   1      -9.041  -1.056 125.861  0.00  0.00    +0.193 C 
ATOM     15  C   LIG A   1      -8.670  -2.172 123.674  0.00  0.00    +0.193 C 
ATOM     16  C   LIG A   1      -6.762  -1.938 125.234  0.00  0.00    +0.138 C 
ATOM     17  C   LIG A   1      -6.060  -1.102 126.301  0.00  0.00    +0.086 C 
ATOM     18  C   LIG A   1      -5.858   0.326 125.878  0.00  0.00    -0.030 A 
ATOM     19  C   LIG A   1      -4.976   1.131 126.604  0.00  0.00    +0.053 A 
ENDROOT
BRANCH   1  21
ATOM     20  C   LIG A   1      -2.504   3.095 126.611  0.00  0.00    +0.277 C 
ATOM     21  O   LIG A   1      -3.880   3.246 126.957  0.00  0.00    -0.491 OA
ENDBRANCH   1  21
BRANCH   2  22
ATOM     22  O   LIG A   1      -5.217   4.290 124.658  0.00  0.00    -0.491 OA
ATOM     23  C   LIG A   1      -6.012   5.332 125.220  0.00  0.00    +0.277 C 
ENDBRANCH   2  22
BRANCH   5  24
ATOM     24  O   LIG A   1      -5.201   3.858 122.056  0.00  0.00    -0.503 OA
ATOM     25  H   LIG A   1      -4.720   3.238 121.479  0.00  0.00    +0.292 HD
ENDBRANCH   5  24
BRANCH   6  26
ATOM     26  O   LIG A   1      -6.703   4.610 119.999  0.00  0.00    -0.491 OA
ATOM     27  C   LIG A   1      -7.311   4.588 118.712  0.00  0.00    +0.277 C 
ENDBRANCH   6  26
TORSDOF 4
ENDMDL
MODEL 3
REMARK VINA RESULT:      -7.0      2.381      5.600
REMARK  Name = NuBBE_532
REMARK  9 active torsions:
REMARK  status: ('A' for Active; 'I' for Inactive)
REMARK    1  A    between atoms: C_1  and  O_2
REMARK    2  A    between atoms: O_2  and  C_3
REMARK    3  A    between atoms: C_4  and  O_5
REMARK    4  A    between atoms: O_5  and  C_6
REMARK    5  A    between atoms: C_9  and  O_10
REMARK    6  A    between atoms: C_11  and  O_12
REMARK    7  A    between atoms: O_12  and  C_13
REMARK    8  A    between atoms: N_20  and  C_21
REMARK    9  A    between atoms: N_20  and  C_22
REMARK                            x       y       z     vdW  Elec       q    Type
REMARK                         _______ _______ _______ _____ _____    ______ ____
ROOT
ATOM      1  C   LIG A   1      -5.970   3.720 123.512  0.00  0.00    +0.162 A 
ATOM      2  C   LIG A   1      -6.635   2.493 123.725  0.00  0.00    +0.170 A 
ATOM      3  C   LIG A   1      -6.416   1.755 124.920  0.00  0.00    +0.040 A 
ATOM      4  C   LIG A   1      -7.076   0.447 125.262  0.00  0.00    +0.035 A 
ATOM      5  C   LIG A   1      -7.288  -0.642 124.390  0.00  0.00    +0.167 A 
ATOM      6  C   LIG A   1      -7.899  -1.836 124.821  0.00  0.00    +0.162 A 
ATOM      7  C   LIG A   1      -8.362  -1.942 126.134  0.00  0.00    +0.050 A 
ATOM      8  C   LIG A   1      -8.108  -0.919 127.039  0.00  0.00    +0.008 A 
ATOM      9  C   LIG A   1      -7.417   0.222 126.626  0.00  0.00    -0.030 A 
ATOM     10  C   LIG A   1      -6.920   1.202 127.664  0.00  0.00    +0.095 C 
ATOM     11  C   LIG A   1      -5.575   2.336 125.916  0.00  0.00    +0.015 A 
ATOM     12  C   LIG A   1      -5.486   1.620 127.257  0.00  0.00    +0.102 C 
ATOM     13  N   LIG A   1      -4.753   2.407 128.382  0.00  0.00    +0.245 N 
ATOM     14  C   LIG A   1      -5.640   3.452 129.049  0.00  0.00    +0.193 C 
ATOM     15  C   LIG A   1      -4.261   1.428 129.451  0.00  0.00    +0.193 C 
ATOM     16  C   LIG A   1      -3.510   3.066 127.754  0.00  0.00    +0.138 C 
ATOM     17  C   LIG A   1      -3.892   4.075 126.674  0.00  0.00    +0.086 C 
ATOM     18  C   LIG A   1      -4.858   3.511 125.668  0.00  0.00    -0.030 A 
ATOM     19  C   LIG A   1      -5.067   4.197 124.469  0.00  0.00    +0.053 A 
ENDROOT
BRANCH   1  21
ATOM     20  C   LIG A   1      -5.043   4.360 121.419  0.00  0.00    +0.277 C 
ATOM     21  O   LIG A   1      -6.145   4.381 122.324  0.00  0.00    -0.491 OA
ENDBRANCH   1  21
BRANCH   2  22
ATOM     22  O   LIG A   1      -7.483   1.905 122.816  0.00  0.00    -0.491 OA
ATOM     23  C   LIG A   1      -8.817   2.399 122.728  0.00  0.00    +0.277 C 
ENDBRANCH   2  22
BRANCH   5  24
ATOM     24  O   LIG A   1      -6.806  -0.628 123.102  0.00  0.00    -0.503 OA
ATOM     25  H   LIG A   1      -6.494   0.274 122.909  0.00  0.00    +0.292 HD
ENDBRANCH   5  24
BRANCH   6  26
ATOM     26  O   LIG A   1      -8.038  -2.842 123.896  0.00  0.00    -0.491 OA
ATOM     27  C   LIG A   1      -9.365  -3.112 123.457  0.00  0.00    +0.277 C 
ENDBRANCH   6  26
TORSDOF 4
ENDMDL
MODEL 4
REMARK VINA RESULT:      -6.9      2.800      4.578
REMARK  Name = NuBBE_532
REMARK  9 active torsions:
REMARK  status: ('A' for Active; 'I' for Inactive)
REMARK    1  A    between atoms: C_1  and  O_2
REMARK    2  A    between atoms: O_2  and  C_3
REMARK    3  A    between atoms: C_4  and  O_5
REMARK    4  A    between atoms: O_5  and  C_6
REMARK    5  A    between atoms: C_9  and  O_10
REMARK    6  A    between atoms: C_11  and  O_12
REMARK    7  A    between atoms: O_12  and  C_13
REMARK    8  A    between atoms: N_20  and  C_21
REMARK    9  A    between atoms: N_20  and  C_22
REMARK                            x       y       z     vdW  Elec       q    Type
REMARK                         _______ _______ _______ _____ _____    ______ ____
ROOT
ATOM      1  C   LIG A   1      -9.016  -1.910 125.314  0.00  0.00    +0.162 A 
ATOM      2  C   LIG A   1      -8.346  -0.674 125.435  0.00  0.00    +0.170 A 
ATOM      3  C   LIG A   1      -7.660  -0.343 126.636  0.00  0.00    +0.040 A 
ATOM      4  C   LIG A   1      -6.902   0.934 126.876  0.00  0.00    +0.035 A 
ATOM      5  C   LIG A   1      -7.311   2.236 126.513  0.00  0.00    +0.167 A 
ATOM      6  C   LIG A   1      -6.531   3.372 126.806  0.00  0.00    +0.162 A 
ATOM      7  C   LIG A   1      -5.290   3.218 127.430  0.00  0.00    +0.050 A 
ATOM      8  C   LIG A   1      -4.888   1.961 127.864  0.00  0.00    +0.008 A 
ATOM      9  C   LIG A   1      -5.712   0.853 127.652  0.00  0.00    -0.030 A 
ATOM     10  C   LIG A   1      -5.394  -0.449 128.351  0.00  0.00    +0.095 C 
ATOM     11  C   LIG A   1      -7.608  -1.330 127.665  0.00  0.00    +0.015 A 
ATOM     12  C   LIG A   1      -6.730  -1.032 128.873  0.00  0.00    +0.102 C 
ATOM     13  N   LIG A   1      -6.517  -2.225 129.850  0.00  0.00    +0.245 N 
ATOM     14  C   LIG A   1      -5.450  -3.202 129.370  0.00  0.00    +0.193 C 
ATOM     15  C   LIG A   1      -6.110  -1.691 131.226  0.00  0.00    +0.193 C 
ATOM     16  C   LIG A   1      -7.874  -2.936 130.015  0.00  0.00    +0.138 C 
ATOM     17  C   LIG A   1      -8.370  -3.519 128.694  0.00  0.00    +0.086 C 
ATOM     18  C   LIG A   1      -8.339  -2.520 127.572  0.00  0.00    -0.030 A 
ATOM     19  C   LIG A   1      -9.032  -2.802 126.392  0.00  0.00    +0.053 A 
ENDROOT
BRANCH   1  21
ATOM     20  C   LIG A   1      -9.162  -3.154 123.293  0.00  0.00    +0.277 C 
ATOM     21  O   LIG A   1      -9.725  -2.180 124.171  0.00  0.00    -0.491 OA
ENDBRANCH   1  21
BRANCH   2  22
ATOM     22  O   LIG A   1      -8.333   0.298 124.463  0.00  0.00    -0.491 OA
ATOM     23  C   LIG A   1      -7.380   0.178 123.408  0.00  0.00    +0.277 C 
ENDBRANCH   2  22
BRANCH   5  24
ATOM     24  O   LIG A   1      -8.545   2.465 125.951  0.00  0.00    -0.503 OA
ATOM     25  H   LIG A   1      -8.407   2.731 125.025  0.00  0.00    +0.292 HD
ENDBRANCH   5  24
BRANCH   6  26
ATOM     26  O   LIG A   1      -7.031   4.594 126.428  0.00  0.00    -0.491 OA
ATOM     27  C   LIG A   1      -6.457   5.172 125.261  0.00  0.00    +0.277 C 
ENDBRANCH   6  26
TORSDOF 4
ENDMDL
MODEL 5
REMARK VINA RESULT:      -6.8      3.183      5.653
REMARK  Name = NuBBE_532
REMARK  9 active torsions:
REMARK  status: ('A' for Active; 'I' for Inactive)
REMARK    1  A    between atoms: C_1  and  O_2
REMARK    2  A    between atoms: O_2  and  C_3
REMARK    3  A    between atoms: C_4  and  O_5
REMARK    4  A    between atoms: O_5  and  C_6
REMARK    5  A    between atoms: C_9  and  O_10
REMARK    6  A    between atoms: C_11  and  O_12
REMARK    7  A    between atoms: O_12  and  C_13
REMARK    8  A    between atoms: N_20  and  C_21
REMARK    9  A    between atoms: N_20  and  C_22
REMARK                            x       y       z     vdW  Elec       q    Type
REMARK                         _______ _______ _______ _____ _____    ______ ____
ROOT
ATOM      1  C   LIG A   1      -7.815  -1.941 128.938  0.00  0.00    +0.162 A 
ATOM      2  C   LIG A   1      -7.124  -0.747 128.640  0.00  0.00    +0.170 A 
ATOM      3  C   LIG A   1      -6.723  -0.463 127.305  0.00  0.00    +0.040 A 
ATOM      4  C   LIG A   1      -5.996   0.779 126.867  0.00  0.00    +0.035 A 
ATOM      5  C   LIG A   1      -4.925   1.409 127.536  0.00  0.00    +0.167 A 
ATOM      6  C   LIG A   1      -4.299   2.561 127.024  0.00  0.00    +0.162 A 
ATOM      7  C   LIG A   1      -4.772   3.141 125.845  0.00  0.00    +0.050 A 
ATOM      8  C   LIG A   1      -5.777   2.510 125.122  0.00  0.00    +0.008 A 
ATOM      9  C   LIG A   1      -6.328   1.315 125.591  0.00  0.00    -0.030 A 
ATOM     10  C   LIG A   1      -7.224   0.507 124.679  0.00  0.00    +0.095 C 
ATOM     11  C   LIG A   1      -7.113  -1.380 126.285  0.00  0.00    +0.015 A 
ATOM     12  C   LIG A   1      -6.828  -0.980 124.843  0.00  0.00    +0.102 C 
ATOM     13  N   LIG A   1      -7.478  -1.891 123.761  0.00  0.00    +0.245 N 
ATOM     14  C   LIG A   1      -8.946  -1.566 123.515  0.00  0.00    +0.193 C 
ATOM     15  C   LIG A   1      -6.714  -1.741 122.442  0.00  0.00    +0.193 C 
ATOM     16  C   LIG A   1      -7.313  -3.352 124.224  0.00  0.00    +0.138 C 
ATOM     17  C   LIG A   1      -8.050  -3.614 125.535  0.00  0.00    +0.086 C 
ATOM     18  C   LIG A   1      -7.727  -2.599 126.595  0.00  0.00    -0.030 A 
ATOM     19  C   LIG A   1      -8.078  -2.866 127.921  0.00  0.00    +0.053 A 
ENDROOT
BRANCH   1  21
ATOM     20  C   LIG A   1      -7.200  -3.028 130.960  0.00  0.00    +0.277 C 
ATOM     21  O   LIG A   1      -8.134  -2.225 130.241  0.00  0.00    -0.491 OA
ENDBRANCH   1  21
BRANCH   2  22
ATOM     22  O   LIG A   1      -6.755   0.188 129.578  0.00  0.00    -0.491 OA
ATOM     23  C   LIG A   1      -7.745   1.108 130.033  0.00  0.00    +0.277 C 
ENDBRANCH   2  22
BRANCH   5  24
ATOM     24  O   LIG A   1      -4.372   0.859 128.669  0.00  0.00    -0.503 OA
ATOM     25  H   LIG A   1      -4.801   1.268 129.441  0.00  0.00    +0.292 HD
ENDBRANCH   5  24
BRANCH   6  26
ATOM     26  O   LIG A   1      -3.251   3.082 127.745  0.00  0.00    -0.491 OA
ATOM     27  C   LIG A   1      -2.018   3.224 127.047  0.00  0.00    +0.277 C 
ENDBRANCH   6  26
TORSDOF 4
ENDMDL
MODEL 6
REMARK VINA RESULT:      -6.7      4.135      7.657
REMARK  Name = NuBBE_532
REMARK  9 active torsions:
REMARK  status: ('A' for Active; 'I' for Inactive)
REMARK    1  A    between atoms: C_1  and  O_2
REMARK    2  A    between atoms: O_2  and  C_3
REMARK    3  A    between atoms: C_4  and  O_5
REMARK    4  A    between atoms: O_5  and  C_6
REMARK    5  A    between atoms: C_9  and  O_10
REMARK    6  A    between atoms: C_11  and  O_12
REMARK    7  A    between atoms: O_12  and  C_13
REMARK    8  A    between atoms: N_20  and  C_21
REMARK    9  A    between atoms: N_20  and  C_22
REMARK                            x       y       z     vdW  Elec       q    Type
REMARK                         _______ _______ _______ _____ _____    ______ ____
ROOT
ATOM      1  C   LIG A   1      -5.127   1.006 129.236  0.00  0.00    +0.162 A 
ATOM      2  C   LIG A   1      -6.040   0.363 128.372  0.00  0.00    +0.170 A 
ATOM      3  C   LIG A   1      -6.283  -1.033 128.494  0.00  0.00    +0.040 A 
ATOM      4  C   LIG A   1      -7.240  -1.821 127.642  0.00  0.00    +0.035 A 
ATOM      5  C   LIG A   1      -7.413  -1.709 126.246  0.00  0.00    +0.167 A 
ATOM      6  C   LIG A   1      -8.325  -2.516 125.540  0.00  0.00    +0.162 A 
ATOM      7  C   LIG A   1      -9.128  -3.425 126.233  0.00  0.00    +0.050 A 
ATOM      8  C   LIG A   1      -8.936  -3.613 127.596  0.00  0.00    +0.008 A 
ATOM      9  C   LIG A   1      -7.961  -2.874 128.272  0.00  0.00    -0.030 A 
ATOM     10  C   LIG A   1      -7.582  -3.266 129.682  0.00  0.00    +0.095 C 
ATOM     11  C   LIG A   1      -5.640  -1.728 129.561  0.00  0.00    +0.015 A 
ATOM     12  C   LIG A   1      -6.040  -3.180 129.786  0.00  0.00    +0.102 C 
ATOM     13  N   LIG A   1      -5.495  -3.823 131.095  0.00  0.00    +0.245 N 
ATOM     14  C   LIG A   1      -6.316  -3.453 132.324  0.00  0.00    +0.193 C 
ATOM     15  C   LIG A   1      -5.490  -5.348 130.950  0.00  0.00    +0.193 C 
ATOM     16  C   LIG A   1      -4.032  -3.372 131.260  0.00  0.00    +0.138 C 
ATOM     17  C   LIG A   1      -3.923  -1.858 131.423  0.00  0.00    +0.086 C 
ATOM     18  C   LIG A   1      -4.678  -1.105 130.363  0.00  0.00    -0.030 A 
ATOM     19  C   LIG A   1      -4.435   0.261 130.197  0.00  0.00    +0.053 A 
ENDROOT
BRANCH   1  21
ATOM     20  C   LIG A   1      -3.692   2.654 128.302  0.00  0.00    +0.277 C 
ATOM     21  O   LIG A   1      -4.860   2.339 129.058  0.00  0.00    -0.491 OA
ENDBRANCH   1  21
BRANCH   2  22
ATOM     22  O   LIG A   1      -6.713   0.992 127.352  0.00  0.00    -0.491 OA
ATOM     23  C   LIG A   1      -7.892   1.725 127.678  0.00  0.00    +0.277 C 
ENDBRANCH   2  22
BRANCH   5  24
ATOM     24  O   LIG A   1      -6.616  -0.878 125.494  0.00  0.00    -0.503 OA
ATOM     25  H   LIG A   1      -5.706  -1.224 125.528  0.00  0.00    +0.292 HD
ENDBRANCH   5  24
BRANCH   6  26
ATOM     26  O   LIG A   1      -8.400  -2.340 124.179  0.00  0.00    -0.491 OA
ATOM     27  C   LIG A   1      -9.342  -3.157 123.492  0.00  0.00    +0.277 C 
ENDBRANCH   6  26
TORSDOF 4
ENDMDL
MODEL 7
REMARK VINA RESULT:      -6.5      2.620      3.863
REMARK  Name = NuBBE_532
REMARK  9 active torsions:
REMARK  status: ('A' for Active; 'I' for Inactive)
REMARK    1  A    between atoms: C_1  and  O_2
REMARK    2  A    between atoms: O_2  and  C_3
REMARK    3  A    between atoms: C_4  and  O_5
REMARK    4  A    between atoms: O_5  and  C_6
REMARK    5  A    between atoms: C_9  and  O_10
REMARK    6  A    between atoms: C_11  and  O_12
REMARK    7  A    between atoms: O_12  and  C_13
REMARK    8  A    between atoms: N_20  and  C_21
REMARK    9  A    between atoms: N_20  and  C_22
REMARK                            x       y       z     vdW  Elec       q    Type
REMARK                         _______ _______ _______ _____ _____    ______ ____
ROOT
ATOM      1  C   LIG A   1      -6.627   2.537 123.956  0.00  0.00    +0.162 A 
ATOM      2  C   LIG A   1      -6.856   2.597 125.348  0.00  0.00    +0.170 A 
ATOM      3  C   LIG A   1      -7.497   1.519 126.018  0.00  0.00    +0.040 A 
ATOM      4  C   LIG A   1      -7.781   1.464 127.494  0.00  0.00    +0.035 A 
ATOM      5  C   LIG A   1      -8.271   2.517 128.296  0.00  0.00    +0.167 A 
ATOM      6  C   LIG A   1      -8.524   2.352 129.672  0.00  0.00    +0.162 A 
ATOM      7  C   LIG A   1      -8.241   1.130 130.287  0.00  0.00    +0.050 A 
ATOM      8  C   LIG A   1      -7.826   0.052 129.517  0.00  0.00    +0.008 A 
ATOM      9  C   LIG A   1      -7.667   0.199 128.136  0.00  0.00    -0.030 A 
ATOM     10  C   LIG A   1      -7.472  -1.030 127.279  0.00  0.00    +0.095 C 
ATOM     11  C   LIG A   1      -7.817   0.358 125.253  0.00  0.00    +0.015 A 
ATOM     12  C   LIG A   1      -8.344  -0.853 126.012  0.00  0.00    +0.102 C 
ATOM     13  N   LIG A   1      -8.454  -2.162 125.178  0.00  0.00    +0.245 N 
ATOM     14  C   LIG A   1      -7.122  -2.888 125.033  0.00  0.00    +0.193 C 
ATOM     15  C   LIG A   1      -9.457  -3.108 125.845  0.00  0.00    +0.193 C 
ATOM     16  C   LIG A   1      -9.025  -1.786 123.797  0.00  0.00    +0.138 C 
ATOM     17  C   LIG A   1      -8.090  -0.847 123.038  0.00  0.00    +0.086 C 
ATOM     18  C   LIG A   1      -7.661   0.335 123.863  0.00  0.00    -0.030 A 
ATOM     19  C   LIG A   1      -7.060   1.424 123.227  0.00  0.00    +0.053 A 
ENDROOT
BRANCH   1  21
ATOM     20  C   LIG A   1      -5.914   3.507 121.907  0.00  0.00    +0.277 C 
ATOM     21  O   LIG A   1      -6.068   3.616 123.321  0.00  0.00    -0.491 OA
ENDBRANCH   1  21
BRANCH   2  22
ATOM     22  O   LIG A   1      -6.535   3.675 126.139  0.00  0.00    -0.491 OA
ATOM     23  C   LIG A   1      -5.179   3.820 126.556  0.00  0.00    +0.277 C 
ENDBRANCH   2  22
BRANCH   5  24
ATOM     24  O   LIG A   1      -8.626   3.727 127.746  0.00  0.00    -0.503 OA
ATOM     25  H   LIG A   1      -7.936   3.979 127.107  0.00  0.00    +0.292 HD
ENDBRANCH   5  24
BRANCH   6  26
ATOM     26  O   LIG A   1      -9.020   3.436 130.356  0.00  0.00    -0.491 OA
ATOM     27  C   LIG A   1     -10.344   3.305 130.864  0.00  0.00    +0.277 C 
ENDBRANCH   6  26
TORSDOF 4
ENDMDL
MODEL 8
REMARK VINA RESULT:      -6.3      3.596      5.354
REMARK  Name = NuBBE_532
REMARK  9 active torsions:
REMARK  status: ('A' for Active; 'I' for Inactive)
REMARK    1  A    between atoms: C_1  and  O_2
REMARK    2  A    between atoms: O_2  and  C_3
REMARK    3  A    between atoms: C_4  and  O_5
REMARK    4  A    between atoms: O_5  and  C_6
REMARK    5  A    between atoms: C_9  and  O_10
REMARK    6  A    between atoms: C_11  and  O_12
REMARK    7  A    between atoms: O_12  and  C_13
REMARK    8  A    between atoms: N_20  and  C_21
REMARK    9  A    between atoms: N_20  and  C_22
REMARK                            x       y       z     vdW  Elec       q    Type
REMARK                         _______ _______ _______ _____ _____    ______ ____
ROOT
ATOM      1  C   LIG A   1      -5.246   2.228 126.864  0.00  0.00    +0.162 A 
ATOM      2  C   LIG A   1      -6.170   2.555 127.879  0.00  0.00    +0.170 A 
ATOM      3  C   LIG A   1      -7.015   1.553 128.431  0.00  0.00    +0.040 A 
ATOM      4  C   LIG A   1      -8.026   1.778 129.523  0.00  0.00    +0.035 A 
ATOM      5  C   LIG A   1      -8.911   2.872 129.637  0.00  0.00    +0.167 A 
ATOM      6  C   LIG A   1      -9.838   2.975 130.693  0.00  0.00    +0.162 A 
ATOM      7  C   LIG A   1      -9.860   1.999 131.692  0.00  0.00    +0.050 A 
ATOM      8  C   LIG A   1      -9.054   0.874 131.575  0.00  0.00    +0.008 A 
ATOM      9  C   LIG A   1      -8.205   0.736 130.475  0.00  0.00    -0.030 A 
ATOM     10  C   LIG A   1      -7.533  -0.595 130.222  0.00  0.00    +0.095 C 
ATOM     11  C   LIG A   1      -6.834   0.211 127.983  0.00  0.00    +0.015 A 
ATOM     12  C   LIG A   1      -7.622  -0.876 128.703  0.00  0.00    +0.102 C 
ATOM     13  N   LIG A   1      -7.219  -2.336 128.343  0.00  0.00    +0.245 N 
ATOM     14  C   LIG A   1      -5.975  -2.808 129.085  0.00  0.00    +0.193 C 
ATOM     15  C   LIG A   1      -8.377  -3.281 128.676  0.00  0.00    +0.193 C 
ATOM     16  C   LIG A   1      -7.001  -2.396 126.819  0.00  0.00    +0.138 C 
ATOM     17  C   LIG A   1      -5.854  -1.490 126.378  0.00  0.00    +0.086 C 
ATOM     18  C   LIG A   1      -5.974  -0.094 126.923  0.00  0.00    -0.030 A 
ATOM     19  C   LIG A   1      -5.181   0.918 126.376  0.00  0.00    +0.053 A 
ENDROOT
BRANCH   1  21
ATOM     20  C   LIG A   1      -5.049   3.879 125.165  0.00  0.00    +0.277 C 
ATOM     21  O   LIG A   1      -4.488   3.223 126.301  0.00  0.00    -0.491 OA
ENDBRANCH   1  21
BRANCH   2  22
ATOM     22  O   LIG A   1      -6.361   3.824 128.373  0.00  0.00    -0.491 OA
ATOM     23  C   LIG A   1      -5.431   4.314 129.336  0.00  0.00    +0.277 C 
ENDBRANCH   2  22
BRANCH   5  24
ATOM     24  O   LIG A   1      -8.983   3.836 128.659  0.00  0.00    -0.503 OA
ATOM     25  H   LIG A   1      -8.552   3.484 127.860  0.00  0.00    +0.292 HD
ENDBRANCH   5  24
BRANCH   6  26
ATOM     26  O   LIG A   1     -10.668   4.069 130.698  0.00  0.00    -0.491 OA
ATOM     27  C   LIG A   1     -10.271   5.153 131.532  0.00  0.00    +0.277 C 
ENDBRANCH   6  26
TORSDOF 4
ENDMDL
MODEL 9
REMARK VINA RESULT:      -6.3      6.977      9.927
REMARK  Name = NuBBE_532
REMARK  9 active torsions:
REMARK  status: ('A' for Active; 'I' for Inactive)
REMARK    1  A    between atoms: C_1  and  O_2
REMARK    2  A    between atoms: O_2  and  C_3
REMARK    3  A    between atoms: C_4  and  O_5
REMARK    4  A    between atoms: O_5  and  C_6
REMARK    5  A    between atoms: C_9  and  O_10
REMARK    6  A    between atoms: C_11  and  O_12
REMARK    7  A    between atoms: O_12  and  C_13
REMARK    8  A    between atoms: N_20  and  C_21
REMARK    9  A    between atoms: N_20  and  C_22
REMARK                            x       y       z     vdW  Elec       q    Type
REMARK                         _______ _______ _______ _____ _____    ______ ____
ROOT
ATOM      1  C   LIG A   1      -6.698   5.491 135.872  0.00  0.00    +0.162 A 
ATOM      2  C   LIG A   1      -5.622   5.915 135.063  0.00  0.00    +0.170 A 
ATOM      3  C   LIG A   1      -5.723   5.857 133.646  0.00  0.00    +0.040 A 
ATOM      4  C   LIG A   1      -4.652   6.292 132.684  0.00  0.00    +0.035 A 
ATOM      5  C   LIG A   1      -3.267   6.042 132.796  0.00  0.00    +0.167 A 
ATOM      6  C   LIG A   1      -2.348   6.478 131.822  0.00  0.00    +0.162 A 
ATOM      7  C   LIG A   1      -2.797   7.225 130.731  0.00  0.00    +0.050 A 
ATOM      8  C   LIG A   1      -4.159   7.430 130.550  0.00  0.00    +0.008 A 
ATOM      9  C   LIG A   1      -5.071   6.912 131.473  0.00  0.00    -0.030 A 
ATOM     10  C   LIG A   1      -6.545   6.912 131.136  0.00  0.00    +0.095 C 
ATOM     11  C   LIG A   1      -6.966   5.438 133.085  0.00  0.00    +0.015 A 
ATOM     12  C   LIG A   1      -7.119   5.543 131.573  0.00  0.00    +0.102 C 
ATOM     13  N   LIG A   1      -8.559   5.302 131.033  0.00  0.00    +0.245 N 
ATOM     14  C   LIG A   1      -9.455   6.527 131.165  0.00  0.00    +0.193 C 
ATOM     15  C   LIG A   1      -8.489   4.902 129.557  0.00  0.00    +0.193 C 
ATOM     16  C   LIG A   1      -9.150   4.107 131.806  0.00  0.00    +0.138 C 
ATOM     17  C   LIG A   1      -9.273   4.406 133.298  0.00  0.00    +0.086 C 
ATOM     18  C   LIG A   1      -7.999   4.944 133.889  0.00  0.00    -0.030 A 
ATOM     19  C   LIG A   1      -7.858   4.982 135.278  0.00  0.00    +0.053 A 
ENDROOT
BRANCH   1  21
ATOM     20  C   LIG A   1      -7.402   6.386 137.959  0.00  0.00    +0.277 C 
ATOM     21  O   LIG A   1      -6.554   5.495 137.236  0.00  0.00    -0.491 OA
ENDBRANCH   1  21
BRANCH   2  22
ATOM     22  O   LIG A   1      -4.416   6.362 135.550  0.00  0.00    -0.491 OA
ATOM     23  C   LIG A   1      -4.373   7.655 136.148  0.00  0.00    +0.277 C 
ENDBRANCH   2  22
BRANCH   5  24
ATOM     24  O   LIG A   1      -2.764   5.263 133.813  0.00  0.00    -0.503 OA
ATOM     25  H   LIG A   1      -1.845   5.034 133.588  0.00  0.00    +0.292 HD
ENDBRANCH   5  24
BRANCH   6  26
ATOM     26  O   LIG A   1      -1.025   6.163 132.018  0.00  0.00    -0.491 OA
ATOM     27  C   LIG A   1      -0.240   7.141 132.692  0.00  0.00    +0.277 C 
ENDBRANCH   6  26
TORSDOF 4
ENDMDL
