MODEL 1
REMARK VINA RESULT:      -8.4      0.000      0.000
REMARK  Name = NuBBE_1051
REMARK  13 active torsions:
REMARK  status: ('A' for Active; 'I' for Inactive)
REMARK    1  A    between atoms: C_1  and  C_2
REMARK    2  A    between atoms: C_8  and  C_9
REMARK    3  A    between atoms: C_8  and  C_10
REMARK    4  A    between atoms: C_14  and  C_15
REMARK    5  A    between atoms: C_20  and  C_21
REMARK    6  A    between atoms: C_22  and  C_24
REMARK    7  A    between atoms: C_24  and  C_26
REMARK    8  A    between atoms: C_24  and  C_27
REMARK    9  A    between atoms: C_27  and  O_28
REMARK   10  A    between atoms: C_27  and  C_29
REMARK   11  A    between atoms: C_29  and  C_30
REMARK   12  A    between atoms: C_31  and  C_32
REMARK   13  A    between atoms: C_31  and  C_33
REMARK                            x       y       z     vdW  Elec       q    Type
REMARK                         _______ _______ _______ _____ _____    ______ ____
ROOT
ATOM      1  C   LIG A   1      -8.701  -1.866 126.683  0.00  0.00    +0.016 C 
ATOM      2  C   LIG A   1      -7.661  -0.723 126.600  0.00  0.00    -0.005 C 
ATOM      3  C   LIG A   1      -6.785  -0.788 127.877  0.00  0.00    -0.063 C 
ATOM      4  C   LIG A   1      -5.515  -1.225 127.913  0.00  0.00    -0.026 C 
ATOM      5  C   LIG A   1      -4.730  -1.346 129.171  0.00  0.00    +0.032 C 
ATOM      6  C   LIG A   1      -5.596  -1.693 130.394  0.00  0.00    +0.012 C 
ATOM      7  C   LIG A   1      -6.003  -3.202 130.565  0.00  0.00    +0.027 C 
ATOM      8  C   LIG A   1      -7.088  -3.749 129.627  0.00  0.00    +0.019 C 
ATOM      9  C   LIG A   1      -4.762  -4.109 130.407  0.00  0.00    +0.019 C 
ATOM     10  C   LIG A   1      -6.536  -3.337 132.004  0.00  0.00    +0.139 C 
ATOM     11  C   LIG A   1      -7.264  -2.146 132.605  0.00  0.00    +0.075 C 
ATOM     12  C   LIG A   1      -7.846  -1.226 131.537  0.00  0.00    +0.015 C 
ATOM     13  C   LIG A   1      -6.774  -0.664 130.546  0.00  0.00    -0.021 C 
ATOM     14  C   LIG A   1      -6.176   0.605 131.222  0.00  0.00    +0.012 C 
ATOM     15  C   LIG A   1      -7.481  -0.322 129.153  0.00  0.00    +0.021 C 
ATOM     16  C   LIG A   1      -7.768   1.172 128.933  0.00  0.00    +0.009 C 
ATOM     17  C   LIG A   1      -8.652   1.439 127.714  0.00  0.00    +0.008 C 
ATOM     18  C   LIG A   1      -8.281   0.721 126.382  0.00  0.00    -0.020 C 
ATOM     19  C   LIG A   1      -9.620   0.634 125.618  0.00  0.00    +0.012 C 
ATOM     20  C   LIG A   1      -7.140   1.511 125.572  0.00  0.00    +0.002 C 
ATOM     21  C   LIG A   1      -6.195   0.419 125.024  0.00  0.00    +0.005 C 
ATOM     22  C   LIG A   1      -6.885  -0.910 125.277  0.00  0.00    +0.012 C 
ATOM     23  O   LIG A   1      -6.372  -4.358 132.674  0.00  0.00    -0.297 OA
ENDROOT
BRANCH  20  24
ATOM     24  C   LIG A   1      -7.516   2.583 124.473  0.00  0.00    +0.026 C 
ATOM     25  C   LIG A   1      -6.738   2.424 123.142  0.00  0.00    +0.011 C 
BRANCH  24  26
ATOM     26  C   LIG A   1      -7.340   4.068 124.945  0.00  0.00    +0.188 C 
BRANCH  26  27
ATOM     27  O   LIG A   1      -8.646   4.618 125.215  0.00  0.00    -0.384 OA
ATOM     28  H   LIG A   1      -9.105   4.009 125.824  0.00  0.00    +0.210 HD
ENDBRANCH  26  27
BRANCH  26  29
ATOM     29  C   LIG A   1      -6.491   4.258 126.219  0.00  0.00    +0.184 C 
ATOM     30  O   LIG A   1      -7.005   4.598 127.291  0.00  0.00    -0.290 OA
BRANCH  29  31
ATOM     31  C   LIG A   1      -5.007   4.187 126.056  0.00  0.00    +0.047 C 
ATOM     32  C   LIG A   1      -4.134   3.394 126.708  0.00  0.00    -0.072 C 
ATOM     33  C   LIG A   1      -4.452   2.365 127.757  0.00  0.00    +0.038 C 
ATOM     34  C   LIG A   1      -2.670   3.504 126.368  0.00  0.00    +0.038 C 
ENDBRANCH  29  31
ENDBRANCH  26  29
ENDBRANCH  24  26
ENDBRANCH  20  24
TORSDOF 5
ENDMDL
MODEL 2
REMARK VINA RESULT:      -7.9      4.140      6.117
REMARK  Name = NuBBE_1051
REMARK  13 active torsions:
REMARK  status: ('A' for Active; 'I' for Inactive)
REMARK    1  A    between atoms: C_1  and  C_2
REMARK    2  A    between atoms: C_8  and  C_9
REMARK    3  A    between atoms: C_8  and  C_10
REMARK    4  A    between atoms: C_14  and  C_15
REMARK    5  A    between atoms: C_20  and  C_21
REMARK    6  A    between atoms: C_22  and  C_24
REMARK    7  A    between atoms: C_24  and  C_26
REMARK    8  A    between atoms: C_24  and  C_27
REMARK    9  A    between atoms: C_27  and  O_28
REMARK   10  A    between atoms: C_27  and  C_29
REMARK   11  A    between atoms: C_29  and  C_30
REMARK   12  A    between atoms: C_31  and  C_32
REMARK   13  A    between atoms: C_31  and  C_33
REMARK                            x       y       z     vdW  Elec       q    Type
REMARK                         _______ _______ _______ _____ _____    ______ ____
ROOT
ATOM      1  C   LIG A   1      -9.188   1.125 132.458  0.00  0.00    +0.016 C 
ATOM      2  C   LIG A   1      -9.026   2.234 131.390  0.00  0.00    -0.005 C 
ATOM      3  C   LIG A   1      -8.034   1.716 130.318  0.00  0.00    -0.063 C 
ATOM      4  C   LIG A   1      -8.381   1.315 129.083  0.00  0.00    -0.026 C 
ATOM      5  C   LIG A   1      -7.411   0.750 128.107  0.00  0.00    +0.032 C 
ATOM      6  C   LIG A   1      -6.269  -0.036 128.772  0.00  0.00    +0.012 C 
ATOM      7  C   LIG A   1      -6.594  -1.508 129.220  0.00  0.00    +0.027 C 
ATOM      8  C   LIG A   1      -7.465  -1.687 130.473  0.00  0.00    +0.019 C 
ATOM      9  C   LIG A   1      -7.286  -2.273 128.070  0.00  0.00    +0.019 C 
ATOM     10  C   LIG A   1      -5.236  -2.172 129.512  0.00  0.00    +0.139 C 
ATOM     11  C   LIG A   1      -4.124  -1.298 130.069  0.00  0.00    +0.075 C 
ATOM     12  C   LIG A   1      -4.664  -0.058 130.774  0.00  0.00    +0.015 C 
ATOM     13  C   LIG A   1      -5.550   0.846 129.856  0.00  0.00    -0.021 C 
ATOM     14  C   LIG A   1      -4.572   1.785 129.090  0.00  0.00    +0.012 C 
ATOM     15  C   LIG A   1      -6.576   1.668 130.767  0.00  0.00    +0.021 C 
ATOM     16  C   LIG A   1      -6.181   3.133 131.011  0.00  0.00    +0.009 C 
ATOM     17  C   LIG A   1      -7.045   3.817 132.072  0.00  0.00    +0.008 C 
ATOM     18  C   LIG A   1      -8.590   3.647 131.964  0.00  0.00    -0.020 C 
ATOM     19  C   LIG A   1      -9.088   3.828 133.415  0.00  0.00    +0.012 C 
ATOM     20  C   LIG A   1      -9.239   4.696 130.936  0.00  0.00    +0.002 C 
ATOM     21  C   LIG A   1     -10.304   3.898 130.152  0.00  0.00    +0.005 C 
ATOM     22  C   LIG A   1     -10.439   2.560 130.856  0.00  0.00    +0.012 C 
ATOM     23  O   LIG A   1      -5.025  -3.365 129.290  0.00  0.00    -0.297 OA
ENDROOT
BRANCH  20  24
ATOM     24  C   LIG A   1      -9.787   6.093 131.436  0.00  0.00    +0.026 C 
ATOM     25  C   LIG A   1     -11.318   6.122 131.677  0.00  0.00    +0.011 C 
BRANCH  24  26
ATOM     26  C   LIG A   1      -9.438   7.291 130.486  0.00  0.00    +0.188 C 
BRANCH  26  27
ATOM     27  O   LIG A   1      -8.022   7.259 130.214  0.00  0.00    -0.384 OA
ATOM     28  H   LIG A   1      -7.643   8.108 130.510  0.00  0.00    +0.210 HD
ENDBRANCH  26  27
BRANCH  26  29
ATOM     29  C   LIG A   1     -10.167   7.287 129.126  0.00  0.00    +0.184 C 
ATOM     30  O   LIG A   1      -9.791   6.561 128.197  0.00  0.00    -0.290 OA
BRANCH  29  31
ATOM     31  C   LIG A   1     -11.226   8.321 128.925  0.00  0.00    +0.047 C 
ATOM     32  C   LIG A   1     -12.541   8.133 128.698  0.00  0.00    -0.072 C 
ATOM     33  C   LIG A   1     -13.268   6.821 128.608  0.00  0.00    +0.038 C 
ATOM     34  C   LIG A   1     -13.422   9.345 128.526  0.00  0.00    +0.038 C 
ENDBRANCH  29  31
ENDBRANCH  26  29
ENDBRANCH  24  26
ENDBRANCH  20  24
TORSDOF 5
ENDMDL
MODEL 3
REMARK VINA RESULT:      -7.9      2.881      7.081
REMARK  Name = NuBBE_1051
REMARK  13 active torsions:
REMARK  status: ('A' for Active; 'I' for Inactive)
REMARK    1  A    between atoms: C_1  and  C_2
REMARK    2  A    between atoms: C_8  and  C_9
REMARK    3  A    between atoms: C_8  and  C_10
REMARK    4  A    between atoms: C_14  and  C_15
REMARK    5  A    between atoms: C_20  and  C_21
REMARK    6  A    between atoms: C_22  and  C_24
REMARK    7  A    between atoms: C_24  and  C_26
REMARK    8  A    between atoms: C_24  and  C_27
REMARK    9  A    between atoms: C_27  and  O_28
REMARK   10  A    between atoms: C_27  and  C_29
REMARK   11  A    between atoms: C_29  and  C_30
REMARK   12  A    between atoms: C_31  and  C_32
REMARK   13  A    between atoms: C_31  and  C_33
REMARK                            x       y       z     vdW  Elec       q    Type
REMARK                         _______ _______ _______ _____ _____    ______ ____
ROOT
ATOM      1  C   LIG A   1      -4.112  -3.100 128.488  0.00  0.00    +0.016 C 
ATOM      2  C   LIG A   1      -5.340  -2.706 129.344  0.00  0.00    -0.005 C 
ATOM      3  C   LIG A   1      -6.463  -2.250 128.377  0.00  0.00    -0.063 C 
ATOM      4  C   LIG A   1      -7.562  -2.967 128.086  0.00  0.00    -0.026 C 
ATOM      5  C   LIG A   1      -8.580  -2.531 127.094  0.00  0.00    +0.032 C 
ATOM      6  C   LIG A   1      -7.986  -1.712 125.936  0.00  0.00    +0.012 C 
ATOM      7  C   LIG A   1      -7.288  -2.523 124.784  0.00  0.00    +0.027 C 
ATOM      8  C   LIG A   1      -5.907  -3.124 125.083  0.00  0.00    +0.019 C 
ATOM      9  C   LIG A   1      -8.200  -3.681 124.320  0.00  0.00    +0.019 C 
ATOM     10  C   LIG A   1      -7.110  -1.534 123.617  0.00  0.00    +0.139 C 
ATOM     11  C   LIG A   1      -6.856  -0.075 123.956  0.00  0.00    +0.075 C 
ATOM     12  C   LIG A   1      -6.264   0.099 125.351  0.00  0.00    +0.015 C 
ATOM     13  C   LIG A   1      -7.161  -0.494 126.487  0.00  0.00    -0.021 C 
ATOM     14  C   LIG A   1      -8.190   0.614 126.856  0.00  0.00    +0.012 C 
ATOM     15  C   LIG A   1      -6.234  -0.886 127.731  0.00  0.00    +0.021 C 
ATOM     16  C   LIG A   1      -6.264   0.121 128.892  0.00  0.00    +0.009 C 
ATOM     17  C   LIG A   1      -5.196  -0.155 129.951  0.00  0.00    +0.008 C 
ATOM     18  C   LIG A   1      -5.046  -1.619 130.462  0.00  0.00    -0.020 C 
ATOM     19  C   LIG A   1      -3.579  -1.702 130.936  0.00  0.00    +0.012 C 
ATOM     20  C   LIG A   1      -6.106  -1.963 131.619  0.00  0.00    +0.002 C 
ATOM     21  C   LIG A   1      -6.600  -3.394 131.312  0.00  0.00    +0.005 C 
ATOM     22  C   LIG A   1      -5.699  -3.931 130.214  0.00  0.00    +0.012 C 
ATOM     23  O   LIG A   1      -7.187  -1.886 122.438  0.00  0.00    -0.297 OA
ENDROOT
BRANCH  20  24
ATOM     24  C   LIG A   1      -5.736  -1.773 133.145  0.00  0.00    +0.026 C 
ATOM     25  C   LIG A   1      -5.882  -3.059 133.996  0.00  0.00    +0.011 C 
BRANCH  24  26
ATOM     26  C   LIG A   1      -6.550  -0.639 133.861  0.00  0.00    +0.188 C 
BRANCH  26  27
ATOM     27  O   LIG A   1      -6.099  -0.549 135.228  0.00  0.00    -0.384 OA
ATOM     28  H   LIG A   1      -5.585   0.276 135.318  0.00  0.00    +0.210 HD
ENDBRANCH  26  27
BRANCH  26  29
ATOM     29  C   LIG A   1      -6.411   0.765 133.238  0.00  0.00    +0.184 C 
ATOM     30  O   LIG A   1      -5.303   1.293 133.082  0.00  0.00    -0.290 OA
BRANCH  29  31
ATOM     31  C   LIG A   1      -7.676   1.525 133.000  0.00  0.00    +0.047 C 
ATOM     32  C   LIG A   1      -8.705   1.196 132.195  0.00  0.00    -0.072 C 
ATOM     33  C   LIG A   1      -8.836  -0.038 131.347  0.00  0.00    +0.038 C 
ATOM     34  C   LIG A   1      -9.885   2.131 132.118  0.00  0.00    +0.038 C 
ENDBRANCH  29  31
ENDBRANCH  26  29
ENDBRANCH  24  26
ENDBRANCH  20  24
TORSDOF 5
ENDMDL
MODEL 4
REMARK VINA RESULT:      -7.9      1.996      4.347
REMARK  Name = NuBBE_1051
REMARK  13 active torsions:
REMARK  status: ('A' for Active; 'I' for Inactive)
REMARK    1  A    between atoms: C_1  and  C_2
REMARK    2  A    between atoms: C_8  and  C_9
REMARK    3  A    between atoms: C_8  and  C_10
REMARK    4  A    between atoms: C_14  and  C_15
REMARK    5  A    between atoms: C_20  and  C_21
REMARK    6  A    between atoms: C_22  and  C_24
REMARK    7  A    between atoms: C_24  and  C_26
REMARK    8  A    between atoms: C_24  and  C_27
REMARK    9  A    between atoms: C_27  and  O_28
REMARK   10  A    between atoms: C_27  and  C_29
REMARK   11  A    between atoms: C_29  and  C_30
REMARK   12  A    between atoms: C_31  and  C_32
REMARK   13  A    between atoms: C_31  and  C_33
REMARK                            x       y       z     vdW  Elec       q    Type
REMARK                         _______ _______ _______ _____ _____    ______ ____
ROOT
ATOM      1  C   LIG A   1      -4.740   1.272 128.981  0.00  0.00    +0.016 C 
ATOM      2  C   LIG A   1      -6.136   0.789 128.519  0.00  0.00    -0.005 C 
ATOM      3  C   LIG A   1      -6.547  -0.400 129.425  0.00  0.00    -0.063 C 
ATOM      4  C   LIG A   1      -7.475  -0.339 130.395  0.00  0.00    -0.026 C 
ATOM      5  C   LIG A   1      -7.789  -1.481 131.296  0.00  0.00    +0.032 C 
ATOM      6  C   LIG A   1      -6.573  -2.377 131.585  0.00  0.00    +0.012 C 
ATOM      7  C   LIG A   1      -5.561  -1.864 132.674  0.00  0.00    +0.027 C 
ATOM      8  C   LIG A   1      -4.631  -0.707 132.281  0.00  0.00    +0.019 C 
ATOM      9  C   LIG A   1      -6.324  -1.426 133.944  0.00  0.00    +0.019 C 
ATOM     10  C   LIG A   1      -4.667  -3.068 133.022  0.00  0.00    +0.139 C 
ATOM     11  C   LIG A   1      -4.354  -4.062 131.916  0.00  0.00    +0.075 C 
ATOM     12  C   LIG A   1      -4.492  -3.445 130.529  0.00  0.00    +0.015 C 
ATOM     13  C   LIG A   1      -5.916  -2.864 130.243  0.00  0.00    -0.021 C 
ATOM     14  C   LIG A   1      -6.779  -4.054 129.729  0.00  0.00    +0.012 C 
ATOM     15  C   LIG A   1      -5.795  -1.700 129.153  0.00  0.00    +0.021 C 
ATOM     16  C   LIG A   1      -6.204  -2.113 127.730  0.00  0.00    +0.009 C 
ATOM     17  C   LIG A   1      -5.852  -1.061 126.677  0.00  0.00    +0.008 C 
ATOM     18  C   LIG A   1      -6.233   0.419 126.980  0.00  0.00    -0.020 C 
ATOM     19  C   LIG A   1      -5.220   1.242 126.153  0.00  0.00    +0.012 C 
ATOM     20  C   LIG A   1      -7.762   0.735 126.604  0.00  0.00    +0.002 C 
ATOM     21  C   LIG A   1      -8.291   1.624 127.751  0.00  0.00    +0.005 C 
ATOM     22  C   LIG A   1      -7.083   2.007 128.587  0.00  0.00    +0.012 C 
ATOM     23  O   LIG A   1      -4.224  -3.253 134.157  0.00  0.00    -0.297 OA
ENDROOT
BRANCH  20  24
ATOM     24  C   LIG A   1      -8.151   1.302 125.180  0.00  0.00    +0.026 C 
ATOM     25  C   LIG A   1      -8.349   2.838 125.143  0.00  0.00    +0.011 C 
BRANCH  24  26
ATOM     26  C   LIG A   1      -9.435   0.647 124.563  0.00  0.00    +0.188 C 
BRANCH  26  27
ATOM     27  O   LIG A   1     -10.329   1.700 124.148  0.00  0.00    -0.384 OA
ATOM     28  H   LIG A   1     -11.092   1.699 124.756  0.00  0.00    +0.210 HD
ENDBRANCH  26  27
BRANCH  26  29
ATOM     29  C   LIG A   1      -9.189  -0.256 123.336  0.00  0.00    +0.184 C 
ATOM     30  O   LIG A   1     -10.120  -0.623 122.609  0.00  0.00    -0.290 OA
BRANCH  29  31
ATOM     31  C   LIG A   1      -7.810  -0.807 123.171  0.00  0.00    +0.047 C 
ATOM     32  C   LIG A   1      -7.361  -2.036 123.493  0.00  0.00    -0.072 C 
ATOM     33  C   LIG A   1      -8.155  -3.166 124.086  0.00  0.00    +0.038 C 
ATOM     34  C   LIG A   1      -5.913  -2.365 123.230  0.00  0.00    +0.038 C 
ENDBRANCH  29  31
ENDBRANCH  26  29
ENDBRANCH  24  26
ENDBRANCH  20  24
TORSDOF 5
ENDMDL
MODEL 5
REMARK VINA RESULT:      -7.8      2.933      6.898
REMARK  Name = NuBBE_1051
REMARK  13 active torsions:
REMARK  status: ('A' for Active; 'I' for Inactive)
REMARK    1  A    between atoms: C_1  and  C_2
REMARK    2  A    between atoms: C_8  and  C_9
REMARK    3  A    between atoms: C_8  and  C_10
REMARK    4  A    between atoms: C_14  and  C_15
REMARK    5  A    between atoms: C_20  and  C_21
REMARK    6  A    between atoms: C_22  and  C_24
REMARK    7  A    between atoms: C_24  and  C_26
REMARK    8  A    between atoms: C_24  and  C_27
REMARK    9  A    between atoms: C_27  and  O_28
REMARK   10  A    between atoms: C_27  and  C_29
REMARK   11  A    between atoms: C_29  and  C_30
REMARK   12  A    between atoms: C_31  and  C_32
REMARK   13  A    between atoms: C_31  and  C_33
REMARK                            x       y       z     vdW  Elec       q    Type
REMARK                         _______ _______ _______ _____ _____    ______ ____
ROOT
ATOM      1  C   LIG A   1      -7.384   1.590 127.934  0.00  0.00    +0.016 C 
ATOM      2  C   LIG A   1      -6.468   0.548 128.620  0.00  0.00    -0.005 C 
ATOM      3  C   LIG A   1      -6.461  -0.727 127.739  0.00  0.00    -0.063 C 
ATOM      4  C   LIG A   1      -5.434  -1.118 126.965  0.00  0.00    -0.026 C 
ATOM      5  C   LIG A   1      -5.492  -2.307 126.073  0.00  0.00    +0.032 C 
ATOM      6  C   LIG A   1      -6.898  -2.573 125.508  0.00  0.00    +0.012 C 
ATOM      7  C   LIG A   1      -7.342  -1.696 124.281  0.00  0.00    +0.027 C 
ATOM      8  C   LIG A   1      -7.718  -0.233 124.561  0.00  0.00    +0.019 C 
ATOM      9  C   LIG A   1      -6.234  -1.686 123.205  0.00  0.00    +0.019 C 
ATOM     10  C   LIG A   1      -8.592  -2.383 123.700  0.00  0.00    +0.139 C 
ATOM     11  C   LIG A   1      -9.523  -3.097 124.666  0.00  0.00    +0.075 C 
ATOM     12  C   LIG A   1      -9.398  -2.563 126.089  0.00  0.00    +0.015 C 
ATOM     13  C   LIG A   1      -7.950  -2.673 126.671  0.00  0.00    -0.021 C 
ATOM     14  C   LIG A   1      -7.824  -4.106 127.266  0.00  0.00    +0.012 C 
ATOM     15  C   LIG A   1      -7.749  -1.544 127.787  0.00  0.00    +0.021 C 
ATOM     16  C   LIG A   1      -7.852  -2.052 129.234  0.00  0.00    +0.009 C 
ATOM     17  C   LIG A   1      -7.897  -0.921 130.263  0.00  0.00    +0.008 C 
ATOM     18  C   LIG A   1      -6.847   0.222 130.126  0.00  0.00    -0.020 C 
ATOM     19  C   LIG A   1      -7.527   1.437 130.796  0.00  0.00    +0.012 C 
ATOM     20  C   LIG A   1      -5.442  -0.168 130.800  0.00  0.00    +0.002 C 
ATOM     21  C   LIG A   1      -4.361   0.354 129.828  0.00  0.00    +0.005 C 
ATOM     22  C   LIG A   1      -5.085   1.210 128.804  0.00  0.00    +0.012 C 
ATOM     23  O   LIG A   1      -8.841  -2.385 122.493  0.00  0.00    -0.297 OA
ENDROOT
BRANCH  20  24
ATOM     24  C   LIG A   1      -5.127   0.209 132.303  0.00  0.00    +0.026 C 
ATOM     25  C   LIG A   1      -3.979   1.235 132.470  0.00  0.00    +0.011 C 
BRANCH  24  26
ATOM     26  C   LIG A   1      -4.792  -1.025 133.212  0.00  0.00    +0.188 C 
BRANCH  26  27
ATOM     27  O   LIG A   1      -6.031  -1.608 133.663  0.00  0.00    -0.384 OA
ATOM     28  H   LIG A   1      -5.813  -2.395 134.197  0.00  0.00    +0.210 HD
ENDBRANCH  26  27
BRANCH  26  29
ATOM     29  C   LIG A   1      -3.980  -2.144 132.529  0.00  0.00    +0.184 C 
ATOM     30  O   LIG A   1      -2.796  -1.978 132.210  0.00  0.00    -0.290 OA
BRANCH  29  31
ATOM     31  C   LIG A   1      -4.733  -3.365 132.112  0.00  0.00    +0.047 C 
ATOM     32  C   LIG A   1      -4.876  -3.873 130.872  0.00  0.00    -0.072 C 
ATOM     33  C   LIG A   1      -4.289  -3.334 129.597  0.00  0.00    +0.038 C 
ATOM     34  C   LIG A   1      -5.692  -5.129 130.698  0.00  0.00    +0.038 C 
ENDBRANCH  29  31
ENDBRANCH  26  29
ENDBRANCH  24  26
ENDBRANCH  20  24
TORSDOF 5
ENDMDL
MODEL 6
REMARK VINA RESULT:      -7.8      2.557      7.193
REMARK  Name = NuBBE_1051
REMARK  13 active torsions:
REMARK  status: ('A' for Active; 'I' for Inactive)
REMARK    1  A    between atoms: C_1  and  C_2
REMARK    2  A    between atoms: C_8  and  C_9
REMARK    3  A    between atoms: C_8  and  C_10
REMARK    4  A    between atoms: C_14  and  C_15
REMARK    5  A    between atoms: C_20  and  C_21
REMARK    6  A    between atoms: C_22  and  C_24
REMARK    7  A    between atoms: C_24  and  C_26
REMARK    8  A    between atoms: C_24  and  C_27
REMARK    9  A    between atoms: C_27  and  O_28
REMARK   10  A    between atoms: C_27  and  C_29
REMARK   11  A    between atoms: C_29  and  C_30
REMARK   12  A    between atoms: C_31  and  C_32
REMARK   13  A    between atoms: C_31  and  C_33
REMARK                            x       y       z     vdW  Elec       q    Type
REMARK                         _______ _______ _______ _____ _____    ______ ____
ROOT
ATOM      1  C   LIG A   1      -8.247  -3.924 128.654  0.00  0.00    +0.016 C 
ATOM      2  C   LIG A   1      -7.480  -2.848 129.459  0.00  0.00    -0.005 C 
ATOM      3  C   LIG A   1      -7.287  -1.617 128.537  0.00  0.00    -0.063 C 
ATOM      4  C   LIG A   1      -7.962  -0.460 128.651  0.00  0.00    -0.026 C 
ATOM      5  C   LIG A   1      -7.805   0.672 127.699  0.00  0.00    +0.032 C 
ATOM      6  C   LIG A   1      -7.486   0.219 126.265  0.00  0.00    +0.012 C 
ATOM      7  C   LIG A   1      -8.699  -0.275 125.395  0.00  0.00    +0.027 C 
ATOM      8  C   LIG A   1      -9.278  -1.661 125.717  0.00  0.00    +0.019 C 
ATOM      9  C   LIG A   1      -9.862   0.738 125.480  0.00  0.00    +0.019 C 
ATOM     10  C   LIG A   1      -8.188  -0.323 123.943  0.00  0.00    +0.139 C 
ATOM     11  C   LIG A   1      -6.728  -0.679 123.716  0.00  0.00    +0.075 C 
ATOM     12  C   LIG A   1      -6.140  -1.471 124.879  0.00  0.00    +0.015 C 
ATOM     13  C   LIG A   1      -6.230  -0.724 126.251  0.00  0.00    -0.021 C 
ATOM     14  C   LIG A   1      -4.977   0.199 126.330  0.00  0.00    +0.012 C 
ATOM     15  C   LIG A   1      -6.251  -1.803 127.431  0.00  0.00    +0.021 C 
ATOM     16  C   LIG A   1      -4.909  -1.979 128.161  0.00  0.00    +0.009 C 
ATOM     17  C   LIG A   1      -4.897  -3.176 129.112  0.00  0.00    +0.008 C 
ATOM     18  C   LIG A   1      -6.106  -3.340 130.081  0.00  0.00    -0.020 C 
ATOM     19  C   LIG A   1      -6.148  -4.856 130.373  0.00  0.00    +0.012 C 
ATOM     20  C   LIG A   1      -5.941  -2.445 131.404  0.00  0.00    +0.002 C 
ATOM     21  C   LIG A   1      -7.342  -1.857 131.680  0.00  0.00    +0.005 C 
ATOM     22  C   LIG A   1      -8.297  -2.570 130.740  0.00  0.00    +0.012 C 
ATOM     23  O   LIG A   1      -8.913  -0.064 122.981  0.00  0.00    -0.297 OA
ENDROOT
BRANCH  20  24
ATOM     24  C   LIG A   1      -5.273  -3.036 132.710  0.00  0.00    +0.026 C 
ATOM     25  C   LIG A   1      -5.909  -2.531 134.030  0.00  0.00    +0.011 C 
BRANCH  24  26
ATOM     26  C   LIG A   1      -3.728  -2.784 132.806  0.00  0.00    +0.188 C 
BRANCH  26  27
ATOM     27  O   LIG A   1      -3.045  -3.980 132.378  0.00  0.00    -0.384 OA
ATOM     28  H   LIG A   1      -2.086  -3.823 132.466  0.00  0.00    +0.210 HD
ENDBRANCH  26  27
BRANCH  26  29
ATOM     29  C   LIG A   1      -3.196  -1.620 131.945  0.00  0.00    +0.184 C 
ATOM     30  O   LIG A   1      -2.486  -1.825 130.953  0.00  0.00    -0.290 OA
BRANCH  29  31
ATOM     31  C   LIG A   1      -3.429  -0.238 132.463  0.00  0.00    +0.047 C 
ATOM     32  C   LIG A   1      -4.059   0.786 131.853  0.00  0.00    -0.072 C 
ATOM     33  C   LIG A   1      -4.701   0.775 130.494  0.00  0.00    +0.038 C 
ATOM     34  C   LIG A   1      -4.171   2.100 132.583  0.00  0.00    +0.038 C 
ENDBRANCH  29  31
ENDBRANCH  26  29
ENDBRANCH  24  26
ENDBRANCH  20  24
TORSDOF 5
ENDMDL
MODEL 7
REMARK VINA RESULT:      -7.6      2.653      4.695
REMARK  Name = NuBBE_1051
REMARK  13 active torsions:
REMARK  status: ('A' for Active; 'I' for Inactive)
REMARK    1  A    between atoms: C_1  and  C_2
REMARK    2  A    between atoms: C_8  and  C_9
REMARK    3  A    between atoms: C_8  and  C_10
REMARK    4  A    between atoms: C_14  and  C_15
REMARK    5  A    between atoms: C_20  and  C_21
REMARK    6  A    between atoms: C_22  and  C_24
REMARK    7  A    between atoms: C_24  and  C_26
REMARK    8  A    between atoms: C_24  and  C_27
REMARK    9  A    between atoms: C_27  and  O_28
REMARK   10  A    between atoms: C_27  and  C_29
REMARK   11  A    between atoms: C_29  and  C_30
REMARK   12  A    between atoms: C_31  and  C_32
REMARK   13  A    between atoms: C_31  and  C_33
REMARK                            x       y       z     vdW  Elec       q    Type
REMARK                         _______ _______ _______ _____ _____    ______ ____
ROOT
ATOM      1  C   LIG A   1      -8.128  -1.317 130.572  0.00  0.00    +0.016 C 
ATOM      2  C   LIG A   1      -7.654  -2.265 129.445  0.00  0.00    -0.005 C 
ATOM      3  C   LIG A   1      -6.421  -3.043 129.970  0.00  0.00    -0.063 C 
ATOM      4  C   LIG A   1      -6.427  -4.338 130.330  0.00  0.00    -0.026 C 
ATOM      5  C   LIG A   1      -5.242  -5.030 130.902  0.00  0.00    +0.032 C 
ATOM      6  C   LIG A   1      -4.345  -4.104 131.741  0.00  0.00    +0.012 C 
ATOM      7  C   LIG A   1      -4.817  -3.808 133.211  0.00  0.00    +0.027 C 
ATOM      8  C   LIG A   1      -5.999  -2.845 133.391  0.00  0.00    +0.019 C 
ATOM      9  C   LIG A   1      -5.187  -5.126 133.927  0.00  0.00    +0.019 C 
ATOM     10  C   LIG A   1      -3.606  -3.179 133.926  0.00  0.00    +0.139 C 
ATOM     11  C   LIG A   1      -2.667  -2.313 133.102  0.00  0.00    +0.075 C 
ATOM     12  C   LIG A   1      -3.347  -1.743 131.862  0.00  0.00    +0.015 C 
ATOM     13  C   LIG A   1      -3.927  -2.839 130.908  0.00  0.00    -0.021 C 
ATOM     14  C   LIG A   1      -2.754  -3.280 129.984  0.00  0.00    +0.012 C 
ATOM     15  C   LIG A   1      -5.142  -2.216 130.075  0.00  0.00    +0.021 C 
ATOM     16  C   LIG A   1      -4.792  -1.827 128.630  0.00  0.00    +0.009 C 
ATOM     17  C   LIG A   1      -5.895  -1.021 127.943  0.00  0.00    +0.008 C 
ATOM     18  C   LIG A   1      -7.356  -1.549 128.060  0.00  0.00    -0.020 C 
ATOM     19  C   LIG A   1      -8.226  -0.284 127.897  0.00  0.00    +0.012 C 
ATOM     20  C   LIG A   1      -7.674  -2.682 126.966  0.00  0.00    +0.002 C 
ATOM     21  C   LIG A   1      -8.504  -3.751 127.711  0.00  0.00    +0.005 C 
ATOM     22  C   LIG A   1      -8.859  -3.152 129.061  0.00  0.00    +0.012 C 
ATOM     23  O   LIG A   1      -3.373  -3.372 135.120  0.00  0.00    -0.297 OA
ENDROOT
BRANCH  20  24
ATOM     24  C   LIG A   1      -8.303  -2.307 125.565  0.00  0.00    +0.026 C 
ATOM     25  C   LIG A   1      -9.706  -2.916 125.318  0.00  0.00    +0.011 C 
BRANCH  24  26
ATOM     26  C   LIG A   1      -7.402  -2.689 124.339  0.00  0.00    +0.188 C 
BRANCH  26  27
ATOM     27  O   LIG A   1      -8.224  -3.355 123.359  0.00  0.00    -0.384 OA
ATOM     28  H   LIG A   1      -9.077  -2.883 123.316  0.00  0.00    +0.210 HD
ENDBRANCH  26  27
BRANCH  26  29
ATOM     29  C   LIG A   1      -6.714  -1.503 123.632  0.00  0.00    +0.184 C 
ATOM     30  O   LIG A   1      -6.447  -1.541 122.425  0.00  0.00    -0.290 OA
BRANCH  29  31
ATOM     31  C   LIG A   1      -6.229  -0.389 124.502  0.00  0.00    +0.047 C 
ATOM     32  C   LIG A   1      -6.749   0.847 124.640  0.00  0.00    -0.072 C 
ATOM     33  C   LIG A   1      -7.967   1.401 123.955  0.00  0.00    +0.038 C 
ATOM     34  C   LIG A   1      -6.078   1.808 125.588  0.00  0.00    +0.038 C 
ENDBRANCH  29  31
ENDBRANCH  26  29
ENDBRANCH  24  26
ENDBRANCH  20  24
TORSDOF 5
ENDMDL
MODEL 8
REMARK VINA RESULT:      -7.6      3.292      5.880
REMARK  Name = NuBBE_1051
REMARK  13 active torsions:
REMARK  status: ('A' for Active; 'I' for Inactive)
REMARK    1  A    between atoms: C_1  and  C_2
REMARK    2  A    between atoms: C_8  and  C_9
REMARK    3  A    between atoms: C_8  and  C_10
REMARK    4  A    between atoms: C_14  and  C_15
REMARK    5  A    between atoms: C_20  and  C_21
REMARK    6  A    between atoms: C_22  and  C_24
REMARK    7  A    between atoms: C_24  and  C_26
REMARK    8  A    between atoms: C_24  and  C_27
REMARK    9  A    between atoms: C_27  and  O_28
REMARK   10  A    between atoms: C_27  and  C_29
REMARK   11  A    between atoms: C_29  and  C_30
REMARK   12  A    between atoms: C_31  and  C_32
REMARK   13  A    between atoms: C_31  and  C_33
REMARK                            x       y       z     vdW  Elec       q    Type
REMARK                         _______ _______ _______ _____ _____    ______ ____
ROOT
ATOM      1  C   LIG A   1      -7.482   2.910 125.705  0.00  0.00    +0.016 C 
ATOM      2  C   LIG A   1      -6.451   2.343 126.711  0.00  0.00    -0.005 C 
ATOM      3  C   LIG A   1      -6.368   0.811 126.489  0.00  0.00    -0.063 C 
ATOM      4  C   LIG A   1      -5.343   0.177 125.895  0.00  0.00    -0.026 C 
ATOM      5  C   LIG A   1      -5.334  -1.287 125.631  0.00  0.00    +0.032 C 
ATOM      6  C   LIG A   1      -6.732  -1.861 125.350  0.00  0.00    +0.012 C 
ATOM      7  C   LIG A   1      -7.301  -1.656 123.899  0.00  0.00    +0.027 C 
ATOM      8  C   LIG A   1      -7.790  -0.249 123.527  0.00  0.00    +0.019 C 
ATOM      9  C   LIG A   1      -6.242  -2.063 122.850  0.00  0.00    +0.019 C 
ATOM     10  C   LIG A   1      -8.508  -2.604 123.778  0.00  0.00    +0.139 C 
ATOM     11  C   LIG A   1      -9.333  -2.863 125.028  0.00  0.00    +0.075 C 
ATOM     12  C   LIG A   1      -9.198  -1.742 126.052  0.00  0.00    +0.015 C 
ATOM     13  C   LIG A   1      -7.723  -1.492 126.512  0.00  0.00    -0.021 C 
ATOM     14  C   LIG A   1      -7.449  -2.496 127.670  0.00  0.00    +0.012 C 
ATOM     15  C   LIG A   1      -7.578   0.027 126.992  0.00  0.00    +0.021 C 
ATOM     16  C   LIG A   1      -7.577   0.218 128.517  0.00  0.00    +0.009 C 
ATOM     17  C   LIG A   1      -7.679   1.684 128.937  0.00  0.00    +0.008 C 
ATOM     18  C   LIG A   1      -6.740   2.706 128.228  0.00  0.00    -0.020 C 
ATOM     19  C   LIG A   1      -7.495   4.048 128.338  0.00  0.00    +0.012 C 
ATOM     20  C   LIG A   1      -5.280   2.744 128.898  0.00  0.00    +0.002 C 
ATOM     21  C   LIG A   1      -4.289   2.838 127.717  0.00  0.00    +0.005 C 
ATOM     22  C   LIG A   1      -5.125   3.100 126.477  0.00  0.00    +0.012 C 
ATOM     23  O   LIG A   1      -8.804  -3.163 122.721  0.00  0.00    -0.297 OA
ENDROOT
BRANCH  20  24
ATOM     24  C   LIG A   1      -4.939   3.773 130.049  0.00  0.00    +0.026 C 
ATOM     25  C   LIG A   1      -3.450   4.202 130.093  0.00  0.00    +0.011 C 
BRANCH  24  26
ATOM     26  C   LIG A   1      -5.327   3.275 131.485  0.00  0.00    +0.188 C 
BRANCH  26  27
ATOM     27  O   LIG A   1      -4.150   2.725 132.110  0.00  0.00    -0.384 OA
ATOM     28  H   LIG A   1      -4.391   1.861 132.492  0.00  0.00    +0.210 HD
ENDBRANCH  26  27
BRANCH  26  29
ATOM     29  C   LIG A   1      -5.884   4.360 132.429  0.00  0.00    +0.184 C 
ATOM     30  O   LIG A   1      -5.429   4.517 133.569  0.00  0.00    -0.290 OA
BRANCH  29  31
ATOM     31  C   LIG A   1      -7.108   5.087 131.973  0.00  0.00    +0.047 C 
ATOM     32  C   LIG A   1      -7.184   6.279 131.348  0.00  0.00    -0.072 C 
ATOM     33  C   LIG A   1      -6.039   7.164 130.940  0.00  0.00    +0.038 C 
ATOM     34  C   LIG A   1      -8.545   6.814 130.983  0.00  0.00    +0.038 C 
ENDBRANCH  29  31
ENDBRANCH  26  29
ENDBRANCH  24  26
ENDBRANCH  20  24
TORSDOF 5
ENDMDL
MODEL 9
REMARK VINA RESULT:      -7.6      2.938      6.707
REMARK  Name = NuBBE_1051
REMARK  13 active torsions:
REMARK  status: ('A' for Active; 'I' for Inactive)
REMARK    1  A    between atoms: C_1  and  C_2
REMARK    2  A    between atoms: C_8  and  C_9
REMARK    3  A    between atoms: C_8  and  C_10
REMARK    4  A    between atoms: C_14  and  C_15
REMARK    5  A    between atoms: C_20  and  C_21
REMARK    6  A    between atoms: C_22  and  C_24
REMARK    7  A    between atoms: C_24  and  C_26
REMARK    8  A    between atoms: C_24  and  C_27
REMARK    9  A    between atoms: C_27  and  O_28
REMARK   10  A    between atoms: C_27  and  C_29
REMARK   11  A    between atoms: C_29  and  C_30
REMARK   12  A    between atoms: C_31  and  C_32
REMARK   13  A    between atoms: C_31  and  C_33
REMARK                            x       y       z     vdW  Elec       q    Type
REMARK                         _______ _______ _______ _____ _____    ______ ____
ROOT
ATOM      1  C   LIG A   1      -7.837   4.478 127.679  0.00  0.00    +0.016 C 
ATOM      2  C   LIG A   1      -7.232   3.068 127.476  0.00  0.00    -0.005 C 
ATOM      3  C   LIG A   1      -5.805   3.075 128.082  0.00  0.00    -0.063 C 
ATOM      4  C   LIG A   1      -5.460   2.477 129.235  0.00  0.00    -0.026 C 
ATOM      5  C   LIG A   1      -4.097   2.571 129.825  0.00  0.00    +0.032 C 
ATOM      6  C   LIG A   1      -3.397   3.907 129.524  0.00  0.00    +0.012 C 
ATOM      7  C   LIG A   1      -3.810   5.136 130.414  0.00  0.00    +0.027 C 
ATOM      8  C   LIG A   1      -5.178   5.777 130.139  0.00  0.00    +0.019 C 
ATOM      9  C   LIG A   1      -3.781   4.744 131.909  0.00  0.00    +0.019 C 
ATOM     10  C   LIG A   1      -2.742   6.217 130.165  0.00  0.00    +0.139 C 
ATOM     11  C   LIG A   1      -2.118   6.292 128.781  0.00  0.00    +0.075 C 
ATOM     12  C   LIG A   1      -3.015   5.681 127.710  0.00  0.00    +0.015 C 
ATOM     13  C   LIG A   1      -3.376   4.183 127.978  0.00  0.00    -0.021 C 
ATOM     14  C   LIG A   1      -2.207   3.339 127.389  0.00  0.00    +0.012 C 
ATOM     15  C   LIG A   1      -4.770   3.847 127.269  0.00  0.00    +0.021 C 
ATOM     16  C   LIG A   1      -4.644   3.080 125.943  0.00  0.00    +0.009 C 
ATOM     17  C   LIG A   1      -5.964   2.987 125.177  0.00  0.00    +0.008 C 
ATOM     18  C   LIG A   1      -7.233   2.557 125.974  0.00  0.00    -0.020 C 
ATOM     19  C   LIG A   1      -8.401   3.182 125.182  0.00  0.00    +0.012 C 
ATOM     20  C   LIG A   1      -7.343   0.960 126.111  0.00  0.00    +0.002 C 
ATOM     21  C   LIG A   1      -7.817   0.705 127.558  0.00  0.00    +0.005 C 
ATOM     22  C   LIG A   1      -8.203   2.058 128.127  0.00  0.00    +0.012 C 
ATOM     23  O   LIG A   1      -2.374   6.995 131.047  0.00  0.00    -0.297 OA
ENDROOT
BRANCH  20  24
ATOM     24  C   LIG A   1      -8.154   0.107 125.056  0.00  0.00    +0.026 C 
ATOM     25  C   LIG A   1      -9.594  -0.249 125.503  0.00  0.00    +0.011 C 
BRANCH  24  26
ATOM     26  C   LIG A   1      -7.447  -1.230 124.639  0.00  0.00    +0.188 C 
BRANCH  26  27
ATOM     27  O   LIG A   1      -6.275  -0.904 123.865  0.00  0.00    -0.384 OA
ATOM     28  H   LIG A   1      -5.499  -1.271 124.330  0.00  0.00    +0.210 HD
ENDBRANCH  26  27
BRANCH  26  29
ATOM     29  C   LIG A   1      -6.989  -2.125 125.810  0.00  0.00    +0.184 C 
ATOM     30  O   LIG A   1      -5.797  -2.205 126.131  0.00  0.00    -0.290 OA
BRANCH  29  31
ATOM     31  C   LIG A   1      -8.020  -3.021 126.417  0.00  0.00    +0.047 C 
ATOM     32  C   LIG A   1      -8.279  -3.227 127.723  0.00  0.00    -0.072 C 
ATOM     33  C   LIG A   1      -7.594  -2.583 128.897  0.00  0.00    +0.038 C 
ATOM     34  C   LIG A   1      -9.380  -4.187 128.096  0.00  0.00    +0.038 C 
ENDBRANCH  29  31
ENDBRANCH  26  29
ENDBRANCH  24  26
ENDBRANCH  20  24
TORSDOF 5
ENDMDL
