MODEL 1
REMARK VINA RESULT:      -7.2      0.000      0.000
REMARK  Name = NuBBE_1872
REMARK  10 active torsions:
REMARK  status: ('A' for Active; 'I' for Inactive)
REMARK    1  A    between atoms: C_1  and  O_2
REMARK    2  A    between atoms: O_2  and  C_3
REMARK    3  A    between atoms: C_4  and  C_5
REMARK    4  A    between atoms: C_8  and  O_9
REMARK    5  A    between atoms: O_9  and  C_10
REMARK    6  A    between atoms: C_11  and  O_12
REMARK    7  A    between atoms: C_13  and  O_14
REMARK    8  A    between atoms: C_18  and  O_19
REMARK    9  A    between atoms: C_21  and  O_22
REMARK   10  A    between atoms: O_22  and  C_23
REMARK                            x       y       z     vdW  Elec       q    Type
REMARK                         _______ _______ _______ _____ _____    ______ ____
ROOT
ATOM      1  C   LIG A   1      -7.781   5.604 132.238  0.00  0.00    +0.211 A 
ATOM      2  C   LIG A   1      -7.137   6.289 131.262  0.00  0.00    +0.184 A 
ATOM      3  O   LIG A   1      -7.770   7.053 130.293  0.00  0.00    -0.451 OA
ATOM      4  C   LIG A   1      -9.137   7.134 130.297  0.00  0.00    +0.146 A 
ATOM      5  C   LIG A   1      -9.935   6.498 131.238  0.00  0.00    +0.109 A 
ATOM      6  C   LIG A   1     -11.330   6.636 131.182  0.00  0.00    +0.135 A 
ATOM      7  C   LIG A   1     -11.922   7.399 130.181  0.00  0.00    +0.092 A 
ATOM      8  C   LIG A   1     -11.121   8.047 129.240  0.00  0.00    +0.127 A 
ATOM      9  C   LIG A   1      -9.730   7.905 129.297  0.00  0.00    +0.092 A 
ATOM     10  C   LIG A   1      -9.274   5.705 132.271  0.00  0.00    +0.238 A 
ATOM     11  O   LIG A   1      -9.989   5.171 133.130  0.00  0.00    -0.283 OA
ENDROOT
BRANCH   2  12
ATOM     12  C   LIG A   1      -5.660   6.323 131.127  0.00  0.00    +0.066 A 
ATOM     13  C   LIG A   1      -4.875   6.900 132.141  0.00  0.00    +0.019 A 
ATOM     14  C   LIG A   1      -3.471   6.974 132.038  0.00  0.00    +0.050 A 
ATOM     15  C   LIG A   1      -2.817   6.489 130.908  0.00  0.00    +0.165 A 
ATOM     16  C   LIG A   1      -3.594   5.940 129.888  0.00  0.00    +0.202 A 
ATOM     17  C   LIG A   1      -4.990   5.848 129.994  0.00  0.00    +0.173 A 
BRANCH  15  18
ATOM     18  O   LIG A   1      -1.462   6.504 130.687  0.00  0.00    -0.491 OA
ATOM     19  C   LIG A   1      -0.638   6.594 131.848  0.00  0.00    +0.277 C 
ENDBRANCH  15  18
BRANCH  16  20
ATOM     20  O   LIG A   1      -3.007   5.481 128.731  0.00  0.00    -0.501 OA
ATOM     21  H   LIG A   1      -2.052   5.424 128.937  0.00  0.00    +0.292 HD
ENDBRANCH  16  20
BRANCH  17  22
ATOM     22  O   LIG A   1      -5.674   5.289 128.945  0.00  0.00    -0.503 OA
ATOM     23  H   LIG A   1      -5.385   5.811 128.168  0.00  0.00    +0.292 HD
ENDBRANCH  17  22
ENDBRANCH   2  12
BRANCH   1  25
ATOM     24  C   LIG A   1      -6.944   3.489 132.926  0.00  0.00    +0.277 C 
ATOM     25  O   LIG A   1      -7.079   4.885 133.197  0.00  0.00    -0.488 OA
ENDBRANCH   1  25
BRANCH   6  26
ATOM     26  O   LIG A   1     -12.177   6.050 132.088  0.00  0.00    -0.506 OA
ATOM     27  H   LIG A   1     -12.628   5.298 131.641  0.00  0.00    +0.292 HD
ENDBRANCH   6  26
BRANCH   8  28
ATOM     28  O   LIG A   1     -11.792   8.765 128.289  0.00  0.00    -0.495 OA
ATOM     29  C   LIG A   1     -13.128   9.119 128.632  0.00  0.00    +0.277 C 
ENDBRANCH   8  28
TORSDOF 7
ENDMDL
MODEL 2
REMARK VINA RESULT:      -7.0      2.663      4.402
REMARK  Name = NuBBE_1872
REMARK  10 active torsions:
REMARK  status: ('A' for Active; 'I' for Inactive)
REMARK    1  A    between atoms: C_1  and  O_2
REMARK    2  A    between atoms: O_2  and  C_3
REMARK    3  A    between atoms: C_4  and  C_5
REMARK    4  A    between atoms: C_8  and  O_9
REMARK    5  A    between atoms: O_9  and  C_10
REMARK    6  A    between atoms: C_11  and  O_12
REMARK    7  A    between atoms: C_13  and  O_14
REMARK    8  A    between atoms: C_18  and  O_19
REMARK    9  A    between atoms: C_21  and  O_22
REMARK   10  A    between atoms: O_22  and  C_23
REMARK                            x       y       z     vdW  Elec       q    Type
REMARK                         _______ _______ _______ _____ _____    ______ ____
ROOT
ATOM      1  C   LIG A   1      -8.553   5.776 129.333  0.00  0.00    +0.211 A 
ATOM      2  C   LIG A   1      -8.907   6.334 130.517  0.00  0.00    +0.184 A 
ATOM      3  O   LIG A   1      -9.986   7.189 130.689  0.00  0.00    -0.451 OA
ATOM      4  C   LIG A   1     -10.760   7.509 129.606  0.00  0.00    +0.146 A 
ATOM      5  C   LIG A   1     -10.531   7.009 128.331  0.00  0.00    +0.109 A 
ATOM      6  C   LIG A   1     -11.375   7.378 127.272  0.00  0.00    +0.135 A 
ATOM      7  C   LIG A   1     -12.435   8.251 127.489  0.00  0.00    +0.092 A 
ATOM      8  C   LIG A   1     -12.672   8.747 128.771  0.00  0.00    +0.127 A 
ATOM      9  C   LIG A   1     -11.828   8.380 129.825  0.00  0.00    +0.092 A 
ATOM     10  C   LIG A   1      -9.407   6.097 128.147  0.00  0.00    +0.238 A 
ATOM     11  O   LIG A   1      -9.231   5.625 127.015  0.00  0.00    -0.283 OA
ENDROOT
BRANCH   2  12
ATOM     12  C   LIG A   1      -8.187   6.076 131.789  0.00  0.00    +0.066 A 
ATOM     13  C   LIG A   1      -6.800   6.291 131.866  0.00  0.00    +0.019 A 
ATOM     14  C   LIG A   1      -6.076   6.033 133.048  0.00  0.00    +0.050 A 
ATOM     15  C   LIG A   1      -6.719   5.534 134.178  0.00  0.00    +0.165 A 
ATOM     16  C   LIG A   1      -8.091   5.295 134.097  0.00  0.00    +0.202 A 
ATOM     17  C   LIG A   1      -8.818   5.567 132.929  0.00  0.00    +0.173 A 
BRANCH  15  18
ATOM     18  O   LIG A   1      -6.130   5.242 135.382  0.00  0.00    -0.491 OA
ATOM     19  C   LIG A   1      -5.652   6.355 136.135  0.00  0.00    +0.277 C 
ENDBRANCH  15  18
BRANCH  16  20
ATOM     20  O   LIG A   1      -8.773   4.765 135.169  0.00  0.00    -0.501 OA
ATOM     21  H   LIG A   1      -9.462   4.194 134.772  0.00  0.00    +0.292 HD
ENDBRANCH  16  20
BRANCH  17  22
ATOM     22  O   LIG A   1     -10.164   5.305 132.940  0.00  0.00    -0.503 OA
ATOM     23  H   LIG A   1     -10.296   4.775 133.753  0.00  0.00    +0.292 HD
ENDBRANCH  17  22
ENDBRANCH   2  12
BRANCH   1  25
ATOM     24  C   LIG A   1      -7.824   3.516 129.264  0.00  0.00    +0.277 C 
ATOM     25  O   LIG A   1      -7.478   4.902 129.242  0.00  0.00    -0.488 OA
ENDBRANCH   1  25
BRANCH   6  26
ATOM     26  O   LIG A   1     -11.218   6.909 125.993  0.00  0.00    -0.506 OA
ATOM     27  H   LIG A   1     -12.102   6.632 125.661  0.00  0.00    +0.292 HD
ENDBRANCH   6  26
BRANCH   8  28
ATOM     28  O   LIG A   1     -13.731   9.607 128.885  0.00  0.00    -0.495 OA
ATOM     29  C   LIG A   1     -13.476  10.780 129.650  0.00  0.00    +0.277 C 
ENDBRANCH   8  28
TORSDOF 7
ENDMDL
MODEL 3
REMARK VINA RESULT:      -6.9      3.652      7.264
REMARK  Name = NuBBE_1872
REMARK  10 active torsions:
REMARK  status: ('A' for Active; 'I' for Inactive)
REMARK    1  A    between atoms: C_1  and  O_2
REMARK    2  A    between atoms: O_2  and  C_3
REMARK    3  A    between atoms: C_4  and  C_5
REMARK    4  A    between atoms: C_8  and  O_9
REMARK    5  A    between atoms: O_9  and  C_10
REMARK    6  A    between atoms: C_11  and  O_12
REMARK    7  A    between atoms: C_13  and  O_14
REMARK    8  A    between atoms: C_18  and  O_19
REMARK    9  A    between atoms: C_21  and  O_22
REMARK   10  A    between atoms: O_22  and  C_23
REMARK                            x       y       z     vdW  Elec       q    Type
REMARK                         _______ _______ _______ _____ _____    ______ ____
ROOT
ATOM      1  C   LIG A   1      -9.253   4.420 131.517  0.00  0.00    +0.211 A 
ATOM      2  C   LIG A   1      -9.623   5.652 131.946  0.00  0.00    +0.184 A 
ATOM      3  O   LIG A   1      -9.168   6.244 133.116  0.00  0.00    -0.451 OA
ATOM      4  C   LIG A   1      -8.289   5.557 133.910  0.00  0.00    +0.146 A 
ATOM      5  C   LIG A   1      -7.809   4.293 133.600  0.00  0.00    +0.109 A 
ATOM      6  C   LIG A   1      -6.902   3.656 134.461  0.00  0.00    +0.135 A 
ATOM      7  C   LIG A   1      -6.488   4.281 135.631  0.00  0.00    +0.092 A 
ATOM      8  C   LIG A   1      -6.961   5.557 135.940  0.00  0.00    +0.127 A 
ATOM      9  C   LIG A   1      -7.867   6.188 135.081  0.00  0.00    +0.092 A 
ATOM     10  C   LIG A   1      -8.271   3.671 132.362  0.00  0.00    +0.238 A 
ATOM     11  O   LIG A   1      -7.811   2.558 132.072  0.00  0.00    -0.283 OA
ENDROOT
BRANCH   2  12
ATOM     12  C   LIG A   1     -10.551   6.533 131.195  0.00  0.00    +0.066 A 
ATOM     13  C   LIG A   1     -11.914   6.571 131.538  0.00  0.00    +0.019 A 
ATOM     14  C   LIG A   1     -12.832   7.375 130.832  0.00  0.00    +0.050 A 
ATOM     15  C   LIG A   1     -12.413   8.149 129.752  0.00  0.00    +0.165 A 
ATOM     16  C   LIG A   1     -11.066   8.094 129.393  0.00  0.00    +0.202 A 
ATOM     17  C   LIG A   1     -10.145   7.309 130.104  0.00  0.00    +0.173 A 
BRANCH  15  18
ATOM     18  O   LIG A   1     -13.204   8.968 128.987  0.00  0.00    -0.491 OA
ATOM     19  C   LIG A   1     -13.406  10.289 129.483  0.00  0.00    +0.277 C 
ENDBRANCH  15  18
BRANCH  16  20
ATOM     20  O   LIG A   1     -10.601   8.805 128.310  0.00  0.00    -0.501 OA
ATOM     21  H   LIG A   1     -10.609   8.168 127.567  0.00  0.00    +0.292 HD
ENDBRANCH  16  20
BRANCH  17  22
ATOM     22  O   LIG A   1      -8.840   7.318 129.683  0.00  0.00    -0.503 OA
ATOM     23  H   LIG A   1      -8.354   7.731 130.428  0.00  0.00    +0.292 HD
ENDBRANCH  17  22
ENDBRANCH   2  12
BRANCH   1  25
ATOM     24  C   LIG A   1      -8.765   3.870 129.257  0.00  0.00    +0.277 C 
ATOM     25  O   LIG A   1      -9.724   3.904 130.317  0.00  0.00    -0.488 OA
ENDBRANCH   1  25
BRANCH   6  26
ATOM     26  O   LIG A   1      -6.375   2.415 134.209  0.00  0.00    -0.506 OA
ATOM     27  H   LIG A   1      -6.266   1.951 135.069  0.00  0.00    +0.292 HD
ENDBRANCH   6  26
BRANCH   8  28
ATOM     28  O   LIG A   1      -6.505   6.087 137.116  0.00  0.00    -0.495 OA
ATOM     29  C   LIG A   1      -7.517   6.576 137.990  0.00  0.00    +0.277 C 
ENDBRANCH   8  28
TORSDOF 7
ENDMDL
MODEL 4
REMARK VINA RESULT:      -6.8      8.200      9.569
REMARK  Name = NuBBE_1872
REMARK  10 active torsions:
REMARK  status: ('A' for Active; 'I' for Inactive)
REMARK    1  A    between atoms: C_1  and  O_2
REMARK    2  A    between atoms: O_2  and  C_3
REMARK    3  A    between atoms: C_4  and  C_5
REMARK    4  A    between atoms: C_8  and  O_9
REMARK    5  A    between atoms: O_9  and  C_10
REMARK    6  A    between atoms: C_11  and  O_12
REMARK    7  A    between atoms: C_13  and  O_14
REMARK    8  A    between atoms: C_18  and  O_19
REMARK    9  A    between atoms: C_21  and  O_22
REMARK   10  A    between atoms: O_22  and  C_23
REMARK                            x       y       z     vdW  Elec       q    Type
REMARK                         _______ _______ _______ _____ _____    ______ ____
ROOT
ATOM      1  C   LIG A   1      -8.371  -2.307 125.632  0.00  0.00    +0.211 A 
ATOM      2  C   LIG A   1      -7.709  -1.619 126.595  0.00  0.00    +0.184 A 
ATOM      3  O   LIG A   1      -7.643  -0.236 126.664  0.00  0.00    -0.451 OA
ATOM      4  C   LIG A   1      -8.275   0.509 125.705  0.00  0.00    +0.146 A 
ATOM      5  C   LIG A   1      -9.001  -0.049 124.662  0.00  0.00    +0.109 A 
ATOM      6  C   LIG A   1      -9.629   0.781 123.721  0.00  0.00    +0.135 A 
ATOM      7  C   LIG A   1      -9.520   2.164 123.821  0.00  0.00    +0.092 A 
ATOM      8  C   LIG A   1      -8.799   2.727 124.874  0.00  0.00    +0.127 A 
ATOM      9  C   LIG A   1      -8.171   1.897 125.809  0.00  0.00    +0.092 A 
ATOM     10  C   LIG A   1      -9.089  -1.505 124.593  0.00  0.00    +0.238 A 
ATOM     11  O   LIG A   1      -9.769  -1.996 123.682  0.00  0.00    -0.283 OA
ENDROOT
BRANCH   2  12
ATOM     12  C   LIG A   1      -6.990  -2.273 127.716  0.00  0.00    +0.066 A 
ATOM     13  C   LIG A   1      -7.686  -3.111 128.604  0.00  0.00    +0.019 A 
ATOM     14  C   LIG A   1      -7.044  -3.729 129.697  0.00  0.00    +0.050 A 
ATOM     15  C   LIG A   1      -5.690  -3.509 129.940  0.00  0.00    +0.165 A 
ATOM     16  C   LIG A   1      -5.001  -2.657 129.076  0.00  0.00    +0.202 A 
ATOM     17  C   LIG A   1      -5.633  -2.054 127.977  0.00  0.00    +0.173 A 
BRANCH  15  18
ATOM     18  O   LIG A   1      -4.953  -4.048 130.964  0.00  0.00    -0.491 OA
ATOM     19  C   LIG A   1      -5.610  -4.147 132.226  0.00  0.00    +0.277 C 
ENDBRANCH  15  18
BRANCH  16  20
ATOM     20  O   LIG A   1      -3.672  -2.370 129.288  0.00  0.00    -0.501 OA
ATOM     21  H   LIG A   1      -3.199  -3.201 129.080  0.00  0.00    +0.292 HD
ENDBRANCH  16  20
BRANCH  17  22
ATOM     22  O   LIG A   1      -4.877  -1.235 127.178  0.00  0.00    -0.503 OA
ATOM     23  H   LIG A   1      -3.993  -1.657 127.174  0.00  0.00    +0.292 HD
ENDBRANCH  17  22
ENDBRANCH   2  12
BRANCH   1  25
ATOM     24  C   LIG A   1      -7.603  -4.340 124.669  0.00  0.00    +0.277 C 
ATOM     25  O   LIG A   1      -8.423  -3.695 125.645  0.00  0.00    -0.488 OA
ENDBRANCH   1  25
BRANCH   6  26
ATOM     26  O   LIG A   1     -10.376   0.299 122.677  0.00  0.00    -0.506 OA
ATOM     27  H   LIG A   1     -10.117  -0.639 122.527  0.00  0.00    +0.292 HD
ENDBRANCH   6  26
BRANCH   8  28
ATOM     28  O   LIG A   1      -8.739   4.094 124.883  0.00  0.00    -0.495 OA
ATOM     29  C   LIG A   1      -8.005   4.659 125.964  0.00  0.00    +0.277 C 
ENDBRANCH   8  28
TORSDOF 7
ENDMDL
MODEL 5
REMARK VINA RESULT:      -6.8      2.971      7.453
REMARK  Name = NuBBE_1872
REMARK  10 active torsions:
REMARK  status: ('A' for Active; 'I' for Inactive)
REMARK    1  A    between atoms: C_1  and  O_2
REMARK    2  A    between atoms: O_2  and  C_3
REMARK    3  A    between atoms: C_4  and  C_5
REMARK    4  A    between atoms: C_8  and  O_9
REMARK    5  A    between atoms: O_9  and  C_10
REMARK    6  A    between atoms: C_11  and  O_12
REMARK    7  A    between atoms: C_13  and  O_14
REMARK    8  A    between atoms: C_18  and  O_19
REMARK    9  A    between atoms: C_21  and  O_22
REMARK   10  A    between atoms: O_22  and  C_23
REMARK                            x       y       z     vdW  Elec       q    Type
REMARK                         _______ _______ _______ _____ _____    ______ ____
ROOT
ATOM      1  C   LIG A   1      -8.036   4.804 131.363  0.00  0.00    +0.211 A 
ATOM      2  C   LIG A   1      -8.838   5.749 131.912  0.00  0.00    +0.184 A 
ATOM      3  O   LIG A   1      -8.766   6.167 133.233  0.00  0.00    -0.451 OA
ATOM      4  C   LIG A   1      -7.833   5.601 134.059  0.00  0.00    +0.146 A 
ATOM      5  C   LIG A   1      -6.934   4.630 133.642  0.00  0.00    +0.109 A 
ATOM      6  C   LIG A   1      -6.000   4.102 134.547  0.00  0.00    +0.135 A 
ATOM      7  C   LIG A   1      -5.976   4.540 135.866  0.00  0.00    +0.092 A 
ATOM      8  C   LIG A   1      -6.873   5.524 136.286  0.00  0.00    +0.127 A 
ATOM      9  C   LIG A   1      -7.804   6.045 135.382  0.00  0.00    +0.092 A 
ATOM     10  C   LIG A   1      -6.994   4.196 132.249  0.00  0.00    +0.238 A 
ATOM     11  O   LIG A   1      -6.164   3.357 131.872  0.00  0.00    -0.283 OA
ENDROOT
BRANCH   2  12
ATOM     12  C   LIG A   1      -9.886   6.473 131.150  0.00  0.00    +0.066 A 
ATOM     13  C   LIG A   1      -9.542   7.190 129.991  0.00  0.00    +0.019 A 
ATOM     14  C   LIG A   1     -10.503   7.912 129.255  0.00  0.00    +0.050 A 
ATOM     15  C   LIG A   1     -11.832   7.950 129.671  0.00  0.00    +0.165 A 
ATOM     16  C   LIG A   1     -12.173   7.261 130.835  0.00  0.00    +0.202 A 
ATOM     17  C   LIG A   1     -11.223   6.526 131.560  0.00  0.00    +0.173 A 
BRANCH  15  18
ATOM     18  O   LIG A   1     -12.858   8.613 129.045  0.00  0.00    -0.491 OA
ATOM     19  C   LIG A   1     -13.429   7.963 127.911  0.00  0.00    +0.277 C 
ENDBRANCH  15  18
BRANCH  16  20
ATOM     20  O   LIG A   1     -13.462   7.294 131.316  0.00  0.00    -0.501 OA
ATOM     21  H   LIG A   1     -13.720   8.237 131.279  0.00  0.00    +0.292 HD
ENDBRANCH  16  20
BRANCH  17  22
ATOM     22  O   LIG A   1     -11.647   5.876 132.691  0.00  0.00    -0.503 OA
ATOM     23  H   LIG A   1     -11.053   5.098 132.754  0.00  0.00    +0.292 HD
ENDBRANCH  17  22
ENDBRANCH   2  12
BRANCH   1  25
ATOM     24  C   LIG A   1      -8.917   3.286 129.761  0.00  0.00    +0.277 C 
ATOM     25  O   LIG A   1      -8.143   4.459 130.022  0.00  0.00    -0.488 OA
ENDBRANCH   1  25
BRANCH   6  26
ATOM     26  O   LIG A   1      -5.073   3.154 134.199  0.00  0.00    -0.506 OA
ATOM     27  H   LIG A   1      -4.525   3.520 133.467  0.00  0.00    +0.292 HD
ENDBRANCH   6  26
BRANCH   8  28
ATOM     28  O   LIG A   1      -6.781   5.883 137.603  0.00  0.00    -0.495 OA
ATOM     29  C   LIG A   1      -7.899   6.602 138.112  0.00  0.00    +0.277 C 
ENDBRANCH   8  28
TORSDOF 7
ENDMDL
MODEL 6
REMARK VINA RESULT:      -6.7      4.417      5.439
REMARK  Name = NuBBE_1872
REMARK  10 active torsions:
REMARK  status: ('A' for Active; 'I' for Inactive)
REMARK    1  A    between atoms: C_1  and  O_2
REMARK    2  A    between atoms: O_2  and  C_3
REMARK    3  A    between atoms: C_4  and  C_5
REMARK    4  A    between atoms: C_8  and  O_9
REMARK    5  A    between atoms: O_9  and  C_10
REMARK    6  A    between atoms: C_11  and  O_12
REMARK    7  A    between atoms: C_13  and  O_14
REMARK    8  A    between atoms: C_18  and  O_19
REMARK    9  A    between atoms: C_21  and  O_22
REMARK   10  A    between atoms: O_22  and  C_23
REMARK                            x       y       z     vdW  Elec       q    Type
REMARK                         _______ _______ _______ _____ _____    ______ ____
ROOT
ATOM      1  C   LIG A   1      -7.722   3.375 128.507  0.00  0.00    +0.211 A 
ATOM      2  C   LIG A   1      -7.940   4.235 127.482  0.00  0.00    +0.184 A 
ATOM      3  O   LIG A   1      -8.768   5.345 127.553  0.00  0.00    -0.451 OA
ATOM      4  C   LIG A   1      -9.425   5.612 128.724  0.00  0.00    +0.146 A 
ATOM      5  C   LIG A   1      -9.296   4.831 129.865  0.00  0.00    +0.109 A 
ATOM      6  C   LIG A   1      -9.996   5.174 131.032  0.00  0.00    +0.135 A 
ATOM      7  C   LIG A   1     -10.828   6.287 131.051  0.00  0.00    +0.092 A 
ATOM      8  C   LIG A   1     -10.952   7.078 129.908  0.00  0.00    +0.127 A 
ATOM      9  C   LIG A   1     -10.255   6.733 128.746  0.00  0.00    +0.092 A 
ATOM     10  C   LIG A   1      -8.413   3.670 129.802  0.00  0.00    +0.238 A 
ATOM     11  O   LIG A   1      -8.273   2.999 130.834  0.00  0.00    -0.283 OA
ENDROOT
BRANCH   2  12
ATOM     12  C   LIG A   1      -7.292   4.102 126.154  0.00  0.00    +0.066 A 
ATOM     13  C   LIG A   1      -5.928   4.404 126.005  0.00  0.00    +0.019 A 
ATOM     14  C   LIG A   1      -5.282   4.315 124.755  0.00  0.00    +0.050 A 
ATOM     15  C   LIG A   1      -5.991   3.938 123.616  0.00  0.00    +0.165 A 
ATOM     16  C   LIG A   1      -7.351   3.662 123.755  0.00  0.00    +0.202 A 
ATOM     17  C   LIG A   1      -7.993   3.732 125.001  0.00  0.00    +0.173 A 
BRANCH  15  18
ATOM     18  O   LIG A   1      -5.481   3.815 122.348  0.00  0.00    -0.491 OA
ATOM     19  C   LIG A   1      -4.558   4.824 121.941  0.00  0.00    +0.277 C 
ENDBRANCH  15  18
BRANCH  16  20
ATOM     20  O   LIG A   1      -8.112   3.323 122.659  0.00  0.00    -0.501 OA
ATOM     21  H   LIG A   1      -8.554   2.486 122.909  0.00  0.00    +0.292 HD
ENDBRANCH  16  20
BRANCH  17  22
ATOM     22  O   LIG A   1      -9.332   3.440 125.045  0.00  0.00    -0.503 OA
ATOM     23  H   LIG A   1      -9.719   4.174 125.566  0.00  0.00    +0.292 HD
ENDBRANCH  17  22
ENDBRANCH   2  12
BRANCH   1  25
ATOM     24  C   LIG A   1      -5.592   2.460 129.031  0.00  0.00    +0.277 C 
ATOM     25  O   LIG A   1      -6.852   2.301 128.375  0.00  0.00    -0.488 OA
ENDBRANCH   1  25
BRANCH   6  26
ATOM     26  O   LIG A   1      -9.902   4.458 132.198  0.00  0.00    -0.506 OA
ATOM     27  H   LIG A   1      -9.153   4.826 132.720  0.00  0.00    +0.292 HD
ENDBRANCH   6  26
BRANCH   8  28
ATOM     28  O   LIG A   1     -11.801   8.146 130.019  0.00  0.00    -0.495 OA
ATOM     29  C   LIG A   1     -12.117   8.796 128.793  0.00  0.00    +0.277 C 
ENDBRANCH   8  28
TORSDOF 7
ENDMDL
MODEL 7
REMARK VINA RESULT:      -6.7      2.801      3.306
REMARK  Name = NuBBE_1872
REMARK  10 active torsions:
REMARK  status: ('A' for Active; 'I' for Inactive)
REMARK    1  A    between atoms: C_1  and  O_2
REMARK    2  A    between atoms: O_2  and  C_3
REMARK    3  A    between atoms: C_4  and  C_5
REMARK    4  A    between atoms: C_8  and  O_9
REMARK    5  A    between atoms: O_9  and  C_10
REMARK    6  A    between atoms: C_11  and  O_12
REMARK    7  A    between atoms: C_13  and  O_14
REMARK    8  A    between atoms: C_18  and  O_19
REMARK    9  A    between atoms: C_21  and  O_22
REMARK   10  A    between atoms: O_22  and  C_23
REMARK                            x       y       z     vdW  Elec       q    Type
REMARK                         _______ _______ _______ _____ _____    ______ ____
ROOT
ATOM      1  C   LIG A   1      -8.412   4.154 130.502  0.00  0.00    +0.211 A 
ATOM      2  C   LIG A   1      -8.052   4.652 129.293  0.00  0.00    +0.184 A 
ATOM      3  O   LIG A   1      -8.728   5.665 128.630  0.00  0.00    -0.451 OA
ATOM      4  C   LIG A   1      -9.840   6.214 129.211  0.00  0.00    +0.146 A 
ATOM      5  C   LIG A   1     -10.326   5.819 130.450  0.00  0.00    +0.109 A 
ATOM      6  C   LIG A   1     -11.467   6.436 130.984  0.00  0.00    +0.135 A 
ATOM      7  C   LIG A   1     -12.123   7.436 130.275  0.00  0.00    +0.092 A 
ATOM      8  C   LIG A   1     -11.630   7.841 129.034  0.00  0.00    +0.127 A 
ATOM      9  C   LIG A   1     -10.494   7.223 128.503  0.00  0.00    +0.092 A 
ATOM     10  C   LIG A   1      -9.609   4.764 131.161  0.00  0.00    +0.238 A 
ATOM     11  O   LIG A   1     -10.026   4.442 132.282  0.00  0.00    -0.283 OA
ENDROOT
BRANCH   2  12
ATOM     12  C   LIG A   1      -6.864   4.182 128.538  0.00  0.00    +0.066 A 
ATOM     13  C   LIG A   1      -5.573   4.503 128.991  0.00  0.00    +0.019 A 
ATOM     14  C   LIG A   1      -4.420   4.097 128.288  0.00  0.00    +0.050 A 
ATOM     15  C   LIG A   1      -4.531   3.375 127.101  0.00  0.00    +0.165 A 
ATOM     16  C   LIG A   1      -5.811   3.077 126.635  0.00  0.00    +0.202 A 
ATOM     17  C   LIG A   1      -6.960   3.463 127.341  0.00  0.00    +0.173 A 
BRANCH  15  18
ATOM     18  O   LIG A   1      -3.491   2.925 126.327  0.00  0.00    -0.491 OA
ATOM     19  C   LIG A   1      -2.179   3.184 126.824  0.00  0.00    +0.277 C 
ENDBRANCH  15  18
BRANCH  16  20
ATOM     20  O   LIG A   1      -5.984   2.401 125.449  0.00  0.00    -0.501 OA
ATOM     21  H   LIG A   1      -5.692   3.028 124.757  0.00  0.00    +0.292 HD
ENDBRANCH  16  20
BRANCH  17  22
ATOM     22  O   LIG A   1      -8.179   3.124 126.811  0.00  0.00    -0.503 OA
ATOM     23  H   LIG A   1      -8.029   3.141 125.843  0.00  0.00    +0.292 HD
ENDBRANCH  17  22
ENDBRANCH   2  12
BRANCH   1  25
ATOM     24  C   LIG A   1      -8.163   1.832 130.944  0.00  0.00    +0.277 C 
ATOM     25  O   LIG A   1      -7.666   3.160 131.123  0.00  0.00    -0.488 OA
ENDBRANCH   1  25
BRANCH   6  26
ATOM     26  O   LIG A   1     -11.992   6.108 132.209  0.00  0.00    -0.506 OA
ATOM     27  H   LIG A   1     -11.350   6.389 132.899  0.00  0.00    +0.292 HD
ENDBRANCH   6  26
BRANCH   8  28
ATOM     28  O   LIG A   1     -12.347   8.824 128.407  0.00  0.00    -0.495 OA
ATOM     29  C   LIG A   1     -13.032   9.719 129.277  0.00  0.00    +0.277 C 
ENDBRANCH   8  28
TORSDOF 7
ENDMDL
MODEL 8
REMARK VINA RESULT:      -6.7      1.643      7.133
REMARK  Name = NuBBE_1872
REMARK  10 active torsions:
REMARK  status: ('A' for Active; 'I' for Inactive)
REMARK    1  A    between atoms: C_1  and  O_2
REMARK    2  A    between atoms: O_2  and  C_3
REMARK    3  A    between atoms: C_4  and  C_5
REMARK    4  A    between atoms: C_8  and  O_9
REMARK    5  A    between atoms: O_9  and  C_10
REMARK    6  A    between atoms: C_11  and  O_12
REMARK    7  A    between atoms: C_13  and  O_14
REMARK    8  A    between atoms: C_18  and  O_19
REMARK    9  A    between atoms: C_21  and  O_22
REMARK   10  A    between atoms: O_22  and  C_23
REMARK                            x       y       z     vdW  Elec       q    Type
REMARK                         _______ _______ _______ _____ _____    ______ ____
ROOT
ATOM      1  C   LIG A   1      -8.920   4.946 131.442  0.00  0.00    +0.211 A 
ATOM      2  C   LIG A   1      -8.901   6.111 130.750  0.00  0.00    +0.184 A 
ATOM      3  O   LIG A   1      -7.770   6.893 130.564  0.00  0.00    -0.451 OA
ATOM      4  C   LIG A   1      -6.582   6.485 131.108  0.00  0.00    +0.146 A 
ATOM      5  C   LIG A   1      -6.440   5.311 131.834  0.00  0.00    +0.109 A 
ATOM      6  C   LIG A   1      -5.186   4.956 132.354  0.00  0.00    +0.135 A 
ATOM      7  C   LIG A   1      -4.084   5.780 132.156  0.00  0.00    +0.092 A 
ATOM      8  C   LIG A   1      -4.223   6.956 131.419  0.00  0.00    +0.127 A 
ATOM      9  C   LIG A   1      -5.475   7.309 130.904  0.00  0.00    +0.092 A 
ATOM     10  C   LIG A   1      -7.623   4.475 132.020  0.00  0.00    +0.238 A 
ATOM     11  O   LIG A   1      -7.481   3.409 132.636  0.00  0.00    -0.283 OA
ENDROOT
BRANCH   2  12
ATOM     12  C   LIG A   1     -10.096   6.684 130.082  0.00  0.00    +0.066 A 
ATOM     13  C   LIG A   1     -11.109   7.284 130.850  0.00  0.00    +0.019 A 
ATOM     14  C   LIG A   1     -12.271   7.815 130.255  0.00  0.00    +0.050 A 
ATOM     15  C   LIG A   1     -12.459   7.743 128.876  0.00  0.00    +0.165 A 
ATOM     16  C   LIG A   1     -11.468   7.125 128.114  0.00  0.00    +0.202 A 
ATOM     17  C   LIG A   1     -10.301   6.611 128.700  0.00  0.00    +0.173 A 
BRANCH  15  18
ATOM     18  O   LIG A   1     -13.541   8.219 128.180  0.00  0.00    -0.491 OA
ATOM     19  C   LIG A   1     -13.792   9.619 128.289  0.00  0.00    +0.277 C 
ENDBRANCH  15  18
BRANCH  16  20
ATOM     20  O   LIG A   1     -11.616   6.988 126.752  0.00  0.00    -0.501 OA
ATOM     21  H   LIG A   1     -11.275   7.825 126.377  0.00  0.00    +0.292 HD
ENDBRANCH  16  20
BRANCH  17  22
ATOM     22  O   LIG A   1      -9.378   6.023 127.873  0.00  0.00    -0.503 OA
ATOM     23  H   LIG A   1      -8.894   5.404 128.459  0.00  0.00    +0.292 HD
ENDBRANCH  17  22
ENDBRANCH   2  12
BRANCH   1  25
ATOM     24  C   LIG A   1     -10.272   3.210 130.544  0.00  0.00    +0.277 C 
ATOM     25  O   LIG A   1     -10.084   4.197 131.560  0.00  0.00    -0.488 OA
ENDBRANCH   1  25
BRANCH   6  26
ATOM     26  O   LIG A   1      -4.970   3.802 133.065  0.00  0.00    -0.506 OA
ATOM     27  H   LIG A   1      -5.266   3.045 132.511  0.00  0.00    +0.292 HD
ENDBRANCH   6  26
BRANCH   8  28
ATOM     28  O   LIG A   1      -3.086   7.706 131.286  0.00  0.00    -0.495 OA
ATOM     29  C   LIG A   1      -1.874   7.024 131.587  0.00  0.00    +0.277 C 
ENDBRANCH   8  28
TORSDOF 7
ENDMDL
MODEL 9
REMARK VINA RESULT:      -6.6      4.720      6.763
REMARK  Name = NuBBE_1872
REMARK  10 active torsions:
REMARK  status: ('A' for Active; 'I' for Inactive)
REMARK    1  A    between atoms: C_1  and  O_2
REMARK    2  A    between atoms: O_2  and  C_3
REMARK    3  A    between atoms: C_4  and  C_5
REMARK    4  A    between atoms: C_8  and  O_9
REMARK    5  A    between atoms: O_9  and  C_10
REMARK    6  A    between atoms: C_11  and  O_12
REMARK    7  A    between atoms: C_13  and  O_14
REMARK    8  A    between atoms: C_18  and  O_19
REMARK    9  A    between atoms: C_21  and  O_22
REMARK   10  A    between atoms: O_22  and  C_23
REMARK                            x       y       z     vdW  Elec       q    Type
REMARK                         _______ _______ _______ _____ _____    ______ ____
ROOT
ATOM      1  C   LIG A   1      -6.313   3.983 128.193  0.00  0.00    +0.211 A 
ATOM      2  C   LIG A   1      -7.592   3.794 127.783  0.00  0.00    +0.184 A 
ATOM      3  O   LIG A   1      -8.710   4.248 128.467  0.00  0.00    -0.451 OA
ATOM      4  C   LIG A   1      -8.539   4.933 129.640  0.00  0.00    +0.146 A 
ATOM      5  C   LIG A   1      -7.294   5.215 130.183  0.00  0.00    +0.109 A 
ATOM      6  C   LIG A   1      -7.200   5.931 131.387  0.00  0.00    +0.135 A 
ATOM      7  C   LIG A   1      -8.349   6.351 132.046  0.00  0.00    +0.092 A 
ATOM      8  C   LIG A   1      -9.602   6.077 131.496  0.00  0.00    +0.127 A 
ATOM      9  C   LIG A   1      -9.693   5.361 130.298  0.00  0.00    +0.092 A 
ATOM     10  C   LIG A   1      -6.112   4.754 129.460  0.00  0.00    +0.238 A 
ATOM     11  O   LIG A   1      -5.003   5.042 129.931  0.00  0.00    -0.283 OA
ENDROOT
BRANCH   2  12
ATOM     12  C   LIG A   1      -7.949   3.090 126.527  0.00  0.00    +0.066 A 
ATOM     13  C   LIG A   1      -8.127   1.695 126.530  0.00  0.00    +0.019 A 
ATOM     14  C   LIG A   1      -8.441   0.987 125.352  0.00  0.00    +0.050 A 
ATOM     15  C   LIG A   1      -8.568   1.654 124.135  0.00  0.00    +0.165 A 
ATOM     16  C   LIG A   1      -8.366   3.035 124.124  0.00  0.00    +0.202 A 
ATOM     17  C   LIG A   1      -8.071   3.746 125.297  0.00  0.00    +0.173 A 
BRANCH  15  18
ATOM     18  O   LIG A   1      -8.868   1.082 122.925  0.00  0.00    -0.491 OA
ATOM     19  C   LIG A   1     -10.227   0.695 122.732  0.00  0.00    +0.277 C 
ENDBRANCH  15  18
BRANCH  16  20
ATOM     20  O   LIG A   1      -8.439   3.742 122.946  0.00  0.00    -0.501 OA
ATOM     21  H   LIG A   1      -9.389   3.948 122.833  0.00  0.00    +0.292 HD
ENDBRANCH  16  20
BRANCH  17  22
ATOM     22  O   LIG A   1      -7.894   5.102 125.193  0.00  0.00    -0.503 OA
ATOM     23  H   LIG A   1      -8.609   5.478 125.748  0.00  0.00    +0.292 HD
ENDBRANCH  17  22
ENDBRANCH   2  12
BRANCH   1  25
ATOM     24  C   LIG A   1      -4.625   4.515 126.608  0.00  0.00    +0.277 C 
ATOM     25  O   LIG A   1      -5.240   3.528 127.439  0.00  0.00    -0.488 OA
ENDBRANCH   1  25
BRANCH   6  26
ATOM     26  O   LIG A   1      -6.003   6.259 131.971  0.00  0.00    -0.506 OA
ATOM     27  H   LIG A   1      -5.980   7.236 132.088  0.00  0.00    +0.292 HD
ENDBRANCH   6  26
BRANCH   8  28
ATOM     28  O   LIG A   1     -10.674   6.521 132.221  0.00  0.00    -0.495 OA
ATOM     29  C   LIG A   1     -11.912   6.539 131.519  0.00  0.00    +0.277 C 
ENDBRANCH   8  28
TORSDOF 7
ENDMDL
