MODEL 1
REMARK VINA RESULT:      -7.9      0.000      0.000
REMARK  Name = NuBBE_1577
REMARK  10 active torsions:
REMARK  status: ('A' for Active; 'I' for Inactive)
REMARK    1  A    between atoms: C_1  and  C_2
REMARK    2  A    between atoms: C_7  and  O_23
REMARK    3  A    between atoms: C_9  and  O_19
REMARK    4  A    between atoms: C_13  and  C_14
REMARK    5  A    between atoms: C_13  and  C_15
REMARK    6  A    between atoms: O_19  and  C_20
REMARK    7  A    between atoms: C_20  and  C_22
REMARK    8  A    between atoms: O_23  and  C_24
REMARK    9  A    between atoms: C_24  and  C_26
REMARK   10  A    between atoms: C_27  and  C_29
REMARK                            x       y       z     vdW  Elec       q    Type
REMARK                         _______ _______ _______ _____ _____    ______ ____
ROOT
ATOM      1  C   LIG A   1      -4.564   1.132 126.433  0.00  0.00    +0.012 C 
ATOM      2  C   LIG A   1      -5.975   0.558 126.808  0.00  0.00    -0.022 C 
ATOM      3  C   LIG A   1      -7.037   1.106 125.750  0.00  0.00    +0.010 C 
ATOM      4  C   LIG A   1      -7.062   0.243 124.450  0.00  0.00    +0.052 C 
ATOM      5  C   LIG A   1      -7.417  -1.213 124.761  0.00  0.00    +0.221 C 
ATOM      6  C   LIG A   1      -6.226  -1.835 125.529  0.00  0.00    +0.221 C 
ATOM      7  C   LIG A   1      -5.814  -1.058 126.842  0.00  0.00    +0.045 C 
ATOM      8  C   LIG A   1      -6.148  -1.839 128.187  0.00  0.00    -0.028 C 
ATOM      9  C   LIG A   1      -5.060  -2.928 128.418  0.00  0.00    +0.011 C 
ATOM     10  C   LIG A   1      -7.504  -2.577 128.190  0.00  0.00    +0.011 C 
ATOM     11  C   LIG A   1      -6.108  -0.913 129.416  0.00  0.00    +0.007 C 
ATOM     12  C   LIG A   1      -6.979   0.307 129.207  0.00  0.00    +0.001 C 
ATOM     13  C   LIG A   1      -6.316   1.209 128.191  0.00  0.00    +0.007 C 
ATOM     14  C   LIG A   1      -7.826   0.866 123.237  0.00  0.00    +0.092 C 
ATOM     15  C   LIG A   1      -7.115   2.140 122.946  0.00  0.00    +0.004 A 
ATOM     16  C   LIG A   1      -6.707   2.925 123.997  0.00  0.00    +0.109 A 
ATOM     17  C   LIG A   1      -6.911   2.660 125.447  0.00  0.00    +0.079 C 
ATOM     18  O   LIG A   1      -6.049   4.021 123.556  0.00  0.00    -0.468 OA
ATOM     19  C   LIG A   1      -6.035   3.924 122.194  0.00  0.00    +0.195 A 
ATOM     20  C   LIG A   1      -6.673   2.776 121.770  0.00  0.00    +0.045 A 
ENDROOT
BRANCH  14  21
ATOM     21  C   LIG A   1      -9.292   1.233 123.436  0.00  0.00    +0.232 C 
ATOM     22  O   LIG A   1     -10.252   0.533 123.119  0.00  0.00    -0.300 OA
ENDBRANCH  14  21
BRANCH   6  23
ATOM     23  O   LIG A   1      -5.041  -1.851 124.669  0.00  0.00    -0.458 OA
BRANCH  23  24
ATOM     24  C   LIG A   1      -5.042  -2.695 123.591  0.00  0.00    +0.304 C 
ATOM     25  O   LIG A   1      -5.404  -2.410 122.473  0.00  0.00    -0.251 OA
ATOM     26  C   LIG A   1      -4.541  -4.047 123.998  0.00  0.00    +0.136 C 
ENDBRANCH  23  24
ENDBRANCH   6  23
BRANCH   5  27
ATOM     27  O   LIG A   1      -8.631  -1.350 125.515  0.00  0.00    -0.458 OA
BRANCH  27  28
ATOM     28  C   LIG A   1      -9.401  -2.425 125.185  0.00  0.00    +0.304 C 
ATOM     29  O   LIG A   1     -10.166  -3.004 125.950  0.00  0.00    -0.251 OA
ATOM     30  C   LIG A   1      -9.207  -2.838 123.761  0.00  0.00    +0.136 C 
ENDBRANCH  27  28
ENDBRANCH   5  27
TORSDOF 5
ENDMDL
MODEL 2
REMARK VINA RESULT:      -7.7      1.833      3.729
REMARK  Name = NuBBE_1577
REMARK  10 active torsions:
REMARK  status: ('A' for Active; 'I' for Inactive)
REMARK    1  A    between atoms: C_1  and  C_2
REMARK    2  A    between atoms: C_7  and  O_23
REMARK    3  A    between atoms: C_9  and  O_19
REMARK    4  A    between atoms: C_13  and  C_14
REMARK    5  A    between atoms: C_13  and  C_15
REMARK    6  A    between atoms: O_19  and  C_20
REMARK    7  A    between atoms: C_20  and  C_22
REMARK    8  A    between atoms: O_23  and  C_24
REMARK    9  A    between atoms: C_24  and  C_26
REMARK   10  A    between atoms: C_27  and  C_29
REMARK                            x       y       z     vdW  Elec       q    Type
REMARK                         _______ _______ _______ _____ _____    ______ ____
ROOT
ATOM      1  C   LIG A   1      -5.121  -1.957 127.527  0.00  0.00    +0.012 C 
ATOM      2  C   LIG A   1      -6.639  -1.574 127.427  0.00  0.00    -0.022 C 
ATOM      3  C   LIG A   1      -6.768   0.010 127.564  0.00  0.00    +0.010 C 
ATOM      4  C   LIG A   1      -6.524   0.734 126.203  0.00  0.00    +0.052 C 
ATOM      5  C   LIG A   1      -7.527   0.272 125.145  0.00  0.00    +0.221 C 
ATOM      6  C   LIG A   1      -7.190  -1.196 124.786  0.00  0.00    +0.221 C 
ATOM      7  C   LIG A   1      -7.168  -2.185 126.018  0.00  0.00    +0.045 C 
ATOM      8  C   LIG A   1      -8.370  -3.228 126.031  0.00  0.00    -0.028 C 
ATOM      9  C   LIG A   1      -8.049  -4.375 125.028  0.00  0.00    +0.011 C 
ATOM     10  C   LIG A   1      -9.736  -2.651 125.603  0.00  0.00    +0.011 C 
ATOM     11  C   LIG A   1      -8.543  -3.889 127.411  0.00  0.00    +0.007 C 
ATOM     12  C   LIG A   1      -8.651  -2.847 128.503  0.00  0.00    +0.001 C 
ATOM     13  C   LIG A   1      -7.295  -2.208 128.700  0.00  0.00    +0.007 C 
ATOM     14  C   LIG A   1      -6.316   2.281 126.286  0.00  0.00    +0.092 C 
ATOM     15  C   LIG A   1      -5.113   2.463 127.142  0.00  0.00    +0.004 A 
ATOM     16  C   LIG A   1      -4.969   1.675 128.258  0.00  0.00    +0.109 A 
ATOM     17  C   LIG A   1      -5.911   0.633 128.747  0.00  0.00    +0.079 C 
ATOM     18  O   LIG A   1      -3.808   1.947 128.896  0.00  0.00    -0.468 OA
ATOM     19  C   LIG A   1      -3.200   2.926 128.164  0.00  0.00    +0.195 A 
ATOM     20  C   LIG A   1      -3.962   3.273 127.067  0.00  0.00    +0.045 A 
ENDROOT
BRANCH  14  21
ATOM     21  C   LIG A   1      -7.422   3.112 126.926  0.00  0.00    +0.232 C 
ATOM     22  O   LIG A   1      -8.253   3.784 126.316  0.00  0.00    -0.300 OA
ENDBRANCH  14  21
BRANCH   6  23
ATOM     23  O   LIG A   1      -5.859  -1.260 124.179  0.00  0.00    -0.458 OA
BRANCH  23  24
ATOM     24  C   LIG A   1      -5.664  -2.142 123.151  0.00  0.00    +0.304 C 
ATOM     25  O   LIG A   1      -6.174  -2.073 122.057  0.00  0.00    -0.251 OA
ATOM     26  C   LIG A   1      -4.728  -3.231 123.580  0.00  0.00    +0.136 C 
ENDBRANCH  23  24
ENDBRANCH   6  23
BRANCH   5  27
ATOM     27  O   LIG A   1      -8.893   0.385 125.572  0.00  0.00    -0.458 OA
BRANCH  27  28
ATOM     28  C   LIG A   1      -9.732   0.989 124.682  0.00  0.00    +0.304 C 
ATOM     29  O   LIG A   1     -10.956   0.910 124.703  0.00  0.00    -0.251 OA
ATOM     30  C   LIG A   1      -8.985   1.771 123.648  0.00  0.00    +0.136 C 
ENDBRANCH  27  28
ENDBRANCH   5  27
TORSDOF 5
ENDMDL
MODEL 3
REMARK VINA RESULT:      -7.6      1.819      2.726
REMARK  Name = NuBBE_1577
REMARK  10 active torsions:
REMARK  status: ('A' for Active; 'I' for Inactive)
REMARK    1  A    between atoms: C_1  and  C_2
REMARK    2  A    between atoms: C_7  and  O_23
REMARK    3  A    between atoms: C_9  and  O_19
REMARK    4  A    between atoms: C_13  and  C_14
REMARK    5  A    between atoms: C_13  and  C_15
REMARK    6  A    between atoms: O_19  and  C_20
REMARK    7  A    between atoms: C_20  and  C_22
REMARK    8  A    between atoms: O_23  and  C_24
REMARK    9  A    between atoms: C_24  and  C_26
REMARK   10  A    between atoms: C_27  and  C_29
REMARK                            x       y       z     vdW  Elec       q    Type
REMARK                         _______ _______ _______ _____ _____    ______ ____
ROOT
ATOM      1  C   LIG A   1      -4.202   3.099 126.126  0.00  0.00    +0.012 C 
ATOM      2  C   LIG A   1      -5.737   3.046 126.443  0.00  0.00    -0.022 C 
ATOM      3  C   LIG A   1      -6.539   3.369 125.102  0.00  0.00    +0.010 C 
ATOM      4  C   LIG A   1      -6.709   2.102 124.206  0.00  0.00    +0.052 C 
ATOM      5  C   LIG A   1      -7.463   0.998 124.950  0.00  0.00    +0.221 C 
ATOM      6  C   LIG A   1      -6.538   0.469 126.073  0.00  0.00    +0.221 C 
ATOM      7  C   LIG A   1      -6.020   1.576 127.073  0.00  0.00    +0.045 C 
ATOM      8  C   LIG A   1      -6.642   1.470 128.534  0.00  0.00    -0.028 C 
ATOM      9  C   LIG A   1      -5.905   0.338 129.311  0.00  0.00    +0.011 C 
ATOM     10  C   LIG A   1      -8.143   1.114 128.577  0.00  0.00    +0.011 C 
ATOM     11  C   LIG A   1      -6.435   2.762 129.344  0.00  0.00    +0.007 C 
ATOM     12  C   LIG A   1      -6.929   3.969 128.578  0.00  0.00    +0.001 C 
ATOM     13  C   LIG A   1      -5.981   4.237 127.431  0.00  0.00    +0.007 C 
ATOM     14  C   LIG A   1      -7.195   2.366 122.744  0.00  0.00    +0.092 C 
ATOM     15  C   LIG A   1      -6.149   3.234 122.141  0.00  0.00    +0.004 A 
ATOM     16  C   LIG A   1      -5.615   4.250 122.897  0.00  0.00    +0.109 A 
ATOM     17  C   LIG A   1      -5.980   4.616 124.293  0.00  0.00    +0.079 C 
ATOM     18  O   LIG A   1      -4.658   4.914 122.210  0.00  0.00    -0.468 OA
ATOM     19  C   LIG A   1      -4.580   4.301 120.993  0.00  0.00    +0.195 A 
ATOM     20  C   LIG A   1      -5.474   3.253 120.905  0.00  0.00    +0.045 A 
ENDROOT
BRANCH  14  21
ATOM     21  C   LIG A   1      -8.518   3.100 122.558  0.00  0.00    +0.232 C 
ATOM     22  O   LIG A   1      -8.954   3.522 121.489  0.00  0.00    -0.300 OA
ENDBRANCH  14  21
BRANCH   6  23
ATOM     23  O   LIG A   1      -5.347  -0.143 125.480  0.00  0.00    -0.458 OA
BRANCH  23  24
ATOM     24  C   LIG A   1      -5.363  -1.493 125.256  0.00  0.00    +0.304 C 
ATOM     25  O   LIG A   1      -5.127  -2.036 124.202  0.00  0.00    -0.251 OA
ATOM     26  C   LIG A   1      -5.735  -2.217 126.514  0.00  0.00    +0.136 C 
ENDBRANCH  23  24
ENDBRANCH   6  23
BRANCH   5  27
ATOM     27  O   LIG A   1      -8.717   1.438 125.496  0.00  0.00    -0.458 OA
BRANCH  27  28
ATOM     28  C   LIG A   1      -9.787   0.645 125.204  0.00  0.00    +0.304 C 
ATOM     29  O   LIG A   1      -9.980  -0.476 125.666  0.00  0.00    -0.251 OA
ATOM     30  C   LIG A   1     -10.720   1.297 124.234  0.00  0.00    +0.136 C 
ENDBRANCH  27  28
ENDBRANCH   5  27
TORSDOF 5
ENDMDL
MODEL 4
REMARK VINA RESULT:      -7.0      5.689      8.110
REMARK  Name = NuBBE_1577
REMARK  10 active torsions:
REMARK  status: ('A' for Active; 'I' for Inactive)
REMARK    1  A    between atoms: C_1  and  C_2
REMARK    2  A    between atoms: C_7  and  O_23
REMARK    3  A    between atoms: C_9  and  O_19
REMARK    4  A    between atoms: C_13  and  C_14
REMARK    5  A    between atoms: C_13  and  C_15
REMARK    6  A    between atoms: O_19  and  C_20
REMARK    7  A    between atoms: C_20  and  C_22
REMARK    8  A    between atoms: O_23  and  C_24
REMARK    9  A    between atoms: C_24  and  C_26
REMARK   10  A    between atoms: C_27  and  C_29
REMARK                            x       y       z     vdW  Elec       q    Type
REMARK                         _______ _______ _______ _____ _____    ______ ____
ROOT
ATOM      1  C   LIG A   1      -6.606   7.057 131.098  0.00  0.00    +0.012 C 
ATOM      2  C   LIG A   1      -6.243   5.691 131.779  0.00  0.00    -0.022 C 
ATOM      3  C   LIG A   1      -7.596   4.886 132.042  0.00  0.00    +0.010 C 
ATOM      4  C   LIG A   1      -8.061   4.100 130.777  0.00  0.00    +0.052 C 
ATOM      5  C   LIG A   1      -6.998   3.096 130.329  0.00  0.00    +0.221 C 
ATOM      6  C   LIG A   1      -5.794   3.899 129.777  0.00  0.00    +0.221 C 
ATOM      7  C   LIG A   1      -5.191   4.954 130.785  0.00  0.00    +0.045 C 
ATOM      8  C   LIG A   1      -3.749   4.569 131.337  0.00  0.00    -0.028 C 
ATOM      9  C   LIG A   1      -2.688   4.913 130.250  0.00  0.00    +0.011 C 
ATOM     10  C   LIG A   1      -3.557   3.075 131.668  0.00  0.00    +0.011 C 
ATOM     11  C   LIG A   1      -3.373   5.386 132.587  0.00  0.00    +0.007 C 
ATOM     12  C   LIG A   1      -4.455   5.293 133.642  0.00  0.00    +0.001 C 
ATOM     13  C   LIG A   1      -5.655   6.086 133.176  0.00  0.00    +0.007 C 
ATOM     14  C   LIG A   1      -9.520   3.541 130.825  0.00  0.00    +0.092 C 
ATOM     15  C   LIG A   1     -10.388   4.739 130.983  0.00  0.00    +0.004 A 
ATOM     16  C   LIG A   1      -9.989   5.736 131.842  0.00  0.00    +0.109 A 
ATOM     17  C   LIG A   1      -8.760   5.759 132.679  0.00  0.00    +0.079 C 
ATOM     18  O   LIG A   1     -10.872   6.760 131.837  0.00  0.00    -0.468 OA
ATOM     19  C   LIG A   1     -11.849   6.406 130.951  0.00  0.00    +0.195 A 
ATOM     20  C   LIG A   1     -11.591   5.171 130.392  0.00  0.00    +0.045 A 
ENDROOT
BRANCH  14  21
ATOM     21  C   LIG A   1      -9.882   2.600 131.968  0.00  0.00    +0.232 C 
ATOM     22  O   LIG A   1     -10.076   1.391 131.862  0.00  0.00    -0.300 OA
ENDBRANCH  14  21
BRANCH   6  23
ATOM     23  O   LIG A   1      -6.209   4.650 128.590  0.00  0.00    -0.458 OA
BRANCH  23  24
ATOM     24  C   LIG A   1      -5.433   4.555 127.466  0.00  0.00    +0.304 C 
ATOM     25  O   LIG A   1      -5.362   5.381 126.587  0.00  0.00    -0.251 OA
ATOM     26  C   LIG A   1      -4.685   3.257 127.469  0.00  0.00    +0.136 C 
ENDBRANCH  23  24
ENDBRANCH   6  23
BRANCH   5  27
ATOM     27  O   LIG A   1      -6.575   2.213 131.380  0.00  0.00    -0.458 OA
BRANCH  27  28
ATOM     28  C   LIG A   1      -6.551   0.890 131.052  0.00  0.00    +0.304 C 
ATOM     29  O   LIG A   1      -5.959   0.019 131.682  0.00  0.00    -0.251 OA
ATOM     30  C   LIG A   1      -7.334   0.605 129.810  0.00  0.00    +0.136 C 
ENDBRANCH  27  28
ENDBRANCH   5  27
TORSDOF 5
ENDMDL
MODEL 5
REMARK VINA RESULT:      -7.0      3.729      5.875
REMARK  Name = NuBBE_1577
REMARK  10 active torsions:
REMARK  status: ('A' for Active; 'I' for Inactive)
REMARK    1  A    between atoms: C_1  and  C_2
REMARK    2  A    between atoms: C_7  and  O_23
REMARK    3  A    between atoms: C_9  and  O_19
REMARK    4  A    between atoms: C_13  and  C_14
REMARK    5  A    between atoms: C_13  and  C_15
REMARK    6  A    between atoms: O_19  and  C_20
REMARK    7  A    between atoms: C_20  and  C_22
REMARK    8  A    between atoms: O_23  and  C_24
REMARK    9  A    between atoms: C_24  and  C_26
REMARK   10  A    between atoms: C_27  and  C_29
REMARK                            x       y       z     vdW  Elec       q    Type
REMARK                         _______ _______ _______ _____ _____    ______ ____
ROOT
ATOM      1  C   LIG A   1      -3.708   2.681 126.908  0.00  0.00    +0.012 C 
ATOM      2  C   LIG A   1      -4.354   3.857 127.721  0.00  0.00    -0.022 C 
ATOM      3  C   LIG A   1      -5.527   4.489 126.843  0.00  0.00    +0.010 C 
ATOM      4  C   LIG A   1      -6.861   3.692 126.991  0.00  0.00    +0.052 C 
ATOM      5  C   LIG A   1      -7.327   3.663 128.448  0.00  0.00    +0.221 C 
ATOM      6  C   LIG A   1      -6.338   2.775 129.242  0.00  0.00    +0.221 C 
ATOM      7  C   LIG A   1      -4.827   3.222 129.139  0.00  0.00    +0.045 C 
ATOM      8  C   LIG A   1      -4.237   3.825 130.489  0.00  0.00    -0.028 C 
ATOM      9  C   LIG A   1      -3.887   2.651 131.450  0.00  0.00    +0.011 C 
ATOM     10  C   LIG A   1      -5.202   4.745 131.266  0.00  0.00    +0.011 C 
ATOM     11  C   LIG A   1      -2.928   4.599 130.250  0.00  0.00    +0.007 C 
ATOM     12  C   LIG A   1      -3.102   5.639 129.164  0.00  0.00    +0.001 C 
ATOM     13  C   LIG A   1      -3.222   4.934 127.832  0.00  0.00    +0.007 C 
ATOM     14  C   LIG A   1      -7.972   4.030 125.946  0.00  0.00    +0.092 C 
ATOM     15  C   LIG A   1      -7.372   3.706 124.624  0.00  0.00    +0.004 A 
ATOM     16  C   LIG A   1      -6.062   4.050 124.391  0.00  0.00    +0.109 A 
ATOM     17  C   LIG A   1      -5.138   4.748 125.325  0.00  0.00    +0.079 C 
ATOM     18  O   LIG A   1      -5.669   3.652 123.159  0.00  0.00    -0.468 OA
ATOM     19  C   LIG A   1      -6.754   3.038 122.603  0.00  0.00    +0.195 A 
ATOM     20  C   LIG A   1      -7.827   3.038 123.471  0.00  0.00    +0.045 A 
ENDROOT
BRANCH  14  21
ATOM     21  C   LIG A   1      -8.445   5.476 125.856  0.00  0.00    +0.232 C 
ATOM     22  O   LIG A   1      -9.504   5.910 126.305  0.00  0.00    -0.300 OA
ENDBRANCH  14  21
BRANCH   6  23
ATOM     23  O   LIG A   1      -6.399   1.402 128.740  0.00  0.00    -0.458 OA
BRANCH  23  24
ATOM     24  C   LIG A   1      -7.583   0.725 128.863  0.00  0.00    +0.304 C 
ATOM     25  O   LIG A   1      -8.221   0.600 129.882  0.00  0.00    -0.251 OA
ATOM     26  C   LIG A   1      -7.977   0.137 127.542  0.00  0.00    +0.136 C 
ENDBRANCH  23  24
ENDBRANCH   6  23
BRANCH   5  27
ATOM     27  O   LIG A   1      -7.419   4.969 129.038  0.00  0.00    -0.458 OA
BRANCH  27  28
ATOM     28  C   LIG A   1      -8.602   5.244 129.658  0.00  0.00    +0.304 C 
ATOM     29  O   LIG A   1      -9.659   4.655 129.450  0.00  0.00    -0.251 OA
ATOM     30  C   LIG A   1      -8.476   6.369 130.635  0.00  0.00    +0.136 C 
ENDBRANCH  27  28
ENDBRANCH   5  27
TORSDOF 5
ENDMDL
MODEL 6
REMARK VINA RESULT:      -7.0      5.480      8.171
REMARK  Name = NuBBE_1577
REMARK  10 active torsions:
REMARK  status: ('A' for Active; 'I' for Inactive)
REMARK    1  A    between atoms: C_1  and  C_2
REMARK    2  A    between atoms: C_7  and  O_23
REMARK    3  A    between atoms: C_9  and  O_19
REMARK    4  A    between atoms: C_13  and  C_14
REMARK    5  A    between atoms: C_13  and  C_15
REMARK    6  A    between atoms: O_19  and  C_20
REMARK    7  A    between atoms: C_20  and  C_22
REMARK    8  A    between atoms: O_23  and  C_24
REMARK    9  A    between atoms: C_24  and  C_26
REMARK   10  A    between atoms: C_27  and  C_29
REMARK                            x       y       z     vdW  Elec       q    Type
REMARK                         _______ _______ _______ _____ _____    ______ ____
ROOT
ATOM      1  C   LIG A   1      -3.257   2.942 128.521  0.00  0.00    +0.012 C 
ATOM      2  C   LIG A   1      -3.824   4.389 128.736  0.00  0.00    -0.022 C 
ATOM      3  C   LIG A   1      -5.365   4.391 128.321  0.00  0.00    +0.010 C 
ATOM      4  C   LIG A   1      -6.282   3.890 129.480  0.00  0.00    +0.052 C 
ATOM      5  C   LIG A   1      -6.129   4.770 130.723  0.00  0.00    +0.221 C 
ATOM      6  C   LIG A   1      -4.717   4.520 131.306  0.00  0.00    +0.221 C 
ATOM      7  C   LIG A   1      -3.534   4.765 130.289  0.00  0.00    +0.045 C 
ATOM      8  C   LIG A   1      -2.650   6.047 130.620  0.00  0.00    -0.028 C 
ATOM      9  C   LIG A   1      -1.665   5.692 131.773  0.00  0.00    +0.011 C 
ATOM     10  C   LIG A   1      -3.447   7.279 131.098  0.00  0.00    +0.011 C 
ATOM     11  C   LIG A   1      -1.784   6.475 129.422  0.00  0.00    +0.007 C 
ATOM     12  C   LIG A   1      -2.626   6.642 128.175  0.00  0.00    +0.001 C 
ATOM     13  C   LIG A   1      -3.059   5.276 127.695  0.00  0.00    +0.007 C 
ATOM     14  C   LIG A   1      -7.756   3.555 129.083  0.00  0.00    +0.092 C 
ATOM     15  C   LIG A   1      -7.646   2.475 128.067  0.00  0.00    +0.004 A 
ATOM     16  C   LIG A   1      -6.664   2.565 127.109  0.00  0.00    +0.109 A 
ATOM     17  C   LIG A   1      -5.670   3.659 126.945  0.00  0.00    +0.079 C 
ATOM     18  O   LIG A   1      -6.685   1.487 126.292  0.00  0.00    -0.468 OA
ATOM     19  C   LIG A   1      -7.699   0.694 126.747  0.00  0.00    +0.195 A 
ATOM     20  C   LIG A   1      -8.317   1.257 127.845  0.00  0.00    +0.045 A 
ENDROOT
BRANCH  14  21
ATOM     21  C   LIG A   1      -8.586   4.661 128.441  0.00  0.00    +0.232 C 
ATOM     22  O   LIG A   1      -9.651   5.096 128.874  0.00  0.00    -0.300 OA
ENDBRANCH  14  21
BRANCH   6  23
ATOM     23  O   LIG A   1      -4.605   3.128 131.744  0.00  0.00    -0.458 OA
BRANCH  23  24
ATOM     24  C   LIG A   1      -4.286   2.890 133.054  0.00  0.00    +0.304 C 
ATOM     25  O   LIG A   1      -5.031   3.022 133.996  0.00  0.00    -0.251 OA
ATOM     26  C   LIG A   1      -2.857   2.452 133.162  0.00  0.00    +0.136 C 
ENDBRANCH  23  24
ENDBRANCH   6  23
BRANCH   5  27
ATOM     27  O   LIG A   1      -6.324   6.166 130.454  0.00  0.00    -0.458 OA
BRANCH  27  28
ATOM     28  C   LIG A   1      -7.457   6.707 130.988  0.00  0.00    +0.304 C 
ATOM     29  O   LIG A   1      -8.122   7.599 130.471  0.00  0.00    -0.251 OA
ATOM     30  C   LIG A   1      -7.808   6.090 132.304  0.00  0.00    +0.136 C 
ENDBRANCH  27  28
ENDBRANCH   5  27
TORSDOF 5
ENDMDL
MODEL 7
REMARK VINA RESULT:      -7.0      5.799      8.646
REMARK  Name = NuBBE_1577
REMARK  10 active torsions:
REMARK  status: ('A' for Active; 'I' for Inactive)
REMARK    1  A    between atoms: C_1  and  C_2
REMARK    2  A    between atoms: C_7  and  O_23
REMARK    3  A    between atoms: C_9  and  O_19
REMARK    4  A    between atoms: C_13  and  C_14
REMARK    5  A    between atoms: C_13  and  C_15
REMARK    6  A    between atoms: O_19  and  C_20
REMARK    7  A    between atoms: C_20  and  C_22
REMARK    8  A    between atoms: O_23  and  C_24
REMARK    9  A    between atoms: C_24  and  C_26
REMARK   10  A    between atoms: C_27  and  C_29
REMARK                            x       y       z     vdW  Elec       q    Type
REMARK                         _______ _______ _______ _____ _____    ______ ____
ROOT
ATOM      1  C   LIG A   1      -6.113   4.737 132.964  0.00  0.00    +0.012 C 
ATOM      2  C   LIG A   1      -6.380   5.335 131.538  0.00  0.00    -0.022 C 
ATOM      3  C   LIG A   1      -5.042   6.043 131.032  0.00  0.00    +0.010 C 
ATOM      4  C   LIG A   1      -4.051   5.023 130.388  0.00  0.00    +0.052 C 
ATOM      5  C   LIG A   1      -4.688   4.314 129.192  0.00  0.00    +0.221 C 
ATOM      6  C   LIG A   1      -5.796   3.378 129.734  0.00  0.00    +0.221 C 
ATOM      7  C   LIG A   1      -6.891   4.099 130.616  0.00  0.00    +0.045 C 
ATOM      8  C   LIG A   1      -8.321   4.192 129.924  0.00  0.00    -0.028 C 
ATOM      9  C   LIG A   1      -9.033   2.814 130.058  0.00  0.00    +0.011 C 
ATOM     10  C   LIG A   1      -8.292   4.517 128.416  0.00  0.00    +0.011 C 
ATOM     11  C   LIG A   1      -9.229   5.224 130.616  0.00  0.00    +0.007 C 
ATOM     12  C   LIG A   1      -8.539   6.566 130.732  0.00  0.00    +0.001 C 
ATOM     13  C   LIG A   1      -7.445   6.460 131.770  0.00  0.00    +0.007 C 
ATOM     14  C   LIG A   1      -2.598   5.548 130.150  0.00  0.00    +0.092 C 
ATOM     15  C   LIG A   1      -2.093   5.913 131.500  0.00  0.00    +0.004 A 
ATOM     16  C   LIG A   1      -2.937   6.557 132.372  0.00  0.00    +0.109 A 
ATOM     17  C   LIG A   1      -4.344   6.968 132.117  0.00  0.00    +0.079 C 
ATOM     18  O   LIG A   1      -2.330   6.780 133.560  0.00  0.00    -0.468 OA
ATOM     19  C   LIG A   1      -1.074   6.259 133.439  0.00  0.00    +0.195 A 
ATOM     20  C   LIG A   1      -0.882   5.705 132.190  0.00  0.00    +0.045 A 
ENDROOT
BRANCH  14  21
ATOM     21  C   LIG A   1      -2.427   6.790 129.282  0.00  0.00    +0.232 C 
ATOM     22  O   LIG A   1      -2.114   6.791 128.093  0.00  0.00    -0.300 OA
ENDBRANCH  14  21
BRANCH   6  23
ATOM     23  O   LIG A   1      -5.196   2.346 130.581  0.00  0.00    -0.458 OA
BRANCH  23  24
ATOM     24  C   LIG A   1      -4.931   1.127 130.018  0.00  0.00    +0.304 C 
ATOM     25  O   LIG A   1      -4.031   0.384 130.335  0.00  0.00    -0.251 OA
ATOM     26  C   LIG A   1      -5.914   0.843 128.924  0.00  0.00    +0.136 C 
ENDBRANCH  23  24
ENDBRANCH   6  23
BRANCH   5  27
ATOM     27  O   LIG A   1      -5.227   5.221 128.218  0.00  0.00    -0.458 OA
BRANCH  27  28
ATOM     28  C   LIG A   1      -4.978   4.892 126.918  0.00  0.00    +0.304 C 
ATOM     29  O   LIG A   1      -5.620   5.296 125.955  0.00  0.00    -0.251 OA
ATOM     30  C   LIG A   1      -3.816   3.959 126.788  0.00  0.00    +0.136 C 
ENDBRANCH  27  28
ENDBRANCH   5  27
TORSDOF 5
ENDMDL
MODEL 8
REMARK VINA RESULT:      -6.9      6.061      9.486
REMARK  Name = NuBBE_1577
REMARK  10 active torsions:
REMARK  status: ('A' for Active; 'I' for Inactive)
REMARK    1  A    between atoms: C_1  and  C_2
REMARK    2  A    between atoms: C_7  and  O_23
REMARK    3  A    between atoms: C_9  and  O_19
REMARK    4  A    between atoms: C_13  and  C_14
REMARK    5  A    between atoms: C_13  and  C_15
REMARK    6  A    between atoms: O_19  and  C_20
REMARK    7  A    between atoms: C_20  and  C_22
REMARK    8  A    between atoms: O_23  and  C_24
REMARK    9  A    between atoms: C_24  and  C_26
REMARK   10  A    between atoms: C_27  and  C_29
REMARK                            x       y       z     vdW  Elec       q    Type
REMARK                         _______ _______ _______ _____ _____    ______ ____
ROOT
ATOM      1  C   LIG A   1      -4.025   2.793 131.601  0.00  0.00    +0.012 C 
ATOM      2  C   LIG A   1      -4.697   3.896 130.711  0.00  0.00    -0.022 C 
ATOM      3  C   LIG A   1      -6.145   3.382 130.281  0.00  0.00    +0.010 C 
ATOM      4  C   LIG A   1      -7.213   3.661 131.383  0.00  0.00    +0.052 C 
ATOM      5  C   LIG A   1      -7.317   5.157 131.686  0.00  0.00    +0.221 C 
ATOM      6  C   LIG A   1      -6.010   5.586 132.397  0.00  0.00    +0.221 C 
ATOM      7  C   LIG A   1      -4.689   5.259 131.595  0.00  0.00    +0.045 C 
ATOM      8  C   LIG A   1      -3.943   6.544 131.026  0.00  0.00    -0.028 C 
ATOM      9  C   LIG A   1      -3.146   7.215 132.184  0.00  0.00    +0.011 C 
ATOM     10  C   LIG A   1      -4.873   7.635 130.455  0.00  0.00    +0.011 C 
ATOM     11  C   LIG A   1      -2.914   6.179 129.941  0.00  0.00    +0.007 C 
ATOM     12  C   LIG A   1      -3.544   5.332 128.857  0.00  0.00    +0.001 C 
ATOM     13  C   LIG A   1      -3.817   3.954 129.416  0.00  0.00    +0.007 C 
ATOM     14  C   LIG A   1      -8.581   2.925 131.203  0.00  0.00    +0.092 C 
ATOM     15  C   LIG A   1      -8.246   1.476 131.224  0.00  0.00    +0.004 A 
ATOM     16  C   LIG A   1      -7.124   1.047 130.556  0.00  0.00    +0.109 A 
ATOM     17  C   LIG A   1      -6.176   1.879 129.768  0.00  0.00    +0.079 C 
ATOM     18  O   LIG A   1      -6.951  -0.286 130.708  0.00  0.00    -0.468 OA
ATOM     19  C   LIG A   1      -7.983  -0.709 131.496  0.00  0.00    +0.195 A 
ATOM     20  C   LIG A   1      -8.805   0.343 131.847  0.00  0.00    +0.045 A 
ENDROOT
BRANCH  14  21
ATOM     21  C   LIG A   1      -9.350   3.166 129.910  0.00  0.00    +0.232 C 
ATOM     22  O   LIG A   1     -10.526   3.515 129.834  0.00  0.00    -0.300 OA
ENDBRANCH  14  21
BRANCH   6  23
ATOM     23  O   LIG A   1      -5.899   4.891 133.680  0.00  0.00    -0.458 OA
BRANCH  23  24
ATOM     24  C   LIG A   1      -6.144   5.606 134.821  0.00  0.00    +0.304 C 
ATOM     25  O   LIG A   1      -5.396   6.414 135.321  0.00  0.00    -0.251 OA
ATOM     26  C   LIG A   1      -7.482   5.233 135.383  0.00  0.00    +0.136 C 
ENDBRANCH  23  24
ENDBRANCH   6  23
BRANCH   5  27
ATOM     27  O   LIG A   1      -7.539   5.956 130.514  0.00  0.00    -0.458 OA
BRANCH  27  28
ATOM     28  C   LIG A   1      -8.597   6.814 130.588  0.00  0.00    +0.304 C 
ATOM     29  O   LIG A   1      -8.770   7.784 129.857  0.00  0.00    -0.251 OA
ATOM     30  C   LIG A   1      -9.545   6.442 131.684  0.00  0.00    +0.136 C 
ENDBRANCH  27  28
ENDBRANCH   5  27
TORSDOF 5
ENDMDL
MODEL 9
REMARK VINA RESULT:      -6.8      3.776      6.831
REMARK  Name = NuBBE_1577
REMARK  10 active torsions:
REMARK  status: ('A' for Active; 'I' for Inactive)
REMARK    1  A    between atoms: C_1  and  C_2
REMARK    2  A    between atoms: C_7  and  O_23
REMARK    3  A    between atoms: C_9  and  O_19
REMARK    4  A    between atoms: C_13  and  C_14
REMARK    5  A    between atoms: C_13  and  C_15
REMARK    6  A    between atoms: O_19  and  C_20
REMARK    7  A    between atoms: C_20  and  C_22
REMARK    8  A    between atoms: O_23  and  C_24
REMARK    9  A    between atoms: C_24  and  C_26
REMARK   10  A    between atoms: C_27  and  C_29
REMARK                            x       y       z     vdW  Elec       q    Type
REMARK                         _______ _______ _______ _____ _____    ______ ____
ROOT
ATOM      1  C   LIG A   1      -8.906   1.511 127.199  0.00  0.00    +0.012 C 
ATOM      2  C   LIG A   1      -7.724   1.454 128.228  0.00  0.00    -0.022 C 
ATOM      3  C   LIG A   1      -6.415   2.032 127.522  0.00  0.00    +0.010 C 
ATOM      4  C   LIG A   1      -6.359   3.591 127.586  0.00  0.00    +0.052 C 
ATOM      5  C   LIG A   1      -6.368   4.084 129.034  0.00  0.00    +0.221 C 
ATOM      6  C   LIG A   1      -7.771   3.794 129.622  0.00  0.00    +0.221 C 
ATOM      7  C   LIG A   1      -8.220   2.282 129.534  0.00  0.00    +0.045 C 
ATOM      8  C   LIG A   1      -8.276   1.542 130.942  0.00  0.00    -0.028 C 
ATOM      9  C   LIG A   1      -9.590   1.952 131.671  0.00  0.00    +0.011 C 
ATOM     10  C   LIG A   1      -7.122   1.889 131.905  0.00  0.00    +0.011 C 
ATOM     11  C   LIG A   1      -8.323   0.011 130.786  0.00  0.00    +0.007 C 
ATOM     12  C   LIG A   1      -7.195  -0.480 129.904  0.00  0.00    +0.001 C 
ATOM     13  C   LIG A   1      -7.484  -0.074 128.477  0.00  0.00    +0.007 C 
ATOM     14  C   LIG A   1      -5.296   4.269 126.662  0.00  0.00    +0.092 C 
ATOM     15  C   LIG A   1      -5.671   3.865 125.281  0.00  0.00    +0.004 A 
ATOM     16  C   LIG A   1      -6.072   2.570 125.056  0.00  0.00    +0.109 A 
ATOM     17  C   LIG A   1      -6.165   1.474 126.057  0.00  0.00    +0.079 C 
ATOM     18  O   LIG A   1      -6.409   2.386 123.759  0.00  0.00    -0.468 OA
ATOM     19  C   LIG A   1      -6.222   3.594 123.150  0.00  0.00    +0.195 A 
ATOM     20  C   LIG A   1      -5.775   4.541 124.049  0.00  0.00    +0.045 A 
ENDROOT
BRANCH  14  21
ATOM     21  C   LIG A   1      -3.838   3.864 126.843  0.00  0.00    +0.232 C 
ATOM     22  O   LIG A   1      -2.944   4.592 127.270  0.00  0.00    -0.300 OA
ENDBRANCH  14  21
BRANCH   6  23
ATOM     23  O   LIG A   1      -8.778   4.568 128.894  0.00  0.00    -0.458 OA
BRANCH  23  24
ATOM     24  C   LIG A   1      -9.692   5.280 129.623  0.00  0.00    +0.304 C 
ATOM     25  O   LIG A   1     -10.884   5.084 129.642  0.00  0.00    -0.251 OA
ATOM     26  C   LIG A   1      -9.001   6.363 130.394  0.00  0.00    +0.136 C 
ENDBRANCH  23  24
ENDBRANCH   6  23
BRANCH   5  27
ATOM     27  O   LIG A   1      -5.348   3.480 129.844  0.00  0.00    -0.458 OA
BRANCH  27  28
ATOM     28  C   LIG A   1      -4.503   4.355 130.461  0.00  0.00    +0.304 C 
ATOM     29  O   LIG A   1      -4.455   5.561 130.240  0.00  0.00    -0.251 OA
ATOM     30  C   LIG A   1      -3.615   3.673 131.452  0.00  0.00    +0.136 C 
ENDBRANCH  27  28
ENDBRANCH   5  27
TORSDOF 5
ENDMDL
