MODEL 1
REMARK VINA RESULT:      -7.8      0.000      0.000
REMARK  Name = NuBBE_1567
REMARK  18 active torsions:
REMARK  status: ('A' for Active; 'I' for Inactive)
REMARK    1  A    between atoms: C_19  and  C_20
REMARK    2  A    between atoms: C_20  and  C_21
REMARK    3  A    between atoms: C_21  and  C_22
REMARK    4  A    between atoms: C_22  and  C_23
REMARK    5  A    between atoms: C_23  and  C_24
REMARK    6  A    between atoms: C_24  and  C_25
REMARK    7  A    between atoms: C_25  and  C_26
REMARK    8  A    between atoms: C_26  and  C_27
REMARK    9  A    between atoms: C_27  and  C_28
REMARK   10  A    between atoms: C_28  and  C_29
REMARK   11  A    between atoms: C_29  and  C_30
REMARK   12  A    between atoms: C_30  and  C_31
REMARK   13  A    between atoms: C_31  and  C_32
REMARK   14  A    between atoms: C_32  and  C_33
REMARK   15  A    between atoms: C_33  and  C_34
REMARK   16  A    between atoms: C_34  and  C_35
REMARK   17  A    between atoms: C_35  and  C_36
REMARK   18  A    between atoms: C_36  and  C_37
REMARK                            x       y       z     vdW  Elec       q    Type
REMARK                         _______ _______ _______ _____ _____    ______ ____
ROOT
ATOM      1  O   LIG A   1      -8.326   3.685 127.548  0.00  0.00    -0.287 OA
ATOM      2  C   LIG A   1      -7.268   3.823 126.794  0.00  0.00    +0.200 A 
ATOM      3  C   LIG A   1      -6.043   3.972 127.456  0.00  0.00    +0.064 A 
ATOM      4  C   LIG A   1      -5.806   3.843 128.835  0.00  0.00    +0.015 A 
ATOM      5  C   LIG A   1      -4.529   3.978 129.362  0.00  0.00    +0.001 A 
ATOM      6  C   LIG A   1      -3.432   4.125 128.512  0.00  0.00    +0.004 A 
ATOM      7  C   LIG A   1      -3.628   4.169 127.125  0.00  0.00    +0.047 A 
ATOM      8  C   LIG A   1      -4.921   4.143 126.592  0.00  0.00    +0.139 A 
ATOM      9  O   LIG A   1      -5.105   4.357 125.256  0.00  0.00    -0.454 OA
ATOM     10  C   LIG A   1      -6.321   4.077 124.680  0.00  0.00    +0.149 A 
ATOM     11  C   LIG A   1      -6.396   3.965 123.233  0.00  0.00    +0.059 A 
ATOM     12  C   LIG A   1      -7.571   3.524 122.617  0.00  0.00    +0.132 A 
ATOM     13  C   LIG A   1      -7.664   3.505 121.223  0.00  0.00    +0.046 A 
ATOM     14  C   LIG A   1      -6.555   3.819 120.430  0.00  0.00    +0.004 A 
ATOM     15  C   LIG A   1      -5.332   4.090 121.034  0.00  0.00    +0.001 A 
ATOM     16  C   LIG A   1      -5.256   4.175 122.425  0.00  0.00    +0.015 A 
ATOM     17  O   LIG A   1      -8.627   2.978 123.309  0.00  0.00    -0.483 OA
ATOM     18  C   LIG A   1      -7.441   3.726 125.395  0.00  0.00    +0.083 A 
ATOM     19  C   LIG A   1      -8.616   2.995 124.755  0.00  0.00    +0.211 C 
ENDROOT
BRANCH  19  20
ATOM     20  C   LIG A   1      -8.972   1.554 125.316  0.00  0.00    +0.050 C 
BRANCH  20  21
ATOM     21  C   LIG A   1      -7.921   0.493 125.742  0.00  0.00    +0.004 C 
BRANCH  21  22
ATOM     22  C   LIG A   1      -6.475   0.626 125.231  0.00  0.00    +0.000 C 
BRANCH  22  23
ATOM     23  C   LIG A   1      -5.401   0.101 126.145  0.00  0.00    -0.000 C 
BRANCH  23  24
ATOM     24  C   LIG A   1      -5.450   0.448 127.602  0.00  0.00    -0.000 C 
BRANCH  24  25
ATOM     25  C   LIG A   1      -5.322  -0.720 128.511  0.00  0.00    -0.000 C 
BRANCH  25  26
ATOM     26  C   LIG A   1      -5.916  -2.004 127.924  0.00  0.00    -0.000 C 
BRANCH  26  27
ATOM     27  C   LIG A   1      -7.117  -2.396 128.774  0.00  0.00    -0.000 C 
BRANCH  27  28
ATOM     28  C   LIG A   1      -8.321  -2.946 128.051  0.00  0.00    -0.000 C 
BRANCH  28  29
ATOM     29  C   LIG A   1      -8.101  -3.200 126.564  0.00  0.00    -0.000 C 
BRANCH  29  30
ATOM     30  C   LIG A   1      -9.353  -3.088 125.642  0.00  0.00    -0.000 C 
BRANCH  30  31
ATOM     31  C   LIG A   1      -9.354  -3.339 124.096  0.00  0.00    -0.000 C 
BRANCH  31  32
ATOM     32  C   LIG A   1      -9.218  -2.264 122.944  0.00  0.00    -0.000 C 
BRANCH  32  33
ATOM     33  C   LIG A   1      -7.889  -1.504 122.577  0.00  0.00    -0.000 C 
BRANCH  33  34
ATOM     34  C   LIG A   1      -6.347  -1.994 122.724  0.00  0.00    -0.000 C 
BRANCH  34  35
ATOM     35  C   LIG A   1      -5.655  -2.785 123.901  0.00  0.00    -0.000 C 
BRANCH  35  36
ATOM     36  C   LIG A   1      -4.302  -3.512 123.515  0.00  0.00    -0.003 C 
ATOM     37  C   LIG A   1      -4.350  -5.041 123.490  0.00  0.00    +0.004 C 
ENDBRANCH  35  36
ENDBRANCH  34  35
ENDBRANCH  33  34
ENDBRANCH  32  33
ENDBRANCH  31  32
ENDBRANCH  30  31
ENDBRANCH  29  30
ENDBRANCH  28  29
ENDBRANCH  27  28
ENDBRANCH  26  27
ENDBRANCH  25  26
ENDBRANCH  24  25
ENDBRANCH  23  24
ENDBRANCH  22  23
ENDBRANCH  21  22
ENDBRANCH  20  21
ENDBRANCH  19  20
TORSDOF 17
ENDMDL
MODEL 2
REMARK VINA RESULT:      -7.6      1.405      3.763
REMARK  Name = NuBBE_1567
REMARK  18 active torsions:
REMARK  status: ('A' for Active; 'I' for Inactive)
REMARK    1  A    between atoms: C_19  and  C_20
REMARK    2  A    between atoms: C_20  and  C_21
REMARK    3  A    between atoms: C_21  and  C_22
REMARK    4  A    between atoms: C_22  and  C_23
REMARK    5  A    between atoms: C_23  and  C_24
REMARK    6  A    between atoms: C_24  and  C_25
REMARK    7  A    between atoms: C_25  and  C_26
REMARK    8  A    between atoms: C_26  and  C_27
REMARK    9  A    between atoms: C_27  and  C_28
REMARK   10  A    between atoms: C_28  and  C_29
REMARK   11  A    between atoms: C_29  and  C_30
REMARK   12  A    between atoms: C_30  and  C_31
REMARK   13  A    between atoms: C_31  and  C_32
REMARK   14  A    between atoms: C_32  and  C_33
REMARK   15  A    between atoms: C_33  and  C_34
REMARK   16  A    between atoms: C_34  and  C_35
REMARK   17  A    between atoms: C_35  and  C_36
REMARK   18  A    between atoms: C_36  and  C_37
REMARK                            x       y       z     vdW  Elec       q    Type
REMARK                         _______ _______ _______ _____ _____    ______ ____
ROOT
ATOM      1  O   LIG A   1      -8.196   3.254 127.000  0.00  0.00    -0.287 OA
ATOM      2  C   LIG A   1      -7.167   3.416 126.211  0.00  0.00    +0.200 A 
ATOM      3  C   LIG A   1      -5.906   3.421 126.819  0.00  0.00    +0.064 A 
ATOM      4  C   LIG A   1      -5.613   3.123 128.161  0.00  0.00    +0.015 A 
ATOM      5  C   LIG A   1      -4.307   3.126 128.631  0.00  0.00    +0.001 A 
ATOM      6  C   LIG A   1      -3.244   3.306 127.744  0.00  0.00    +0.004 A 
ATOM      7  C   LIG A   1      -3.501   3.518 126.384  0.00  0.00    +0.047 A 
ATOM      8  C   LIG A   1      -4.817   3.625 125.921  0.00  0.00    +0.139 A 
ATOM      9  O   LIG A   1      -5.050   3.999 124.628  0.00  0.00    -0.454 OA
ATOM     10  C   LIG A   1      -6.306   3.855 124.090  0.00  0.00    +0.149 A 
ATOM     11  C   LIG A   1      -6.456   3.911 122.646  0.00  0.00    +0.059 A 
ATOM     12  C   LIG A   1      -7.683   3.610 122.048  0.00  0.00    +0.132 A 
ATOM     13  C   LIG A   1      -7.842   3.754 120.668  0.00  0.00    +0.046 A 
ATOM     14  C   LIG A   1      -6.754   4.093 119.856  0.00  0.00    +0.004 A 
ATOM     15  C   LIG A   1      -5.490   4.225 120.421  0.00  0.00    +0.001 A 
ATOM     16  C   LIG A   1      -5.344   4.147 121.806  0.00  0.00    +0.015 A 
ATOM     17  O   LIG A   1      -8.738   3.049 122.732  0.00  0.00    -0.483 OA
ATOM     18  C   LIG A   1      -7.411   3.488 124.821  0.00  0.00    +0.083 A 
ATOM     19  C   LIG A   1      -8.657   2.901 124.168  0.00  0.00    +0.211 C 
ENDROOT
BRANCH  19  20
ATOM     20  C   LIG A   1      -9.076   1.429 124.584  0.00  0.00    +0.050 C 
BRANCH  20  21
ATOM     21  C   LIG A   1      -8.100   0.222 124.640  0.00  0.00    +0.004 C 
BRANCH  21  22
ATOM     22  C   LIG A   1      -7.048   0.058 123.528  0.00  0.00    +0.000 C 
BRANCH  22  23
ATOM     23  C   LIG A   1      -6.874  -1.332 122.983  0.00  0.00    -0.000 C 
BRANCH  23  24
ATOM     24  C   LIG A   1      -5.933  -2.274 123.672  0.00  0.00    -0.000 C 
BRANCH  24  25
ATOM     25  C   LIG A   1      -6.529  -2.996 124.825  0.00  0.00    -0.000 C 
BRANCH  25  26
ATOM     26  C   LIG A   1      -7.729  -3.864 124.434  0.00  0.00    -0.000 C 
BRANCH  26  27
ATOM     27  C   LIG A   1      -8.930  -3.396 125.244  0.00  0.00    -0.000 C 
BRANCH  27  28
ATOM     28  C   LIG A   1      -8.658  -2.830 126.615  0.00  0.00    -0.000 C 
BRANCH  28  29
ATOM     29  C   LIG A   1      -8.967  -3.784 127.762  0.00  0.00    -0.000 C 
BRANCH  29  30
ATOM     30  C   LIG A   1      -8.311  -3.459 129.139  0.00  0.00    -0.000 C 
BRANCH  30  31
ATOM     31  C   LIG A   1      -6.787  -3.165 129.359  0.00  0.00    -0.000 C 
BRANCH  31  32
ATOM     32  C   LIG A   1      -5.857  -2.207 128.512  0.00  0.00    -0.000 C 
BRANCH  32  33
ATOM     33  C   LIG A   1      -6.150  -0.685 128.237  0.00  0.00    -0.000 C 
BRANCH  33  34
ATOM     34  C   LIG A   1      -7.527   0.153 128.437  0.00  0.00    -0.000 C 
BRANCH  34  35
ATOM     35  C   LIG A   1      -8.137   0.780 129.749  0.00  0.00    -0.000 C 
BRANCH  35  36
ATOM     36  C   LIG A   1      -8.371  -0.244 130.936  0.00  0.00    -0.003 C 
ATOM     37  C   LIG A   1      -7.450  -0.081 132.148  0.00  0.00    +0.004 C 
ENDBRANCH  35  36
ENDBRANCH  34  35
ENDBRANCH  33  34
ENDBRANCH  32  33
ENDBRANCH  31  32
ENDBRANCH  30  31
ENDBRANCH  29  30
ENDBRANCH  28  29
ENDBRANCH  27  28
ENDBRANCH  26  27
ENDBRANCH  25  26
ENDBRANCH  24  25
ENDBRANCH  23  24
ENDBRANCH  22  23
ENDBRANCH  21  22
ENDBRANCH  20  21
ENDBRANCH  19  20
TORSDOF 17
ENDMDL
MODEL 3
REMARK VINA RESULT:      -7.5      1.152      3.142
REMARK  Name = NuBBE_1567
REMARK  18 active torsions:
REMARK  status: ('A' for Active; 'I' for Inactive)
REMARK    1  A    between atoms: C_19  and  C_20
REMARK    2  A    between atoms: C_20  and  C_21
REMARK    3  A    between atoms: C_21  and  C_22
REMARK    4  A    between atoms: C_22  and  C_23
REMARK    5  A    between atoms: C_23  and  C_24
REMARK    6  A    between atoms: C_24  and  C_25
REMARK    7  A    between atoms: C_25  and  C_26
REMARK    8  A    between atoms: C_26  and  C_27
REMARK    9  A    between atoms: C_27  and  C_28
REMARK   10  A    between atoms: C_28  and  C_29
REMARK   11  A    between atoms: C_29  and  C_30
REMARK   12  A    between atoms: C_30  and  C_31
REMARK   13  A    between atoms: C_31  and  C_32
REMARK   14  A    between atoms: C_32  and  C_33
REMARK   15  A    between atoms: C_33  and  C_34
REMARK   16  A    between atoms: C_34  and  C_35
REMARK   17  A    between atoms: C_35  and  C_36
REMARK   18  A    between atoms: C_36  and  C_37
REMARK                            x       y       z     vdW  Elec       q    Type
REMARK                         _______ _______ _______ _____ _____    ______ ____
ROOT
ATOM      1  O   LIG A   1      -8.153   2.900 126.910  0.00  0.00    -0.287 OA
ATOM      2  C   LIG A   1      -7.134   3.177 126.142  0.00  0.00    +0.200 A 
ATOM      3  C   LIG A   1      -5.882   3.252 126.765  0.00  0.00    +0.064 A 
ATOM      4  C   LIG A   1      -5.579   2.920 128.096  0.00  0.00    +0.015 A 
ATOM      5  C   LIG A   1      -4.281   3.004 128.581  0.00  0.00    +0.001 A 
ATOM      6  C   LIG A   1      -3.227   3.305 127.717  0.00  0.00    +0.004 A 
ATOM      7  C   LIG A   1      -3.488   3.555 126.363  0.00  0.00    +0.047 A 
ATOM      8  C   LIG A   1      -4.804   3.580 125.889  0.00  0.00    +0.139 A 
ATOM      9  O   LIG A   1      -5.055   3.991 124.611  0.00  0.00    -0.454 OA
ATOM     10  C   LIG A   1      -6.291   3.774 124.053  0.00  0.00    +0.149 A 
ATOM     11  C   LIG A   1      -6.432   3.882 122.610  0.00  0.00    +0.059 A 
ATOM     12  C   LIG A   1      -7.626   3.512 121.985  0.00  0.00    +0.132 A 
ATOM     13  C   LIG A   1      -7.785   3.704 120.610  0.00  0.00    +0.046 A 
ATOM     14  C   LIG A   1      -6.719   4.162 119.828  0.00  0.00    +0.004 A 
ATOM     15  C   LIG A   1      -5.474   4.367 120.413  0.00  0.00    +0.001 A 
ATOM     16  C   LIG A   1      -5.334   4.240 121.795  0.00  0.00    +0.015 A 
ATOM     17  O   LIG A   1      -8.640   2.841 122.631  0.00  0.00    -0.483 OA
ATOM     18  C   LIG A   1      -7.370   3.290 124.753  0.00  0.00    +0.083 A 
ATOM     19  C   LIG A   1      -8.561   2.637 124.060  0.00  0.00    +0.211 C 
ENDROOT
BRANCH  19  20
ATOM     20  C   LIG A   1      -8.866   1.120 124.408  0.00  0.00    +0.050 C 
BRANCH  20  21
ATOM     21  C   LIG A   1      -8.101  -0.090 123.804  0.00  0.00    +0.004 C 
BRANCH  21  22
ATOM     22  C   LIG A   1      -8.896  -1.195 123.086  0.00  0.00    +0.000 C 
BRANCH  22  23
ATOM     23  C   LIG A   1      -9.004  -2.508 123.811  0.00  0.00    -0.000 C 
BRANCH  23  24
ATOM     24  C   LIG A   1      -9.188  -2.507 125.298  0.00  0.00    -0.000 C 
BRANCH  24  25
ATOM     25  C   LIG A   1      -8.594  -3.682 125.986  0.00  0.00    -0.000 C 
BRANCH  25  26
ATOM     26  C   LIG A   1      -9.035  -3.807 127.448  0.00  0.00    -0.000 C 
BRANCH  26  27
ATOM     27  C   LIG A   1      -8.073  -2.991 128.299  0.00  0.00    -0.000 C 
BRANCH  27  28
ATOM     28  C   LIG A   1      -7.918  -3.395 129.744  0.00  0.00    -0.000 C 
BRANCH  28  29
ATOM     29  C   LIG A   1      -6.519  -3.870 130.118  0.00  0.00    -0.000 C 
BRANCH  29  30
ATOM     30  C   LIG A   1      -5.566  -2.810 130.749  0.00  0.00    -0.000 C 
BRANCH  30  31
ATOM     31  C   LIG A   1      -4.541  -1.937 129.948  0.00  0.00    -0.000 C 
BRANCH  31  32
ATOM     32  C   LIG A   1      -4.822  -0.593 129.163  0.00  0.00    -0.000 C 
BRANCH  32  33
ATOM     33  C   LIG A   1      -5.855  -0.443 127.984  0.00  0.00    -0.000 C 
BRANCH  33  34
ATOM     34  C   LIG A   1      -5.716  -0.891 126.429  0.00  0.00    -0.000 C 
BRANCH  34  35
ATOM     35  C   LIG A   1      -5.437  -2.318 125.819  0.00  0.00    -0.000 C 
BRANCH  35  36
ATOM     36  C   LIG A   1      -5.237  -2.349 124.248  0.00  0.00    -0.003 C 
ATOM     37  C   LIG A   1      -4.922  -3.719 123.642  0.00  0.00    +0.004 C 
ENDBRANCH  35  36
ENDBRANCH  34  35
ENDBRANCH  33  34
ENDBRANCH  32  33
ENDBRANCH  31  32
ENDBRANCH  30  31
ENDBRANCH  29  30
ENDBRANCH  28  29
ENDBRANCH  27  28
ENDBRANCH  26  27
ENDBRANCH  25  26
ENDBRANCH  24  25
ENDBRANCH  23  24
ENDBRANCH  22  23
ENDBRANCH  21  22
ENDBRANCH  20  21
ENDBRANCH  19  20
TORSDOF 17
ENDMDL
MODEL 4
REMARK VINA RESULT:      -7.4      1.523      3.837
REMARK  Name = NuBBE_1567
REMARK  18 active torsions:
REMARK  status: ('A' for Active; 'I' for Inactive)
REMARK    1  A    between atoms: C_19  and  C_20
REMARK    2  A    between atoms: C_20  and  C_21
REMARK    3  A    between atoms: C_21  and  C_22
REMARK    4  A    between atoms: C_22  and  C_23
REMARK    5  A    between atoms: C_23  and  C_24
REMARK    6  A    between atoms: C_24  and  C_25
REMARK    7  A    between atoms: C_25  and  C_26
REMARK    8  A    between atoms: C_26  and  C_27
REMARK    9  A    between atoms: C_27  and  C_28
REMARK   10  A    between atoms: C_28  and  C_29
REMARK   11  A    between atoms: C_29  and  C_30
REMARK   12  A    between atoms: C_30  and  C_31
REMARK   13  A    between atoms: C_31  and  C_32
REMARK   14  A    between atoms: C_32  and  C_33
REMARK   15  A    between atoms: C_33  and  C_34
REMARK   16  A    between atoms: C_34  and  C_35
REMARK   17  A    between atoms: C_35  and  C_36
REMARK   18  A    between atoms: C_36  and  C_37
REMARK                            x       y       z     vdW  Elec       q    Type
REMARK                         _______ _______ _______ _____ _____    ______ ____
ROOT
ATOM      1  O   LIG A   1      -8.306   2.621 126.826  0.00  0.00    -0.287 OA
ATOM      2  C   LIG A   1      -7.269   2.906 126.083  0.00  0.00    +0.200 A 
ATOM      3  C   LIG A   1      -6.023   2.908 126.721  0.00  0.00    +0.064 A 
ATOM      4  C   LIG A   1      -5.746   2.496 128.036  0.00  0.00    +0.015 A 
ATOM      5  C   LIG A   1      -4.451   2.513 128.537  0.00  0.00    +0.001 A 
ATOM      6  C   LIG A   1      -3.379   2.826 127.700  0.00  0.00    +0.004 A 
ATOM      7  C   LIG A   1      -3.617   3.156 126.360  0.00  0.00    +0.047 A 
ATOM      8  C   LIG A   1      -4.926   3.248 125.875  0.00  0.00    +0.139 A 
ATOM      9  O   LIG A   1      -5.149   3.735 124.619  0.00  0.00    -0.454 OA
ATOM     10  C   LIG A   1      -6.385   3.587 124.037  0.00  0.00    +0.149 A 
ATOM     11  C   LIG A   1      -6.506   3.776 122.601  0.00  0.00    +0.059 A 
ATOM     12  C   LIG A   1      -7.704   3.479 121.946  0.00  0.00    +0.132 A 
ATOM     13  C   LIG A   1      -7.841   3.749 120.582  0.00  0.00    +0.046 A 
ATOM     14  C   LIG A   1      -6.752   4.214 119.835  0.00  0.00    +0.004 A 
ATOM     15  C   LIG A   1      -5.509   4.348 120.442  0.00  0.00    +0.001 A 
ATOM     16  C   LIG A   1      -5.389   4.143 121.817  0.00  0.00    +0.015 A 
ATOM     17  O   LIG A   1      -8.745   2.807 122.545  0.00  0.00    -0.483 OA
ATOM     18  C   LIG A   1      -7.486   3.101 124.700  0.00  0.00    +0.083 A 
ATOM     19  C   LIG A   1      -8.689   2.525 123.962  0.00  0.00    +0.211 C 
ENDROOT
BRANCH  19  20
ATOM     20  C   LIG A   1      -9.045   1.002 124.224  0.00  0.00    +0.050 C 
BRANCH  20  21
ATOM     21  C   LIG A   1      -8.223  -0.199 123.680  0.00  0.00    +0.004 C 
BRANCH  21  22
ATOM     22  C   LIG A   1      -8.912  -1.565 123.517  0.00  0.00    +0.000 C 
BRANCH  22  23
ATOM     23  C   LIG A   1      -9.022  -2.402 124.761  0.00  0.00    -0.000 C 
BRANCH  23  24
ATOM     24  C   LIG A   1      -8.048  -3.522 124.976  0.00  0.00    -0.000 C 
BRANCH  24  25
ATOM     25  C   LIG A   1      -6.872  -3.488 124.069  0.00  0.00    -0.000 C 
BRANCH  25  26
ATOM     26  C   LIG A   1      -5.560  -3.189 124.799  0.00  0.00    -0.000 C 
BRANCH  26  27
ATOM     27  C   LIG A   1      -5.174  -1.747 124.499  0.00  0.00    -0.000 C 
BRANCH  27  28
ATOM     28  C   LIG A   1      -5.371  -0.738 125.602  0.00  0.00    -0.000 C 
BRANCH  28  29
ATOM     29  C   LIG A   1      -5.669  -1.348 126.967  0.00  0.00    -0.000 C 
BRANCH  29  30
ATOM     30  C   LIG A   1      -6.997  -0.908 127.655  0.00  0.00    -0.000 C 
BRANCH  30  31
ATOM     31  C   LIG A   1      -8.073  -1.887 128.235  0.00  0.00    -0.000 C 
BRANCH  31  32
ATOM     32  C   LIG A   1      -7.836  -3.311 128.881  0.00  0.00    -0.000 C 
BRANCH  32  33
ATOM     33  C   LIG A   1      -6.985  -3.576 130.179  0.00  0.00    -0.000 C 
BRANCH  33  34
ATOM     34  C   LIG A   1      -5.568  -4.353 130.343  0.00  0.00    -0.000 C 
BRANCH  34  35
ATOM     35  C   LIG A   1      -4.242  -3.879 131.053  0.00  0.00    -0.000 C 
BRANCH  35  36
ATOM     36  C   LIG A   1      -3.415  -2.782 130.265  0.00  0.00    -0.003 C 
ATOM     37  C   LIG A   1      -4.070  -1.403 130.157  0.00  0.00    +0.004 C 
ENDBRANCH  35  36
ENDBRANCH  34  35
ENDBRANCH  33  34
ENDBRANCH  32  33
ENDBRANCH  31  32
ENDBRANCH  30  31
ENDBRANCH  29  30
ENDBRANCH  28  29
ENDBRANCH  27  28
ENDBRANCH  26  27
ENDBRANCH  25  26
ENDBRANCH  24  25
ENDBRANCH  23  24
ENDBRANCH  22  23
ENDBRANCH  21  22
ENDBRANCH  20  21
ENDBRANCH  19  20
TORSDOF 17
ENDMDL
MODEL 5
REMARK VINA RESULT:      -7.3      1.446      2.604
REMARK  Name = NuBBE_1567
REMARK  18 active torsions:
REMARK  status: ('A' for Active; 'I' for Inactive)
REMARK    1  A    between atoms: C_19  and  C_20
REMARK    2  A    between atoms: C_20  and  C_21
REMARK    3  A    between atoms: C_21  and  C_22
REMARK    4  A    between atoms: C_22  and  C_23
REMARK    5  A    between atoms: C_23  and  C_24
REMARK    6  A    between atoms: C_24  and  C_25
REMARK    7  A    between atoms: C_25  and  C_26
REMARK    8  A    between atoms: C_26  and  C_27
REMARK    9  A    between atoms: C_27  and  C_28
REMARK   10  A    between atoms: C_28  and  C_29
REMARK   11  A    between atoms: C_29  and  C_30
REMARK   12  A    between atoms: C_30  and  C_31
REMARK   13  A    between atoms: C_31  and  C_32
REMARK   14  A    between atoms: C_32  and  C_33
REMARK   15  A    between atoms: C_33  and  C_34
REMARK   16  A    between atoms: C_34  and  C_35
REMARK   17  A    between atoms: C_35  and  C_36
REMARK   18  A    between atoms: C_36  and  C_37
REMARK                            x       y       z     vdW  Elec       q    Type
REMARK                         _______ _______ _______ _____ _____    ______ ____
ROOT
ATOM      1  O   LIG A   1      -7.709   3.673 127.429  0.00  0.00    -0.287 OA
ATOM      2  C   LIG A   1      -6.760   3.711 126.532  0.00  0.00    +0.200 A 
ATOM      3  C   LIG A   1      -5.444   3.693 127.010  0.00  0.00    +0.064 A 
ATOM      4  C   LIG A   1      -5.030   3.493 128.338  0.00  0.00    +0.015 A 
ATOM      5  C   LIG A   1      -3.684   3.460 128.675  0.00  0.00    +0.001 A 
ATOM      6  C   LIG A   1      -2.710   3.505 127.676  0.00  0.00    +0.004 A 
ATOM      7  C   LIG A   1      -3.095   3.616 126.334  0.00  0.00    +0.047 A 
ATOM      8  C   LIG A   1      -4.444   3.760 125.994  0.00  0.00    +0.139 A 
ATOM      9  O   LIG A   1      -4.791   4.037 124.703  0.00  0.00    -0.454 OA
ATOM     10  C   LIG A   1      -6.101   3.920 124.306  0.00  0.00    +0.149 A 
ATOM     11  C   LIG A   1      -6.395   3.864 122.884  0.00  0.00    +0.059 A 
ATOM     12  C   LIG A   1      -7.690   3.584 122.439  0.00  0.00    +0.132 A 
ATOM     13  C   LIG A   1      -7.984   3.622 121.073  0.00  0.00    +0.046 A 
ATOM     14  C   LIG A   1      -6.969   3.829 120.132  0.00  0.00    +0.004 A 
ATOM     15  C   LIG A   1      -5.649   3.935 120.556  0.00  0.00    +0.001 A 
ATOM     16  C   LIG A   1      -5.365   3.965 121.922  0.00  0.00    +0.015 A 
ATOM     17  O   LIG A   1      -8.695   3.144 123.270  0.00  0.00    -0.483 OA
ATOM     18  C   LIG A   1      -7.141   3.679 125.171  0.00  0.00    +0.083 A 
ATOM     19  C   LIG A   1      -8.475   3.112 124.698  0.00  0.00    +0.211 C 
ENDROOT
BRANCH  19  20
ATOM     20  C   LIG A   1      -8.919   1.707 125.283  0.00  0.00    +0.050 C 
BRANCH  20  21
ATOM     21  C   LIG A   1      -8.053   0.419 125.226  0.00  0.00    +0.004 C 
BRANCH  21  22
ATOM     22  C   LIG A   1      -7.066   0.129 126.371  0.00  0.00    +0.000 C 
BRANCH  22  23
ATOM     23  C   LIG A   1      -7.679  -0.214 127.700  0.00  0.00    -0.000 C 
BRANCH  23  24
ATOM     24  C   LIG A   1      -7.335   0.617 128.899  0.00  0.00    -0.000 C 
BRANCH  24  25
ATOM     25  C   LIG A   1      -8.050   0.223 130.140  0.00  0.00    -0.000 C 
BRANCH  25  26
ATOM     26  C   LIG A   1      -7.103  -0.117 131.295  0.00  0.00    -0.000 C 
BRANCH  26  27
ATOM     27  C   LIG A   1      -7.807  -1.120 132.199  0.00  0.00    -0.000 C 
BRANCH  27  28
ATOM     28  C   LIG A   1      -7.540  -2.582 131.945  0.00  0.00    -0.000 C 
BRANCH  28  29
ATOM     29  C   LIG A   1      -6.477  -2.852 130.886  0.00  0.00    -0.000 C 
BRANCH  29  30
ATOM     30  C   LIG A   1      -6.969  -3.476 129.545  0.00  0.00    -0.000 C 
BRANCH  30  31
ATOM     31  C   LIG A   1      -8.437  -3.398 129.005  0.00  0.00    -0.000 C 
BRANCH  31  32
ATOM     32  C   LIG A   1      -8.996  -3.971 127.641  0.00  0.00    -0.000 C 
BRANCH  32  33
ATOM     33  C   LIG A   1      -9.148  -3.139 126.313  0.00  0.00    -0.000 C 
BRANCH  33  34
ATOM     34  C   LIG A   1      -8.624  -3.483 124.814  0.00  0.00    -0.000 C 
BRANCH  34  35
ATOM     35  C   LIG A   1      -9.222  -3.050 123.421  0.00  0.00    -0.000 C 
BRANCH  35  36
ATOM     36  C   LIG A   1      -8.277  -2.133 122.541  0.00  0.00    -0.003 C 
ATOM     37  C   LIG A   1      -6.808  -2.084 122.970  0.00  0.00    +0.004 C 
ENDBRANCH  35  36
ENDBRANCH  34  35
ENDBRANCH  33  34
ENDBRANCH  32  33
ENDBRANCH  31  32
ENDBRANCH  30  31
ENDBRANCH  29  30
ENDBRANCH  28  29
ENDBRANCH  27  28
ENDBRANCH  26  27
ENDBRANCH  25  26
ENDBRANCH  24  25
ENDBRANCH  23  24
ENDBRANCH  22  23
ENDBRANCH  21  22
ENDBRANCH  20  21
ENDBRANCH  19  20
TORSDOF 17
ENDMDL
MODEL 6
REMARK VINA RESULT:      -7.0      4.085      6.743
REMARK  Name = NuBBE_1567
REMARK  18 active torsions:
REMARK  status: ('A' for Active; 'I' for Inactive)
REMARK    1  A    between atoms: C_19  and  C_20
REMARK    2  A    between atoms: C_20  and  C_21
REMARK    3  A    between atoms: C_21  and  C_22
REMARK    4  A    between atoms: C_22  and  C_23
REMARK    5  A    between atoms: C_23  and  C_24
REMARK    6  A    between atoms: C_24  and  C_25
REMARK    7  A    between atoms: C_25  and  C_26
REMARK    8  A    between atoms: C_26  and  C_27
REMARK    9  A    between atoms: C_27  and  C_28
REMARK   10  A    between atoms: C_28  and  C_29
REMARK   11  A    between atoms: C_29  and  C_30
REMARK   12  A    between atoms: C_30  and  C_31
REMARK   13  A    between atoms: C_31  and  C_32
REMARK   14  A    between atoms: C_32  and  C_33
REMARK   15  A    between atoms: C_33  and  C_34
REMARK   16  A    between atoms: C_34  and  C_35
REMARK   17  A    between atoms: C_35  and  C_36
REMARK   18  A    between atoms: C_36  and  C_37
REMARK                            x       y       z     vdW  Elec       q    Type
REMARK                         _______ _______ _______ _____ _____    ______ ____
ROOT
ATOM      1  O   LIG A   1      -6.539   5.252 134.271  0.00  0.00    -0.287 OA
ATOM      2  C   LIG A   1      -6.726   5.817 133.109  0.00  0.00    +0.200 A 
ATOM      3  C   LIG A   1      -5.576   6.176 132.395  0.00  0.00    +0.064 A 
ATOM      4  C   LIG A   1      -4.246   5.864 132.723  0.00  0.00    +0.015 A 
ATOM      5  C   LIG A   1      -3.193   6.249 131.904  0.00  0.00    +0.001 A 
ATOM      6  C   LIG A   1      -3.448   6.852 130.671  0.00  0.00    +0.004 A 
ATOM      7  C   LIG A   1      -4.770   7.097 130.277  0.00  0.00    +0.047 A 
ATOM      8  C   LIG A   1      -5.831   6.811 131.143  0.00  0.00    +0.139 A 
ATOM      9  O   LIG A   1      -7.096   7.210 130.818  0.00  0.00    -0.454 OA
ATOM     10  C   LIG A   1      -8.171   6.715 131.515  0.00  0.00    +0.149 A 
ATOM     11  C   LIG A   1      -9.499   6.857 130.942  0.00  0.00    +0.059 A 
ATOM     12  C   LIG A   1     -10.597   6.229 131.535  0.00  0.00    +0.132 A 
ATOM     13  C   LIG A   1     -11.883   6.445 131.031  0.00  0.00    +0.046 A 
ATOM     14  C   LIG A   1     -12.074   7.198 129.867  0.00  0.00    +0.004 A 
ATOM     15  C   LIG A   1     -10.971   7.682 129.172  0.00  0.00    +0.001 A 
ATOM     16  C   LIG A   1      -9.694   7.524 129.712  0.00  0.00    +0.015 A 
ATOM     17  O   LIG A   1     -10.481   5.291 132.536  0.00  0.00    -0.483 OA
ATOM     18  C   LIG A   1      -8.055   5.938 132.643  0.00  0.00    +0.083 A 
ATOM     19  C   LIG A   1      -9.187   5.041 133.130  0.00  0.00    +0.211 C 
ENDROOT
BRANCH  19  20
ATOM     20  C   LIG A   1      -8.910   3.480 133.185  0.00  0.00    +0.050 C 
BRANCH  20  21
ATOM     21  C   LIG A   1      -9.641   2.427 132.308  0.00  0.00    +0.004 C 
BRANCH  21  22
ATOM     22  C   LIG A   1      -9.078   2.094 130.914  0.00  0.00    +0.000 C 
BRANCH  22  23
ATOM     23  C   LIG A   1      -9.110   3.208 129.905  0.00  0.00    -0.000 C 
BRANCH  23  24
ATOM     24  C   LIG A   1      -7.827   3.882 129.522  0.00  0.00    -0.000 C 
BRANCH  24  25
ATOM     25  C   LIG A   1      -6.633   3.375 130.246  0.00  0.00    -0.000 C 
BRANCH  25  26
ATOM     26  C   LIG A   1      -5.573   2.783 129.312  0.00  0.00    -0.000 C 
BRANCH  26  27
ATOM     27  C   LIG A   1      -5.924   1.321 129.073  0.00  0.00    -0.000 C 
BRANCH  27  28
ATOM     28  C   LIG A   1      -6.520   0.966 127.734  0.00  0.00    -0.000 C 
BRANCH  28  29
ATOM     29  C   LIG A   1      -7.844   0.215 127.814  0.00  0.00    -0.000 C 
BRANCH  29  30
ATOM     30  C   LIG A   1      -8.549  -0.107 126.461  0.00  0.00    -0.000 C 
BRANCH  30  31
ATOM     31  C   LIG A   1      -8.528  -1.502 125.748  0.00  0.00    -0.000 C 
BRANCH  31  32
ATOM     32  C   LIG A   1      -9.258  -2.829 126.201  0.00  0.00    -0.000 C 
BRANCH  32  33
ATOM     33  C   LIG A   1      -8.810  -3.730 127.412  0.00  0.00    -0.000 C 
BRANCH  33  34
ATOM     34  C   LIG A   1      -8.376  -3.296 128.916  0.00  0.00    -0.000 C 
BRANCH  34  35
ATOM     35  C   LIG A   1      -7.038  -3.590 129.696  0.00  0.00    -0.000 C 
BRANCH  35  36
ATOM     36  C   LIG A   1      -5.884  -2.528 129.475  0.00  0.00    -0.003 C 
ATOM     37  C   LIG A   1      -5.276  -2.487 128.070  0.00  0.00    +0.004 C 
ENDBRANCH  35  36
ENDBRANCH  34  35
ENDBRANCH  33  34
ENDBRANCH  32  33
ENDBRANCH  31  32
ENDBRANCH  30  31
ENDBRANCH  29  30
ENDBRANCH  28  29
ENDBRANCH  27  28
ENDBRANCH  26  27
ENDBRANCH  25  26
ENDBRANCH  24  25
ENDBRANCH  23  24
ENDBRANCH  22  23
ENDBRANCH  21  22
ENDBRANCH  20  21
ENDBRANCH  19  20
TORSDOF 17
ENDMDL
MODEL 7
REMARK VINA RESULT:      -7.0      5.080      7.127
REMARK  Name = NuBBE_1567
REMARK  18 active torsions:
REMARK  status: ('A' for Active; 'I' for Inactive)
REMARK    1  A    between atoms: C_19  and  C_20
REMARK    2  A    between atoms: C_20  and  C_21
REMARK    3  A    between atoms: C_21  and  C_22
REMARK    4  A    between atoms: C_22  and  C_23
REMARK    5  A    between atoms: C_23  and  C_24
REMARK    6  A    between atoms: C_24  and  C_25
REMARK    7  A    between atoms: C_25  and  C_26
REMARK    8  A    between atoms: C_26  and  C_27
REMARK    9  A    between atoms: C_27  and  C_28
REMARK   10  A    between atoms: C_28  and  C_29
REMARK   11  A    between atoms: C_29  and  C_30
REMARK   12  A    between atoms: C_30  and  C_31
REMARK   13  A    between atoms: C_31  and  C_32
REMARK   14  A    between atoms: C_32  and  C_33
REMARK   15  A    between atoms: C_33  and  C_34
REMARK   16  A    between atoms: C_34  and  C_35
REMARK   17  A    between atoms: C_35  and  C_36
REMARK   18  A    between atoms: C_36  and  C_37
REMARK                            x       y       z     vdW  Elec       q    Type
REMARK                         _______ _______ _______ _____ _____    ______ ____
ROOT
ATOM      1  O   LIG A   1      -7.853   4.449 133.214  0.00  0.00    -0.287 OA
ATOM      2  C   LIG A   1      -7.809   5.363 132.281  0.00  0.00    +0.200 A 
ATOM      3  C   LIG A   1      -6.566   5.967 132.055  0.00  0.00    +0.064 A 
ATOM      4  C   LIG A   1      -5.332   5.599 132.617  0.00  0.00    +0.015 A 
ATOM      5  C   LIG A   1      -4.160   6.261 132.277  0.00  0.00    +0.001 A 
ATOM      6  C   LIG A   1      -4.168   7.230 131.274  0.00  0.00    +0.004 A 
ATOM      7  C   LIG A   1      -5.370   7.558 130.633  0.00  0.00    +0.047 A 
ATOM      8  C   LIG A   1      -6.573   6.974 131.044  0.00  0.00    +0.139 A 
ATOM      9  O   LIG A   1      -7.755   7.425 130.529  0.00  0.00    -0.454 OA
ATOM     10  C   LIG A   1      -8.906   6.699 130.718  0.00  0.00    +0.149 A 
ATOM     11  C   LIG A   1     -10.057   6.989 129.880  0.00  0.00    +0.059 A 
ATOM     12  C   LIG A   1     -11.190   6.171 129.926  0.00  0.00    +0.132 A 
ATOM     13  C   LIG A   1     -12.326   6.509 129.186  0.00  0.00    +0.046 A 
ATOM     14  C   LIG A   1     -12.307   7.599 128.309  0.00  0.00    +0.004 A 
ATOM     15  C   LIG A   1     -11.129   8.314 128.126  0.00  0.00    +0.001 A 
ATOM     16  C   LIG A   1     -10.016   8.020 128.915  0.00  0.00    +0.015 A 
ATOM     17  O   LIG A   1     -11.220   4.958 130.576  0.00  0.00    -0.483 OA
ATOM     18  C   LIG A   1      -8.986   5.596 131.534  0.00  0.00    +0.083 A 
ATOM     19  C   LIG A   1     -10.094   4.559 131.390  0.00  0.00    +0.211 C 
ENDROOT
BRANCH  19  20
ATOM     20  C   LIG A   1      -9.664   3.076 131.029  0.00  0.00    +0.050 C 
BRANCH  20  21
ATOM     21  C   LIG A   1      -9.935   1.839 131.928  0.00  0.00    +0.004 C 
BRANCH  21  22
ATOM     22  C   LIG A   1      -8.902   0.698 131.962  0.00  0.00    +0.000 C 
BRANCH  22  23
ATOM     23  C   LIG A   1      -8.325   0.290 130.635  0.00  0.00    -0.000 C 
BRANCH  23  24
ATOM     24  C   LIG A   1      -7.596  -1.016 130.527  0.00  0.00    -0.000 C 
BRANCH  24  25
ATOM     25  C   LIG A   1      -7.789  -1.716 129.231  0.00  0.00    -0.000 C 
BRANCH  25  26
ATOM     26  C   LIG A   1      -7.598  -3.232 129.335  0.00  0.00    -0.000 C 
BRANCH  26  27
ATOM     27  C   LIG A   1      -6.705  -3.511 130.536  0.00  0.00    -0.000 C 
BRANCH  27  28
ATOM     28  C   LIG A   1      -5.404  -4.227 130.275  0.00  0.00    -0.000 C 
BRANCH  28  29
ATOM     29  C   LIG A   1      -4.448  -3.479 129.353  0.00  0.00    -0.000 C 
BRANCH  29  30
ATOM     30  C   LIG A   1      -3.486  -2.453 130.025  0.00  0.00    -0.000 C 
BRANCH  30  31
ATOM     31  C   LIG A   1      -3.942  -1.158 130.779  0.00  0.00    -0.000 C 
BRANCH  31  32
ATOM     32  C   LIG A   1      -4.093   0.301 130.188  0.00  0.00    -0.000 C 
BRANCH  32  33
ATOM     33  C   LIG A   1      -4.869   1.477 130.890  0.00  0.00    -0.000 C 
BRANCH  33  34
ATOM     34  C   LIG A   1      -5.407   2.876 130.265  0.00  0.00    -0.000 C 
BRANCH  34  35
ATOM     35  C   LIG A   1      -4.818   3.736 129.080  0.00  0.00    -0.000 C 
BRANCH  35  36
ATOM     36  C   LIG A   1      -3.357   4.297 129.320  0.00  0.00    -0.003 C 
ATOM     37  C   LIG A   1      -2.704   4.990 128.122  0.00  0.00    +0.004 C 
ENDBRANCH  35  36
ENDBRANCH  34  35
ENDBRANCH  33  34
ENDBRANCH  32  33
ENDBRANCH  31  32
ENDBRANCH  30  31
ENDBRANCH  29  30
ENDBRANCH  28  29
ENDBRANCH  27  28
ENDBRANCH  26  27
ENDBRANCH  25  26
ENDBRANCH  24  25
ENDBRANCH  23  24
ENDBRANCH  22  23
ENDBRANCH  21  22
ENDBRANCH  20  21
ENDBRANCH  19  20
TORSDOF 17
ENDMDL
MODEL 8
REMARK VINA RESULT:      -7.0      3.942      6.641
REMARK  Name = NuBBE_1567
REMARK  18 active torsions:
REMARK  status: ('A' for Active; 'I' for Inactive)
REMARK    1  A    between atoms: C_19  and  C_20
REMARK    2  A    between atoms: C_20  and  C_21
REMARK    3  A    between atoms: C_21  and  C_22
REMARK    4  A    between atoms: C_22  and  C_23
REMARK    5  A    between atoms: C_23  and  C_24
REMARK    6  A    between atoms: C_24  and  C_25
REMARK    7  A    between atoms: C_25  and  C_26
REMARK    8  A    between atoms: C_26  and  C_27
REMARK    9  A    between atoms: C_27  and  C_28
REMARK   10  A    between atoms: C_28  and  C_29
REMARK   11  A    between atoms: C_29  and  C_30
REMARK   12  A    between atoms: C_30  and  C_31
REMARK   13  A    between atoms: C_31  and  C_32
REMARK   14  A    between atoms: C_32  and  C_33
REMARK   15  A    between atoms: C_33  and  C_34
REMARK   16  A    between atoms: C_34  and  C_35
REMARK   17  A    between atoms: C_35  and  C_36
REMARK   18  A    between atoms: C_36  and  C_37
REMARK                            x       y       z     vdW  Elec       q    Type
REMARK                         _______ _______ _______ _____ _____    ______ ____
ROOT
ATOM      1  O   LIG A   1      -6.308   5.049 132.250  0.00  0.00    -0.287 OA
ATOM      2  C   LIG A   1      -7.094   5.079 131.207  0.00  0.00    +0.200 A 
ATOM      3  C   LIG A   1      -6.589   4.523 130.025  0.00  0.00    +0.064 A 
ATOM      4  C   LIG A   1      -5.389   3.806 129.874  0.00  0.00    +0.015 A 
ATOM      5  C   LIG A   1      -5.021   3.272 128.647  0.00  0.00    +0.001 A 
ATOM      6  C   LIG A   1      -5.898   3.332 127.564  0.00  0.00    +0.004 A 
ATOM      7  C   LIG A   1      -7.140   3.965 127.709  0.00  0.00    +0.047 A 
ATOM      8  C   LIG A   1      -7.473   4.602 128.909  0.00  0.00    +0.139 A 
ATOM      9  O   LIG A   1      -8.609   5.357 128.981  0.00  0.00    -0.454 OA
ATOM     10  C   LIG A   1      -9.083   5.765 130.205  0.00  0.00    +0.149 A 
ATOM     11  C   LIG A   1     -10.452   6.244 130.296  0.00  0.00    +0.059 A 
ATOM     12  C   LIG A   1     -11.025   6.515 131.541  0.00  0.00    +0.132 A 
ATOM     13  C   LIG A   1     -12.310   7.062 131.616  0.00  0.00    +0.046 A 
ATOM     14  C   LIG A   1     -13.076   7.239 130.459  0.00  0.00    +0.004 A 
ATOM     15  C   LIG A   1     -12.580   6.811 129.232  0.00  0.00    +0.001 A 
ATOM     16  C   LIG A   1     -11.273   6.328 129.149  0.00  0.00    +0.015 A 
ATOM     17  O   LIG A   1     -10.441   6.158 132.736  0.00  0.00    -0.483 OA
ATOM     18  C   LIG A   1      -8.400   5.588 131.384  0.00  0.00    +0.083 A 
ATOM     19  C   LIG A   1      -9.099   5.620 132.739  0.00  0.00    +0.211 C 
ENDROOT
BRANCH  19  20
ATOM     20  C   LIG A   1      -9.048   4.302 133.618  0.00  0.00    +0.050 C 
BRANCH  20  21
ATOM     21  C   LIG A   1      -8.823   2.874 133.048  0.00  0.00    +0.004 C 
BRANCH  21  22
ATOM     22  C   LIG A   1      -9.707   2.384 131.888  0.00  0.00    +0.000 C 
BRANCH  22  23
ATOM     23  C   LIG A   1      -8.982   1.844 130.687  0.00  0.00    -0.000 C 
BRANCH  23  24
ATOM     24  C   LIG A   1      -7.842   0.891 130.890  0.00  0.00    -0.000 C 
BRANCH  24  25
ATOM     25  C   LIG A   1      -7.179   0.457 129.634  0.00  0.00    -0.000 C 
BRANCH  25  26
ATOM     26  C   LIG A   1      -8.151   0.325 128.458  0.00  0.00    -0.000 C 
BRANCH  26  27
ATOM     27  C   LIG A   1      -7.330   0.116 127.193  0.00  0.00    -0.000 C 
BRANCH  27  28
ATOM     28  C   LIG A   1      -5.918  -0.385 127.364  0.00  0.00    -0.000 C 
BRANCH  28  29
ATOM     29  C   LIG A   1      -5.581  -1.616 126.530  0.00  0.00    -0.000 C 
BRANCH  29  30
ATOM     30  C   LIG A   1      -6.546  -1.948 125.352  0.00  0.00    -0.000 C 
BRANCH  30  31
ATOM     31  C   LIG A   1      -7.620  -3.089 125.367  0.00  0.00    -0.000 C 
BRANCH  31  32
ATOM     32  C   LIG A   1      -8.951  -3.151 126.219  0.00  0.00    -0.000 C 
BRANCH  32  33
ATOM     33  C   LIG A   1      -9.072  -3.802 127.648  0.00  0.00    -0.000 C 
BRANCH  33  34
ATOM     34  C   LIG A   1      -8.363  -3.367 129.043  0.00  0.00    -0.000 C 
BRANCH  34  35
ATOM     35  C   LIG A   1      -6.830  -3.313 129.413  0.00  0.00    -0.000 C 
BRANCH  35  36
ATOM     36  C   LIG A   1      -6.505  -3.497 130.952  0.00  0.00    -0.003 C 
ATOM     37  C   LIG A   1      -7.378  -2.692 131.919  0.00  0.00    +0.004 C 
ENDBRANCH  35  36
ENDBRANCH  34  35
ENDBRANCH  33  34
ENDBRANCH  32  33
ENDBRANCH  31  32
ENDBRANCH  30  31
ENDBRANCH  29  30
ENDBRANCH  28  29
ENDBRANCH  27  28
ENDBRANCH  26  27
ENDBRANCH  25  26
ENDBRANCH  24  25
ENDBRANCH  23  24
ENDBRANCH  22  23
ENDBRANCH  21  22
ENDBRANCH  20  21
ENDBRANCH  19  20
TORSDOF 17
ENDMDL
MODEL 9
REMARK VINA RESULT:      -7.0      3.938      6.435
REMARK  Name = NuBBE_1567
REMARK  18 active torsions:
REMARK  status: ('A' for Active; 'I' for Inactive)
REMARK    1  A    between atoms: C_19  and  C_20
REMARK    2  A    between atoms: C_20  and  C_21
REMARK    3  A    between atoms: C_21  and  C_22
REMARK    4  A    between atoms: C_22  and  C_23
REMARK    5  A    between atoms: C_23  and  C_24
REMARK    6  A    between atoms: C_24  and  C_25
REMARK    7  A    between atoms: C_25  and  C_26
REMARK    8  A    between atoms: C_26  and  C_27
REMARK    9  A    between atoms: C_27  and  C_28
REMARK   10  A    between atoms: C_28  and  C_29
REMARK   11  A    between atoms: C_29  and  C_30
REMARK   12  A    between atoms: C_30  and  C_31
REMARK   13  A    between atoms: C_31  and  C_32
REMARK   14  A    between atoms: C_32  and  C_33
REMARK   15  A    between atoms: C_33  and  C_34
REMARK   16  A    between atoms: C_34  and  C_35
REMARK   17  A    between atoms: C_35  and  C_36
REMARK   18  A    between atoms: C_36  and  C_37
REMARK                            x       y       z     vdW  Elec       q    Type
REMARK                         _______ _______ _______ _____ _____    ______ ____
ROOT
ATOM      1  O   LIG A   1      -5.456   5.915 133.721  0.00  0.00    -0.287 OA
ATOM      2  C   LIG A   1      -5.953   5.885 132.513  0.00  0.00    +0.200 A 
ATOM      3  C   LIG A   1      -5.059   5.598 131.474  0.00  0.00    +0.064 A 
ATOM      4  C   LIG A   1      -3.719   5.194 131.600  0.00  0.00    +0.015 A 
ATOM      5  C   LIG A   1      -2.948   4.901 130.484  0.00  0.00    +0.001 A 
ATOM      6  C   LIG A   1      -3.528   4.885 129.215  0.00  0.00    +0.004 A 
ATOM      7  C   LIG A   1      -4.886   5.199 129.068  0.00  0.00    +0.047 A 
ATOM      8  C   LIG A   1      -5.643   5.601 130.173  0.00  0.00    +0.139 A 
ATOM      9  O   LIG A   1      -6.914   6.065 129.989  0.00  0.00    -0.454 OA
ATOM     10  C   LIG A   1      -7.752   6.212 131.068  0.00  0.00    +0.149 A 
ATOM     11  C   LIG A   1      -9.178   6.354 130.827  0.00  0.00    +0.059 A 
ATOM     12  C   LIG A   1     -10.081   6.343 131.894  0.00  0.00    +0.132 A 
ATOM     13  C   LIG A   1     -11.440   6.571 131.663  0.00  0.00    +0.046 A 
ATOM     14  C   LIG A   1     -11.928   6.701 130.358  0.00  0.00    +0.004 A 
ATOM     15  C   LIG A   1     -11.064   6.540 129.281  0.00  0.00    +0.001 A 
ATOM     16  C   LIG A   1      -9.697   6.380 129.513  0.00  0.00    +0.015 A 
ATOM     17  O   LIG A   1      -9.728   5.993 133.178  0.00  0.00    -0.483 OA
ATOM     18  C   LIG A   1      -7.348   6.060 132.372  0.00  0.00    +0.083 A 
ATOM     19  C   LIG A   1      -8.335   5.777 133.500  0.00  0.00    +0.211 C 
ENDROOT
BRANCH  19  20
ATOM     20  C   LIG A   1      -8.168   4.413 134.291  0.00  0.00    +0.050 C 
BRANCH  20  21
ATOM     21  C   LIG A   1      -8.286   3.004 133.646  0.00  0.00    +0.004 C 
BRANCH  21  22
ATOM     22  C   LIG A   1      -9.613   2.594 132.983  0.00  0.00    +0.000 C 
BRANCH  22  23
ATOM     23  C   LIG A   1      -9.700   2.802 131.496  0.00  0.00    -0.000 C 
BRANCH  23  24
ATOM     24  C   LIG A   1      -8.501   2.505 130.646  0.00  0.00    -0.000 C 
BRANCH  24  25
ATOM     25  C   LIG A   1      -8.642   2.920 129.227  0.00  0.00    -0.000 C 
BRANCH  25  26
ATOM     26  C   LIG A   1      -8.413   1.772 128.241  0.00  0.00    -0.000 C 
BRANCH  26  27
ATOM     27  C   LIG A   1      -7.636   0.680 128.965  0.00  0.00    -0.000 C 
BRANCH  27  28
ATOM     28  C   LIG A   1      -7.421  -0.617 128.226  0.00  0.00    -0.000 C 
BRANCH  28  29
ATOM     29  C   LIG A   1      -7.215  -1.828 129.129  0.00  0.00    -0.000 C 
BRANCH  29  30
ATOM     30  C   LIG A   1      -8.323  -2.924 129.092  0.00  0.00    -0.000 C 
BRANCH  30  31
ATOM     31  C   LIG A   1      -8.621  -3.859 127.871  0.00  0.00    -0.000 C 
BRANCH  31  32
ATOM     32  C   LIG A   1      -9.077  -3.433 126.418  0.00  0.00    -0.000 C 
BRANCH  32  33
ATOM     33  C   LIG A   1      -8.183  -2.639 125.393  0.00  0.00    -0.000 C 
BRANCH  33  34
ATOM     34  C   LIG A   1      -6.579  -2.721 125.145  0.00  0.00    -0.000 C 
BRANCH  34  35
ATOM     35  C   LIG A   1      -5.763  -2.544 123.807  0.00  0.00    -0.000 C 
BRANCH  35  36
ATOM     36  C   LIG A   1      -4.414  -3.370 123.731  0.00  0.00    -0.003 C 
ATOM     37  C   LIG A   1      -4.568  -4.885 123.572  0.00  0.00    +0.004 C 
ENDBRANCH  35  36
ENDBRANCH  34  35
ENDBRANCH  33  34
ENDBRANCH  32  33
ENDBRANCH  31  32
ENDBRANCH  30  31
ENDBRANCH  29  30
ENDBRANCH  28  29
ENDBRANCH  27  28
ENDBRANCH  26  27
ENDBRANCH  25  26
ENDBRANCH  24  25
ENDBRANCH  23  24
ENDBRANCH  22  23
ENDBRANCH  21  22
ENDBRANCH  20  21
ENDBRANCH  19  20
TORSDOF 17
ENDMDL
