MODEL 1
REMARK VINA RESULT:      -7.7      0.000      0.000
REMARK  Name = NuBBE_1189
REMARK  7 active torsions:
REMARK  status: ('A' for Active; 'I' for Inactive)
REMARK    1  A    between atoms: C_3  and  C_4
REMARK    2  A    between atoms: C_6  and  O_7
REMARK    3  A    between atoms: C_8  and  O_9
REMARK    4  A    between atoms: O_9  and  C_10
REMARK    5  A    between atoms: C_18  and  O_19
REMARK    6  A    between atoms: C_20  and  O_21
REMARK    7  A    between atoms: O_21  and  C_22
REMARK                            x       y       z     vdW  Elec       q    Type
REMARK                         _______ _______ _______ _____ _____    ______ ____
ROOT
ATOM      1  O   LIG A   1     -11.145   3.867 130.049  0.00  0.00    -0.286 OA
ATOM      2  C   LIG A   1     -10.379   4.263 130.917  0.00  0.00    +0.200 A 
ATOM      3  C   LIG A   1     -10.265   5.702 131.319  0.00  0.00    +0.064 A 
ATOM      4  C   LIG A   1      -9.396   5.984 132.303  0.00  0.00    +0.208 A 
ATOM      5  O   LIG A   1      -8.620   5.096 133.003  0.00  0.00    -0.462 OA
ATOM      6  C   LIG A   1      -9.509   3.309 131.628  0.00  0.00    +0.068 A 
ATOM      7  C   LIG A   1      -8.689   3.779 132.642  0.00  0.00    +0.142 A 
ATOM      8  C   LIG A   1      -7.875   2.901 133.350  0.00  0.00    +0.096 A 
ATOM      9  C   LIG A   1      -7.870   1.543 133.025  0.00  0.00    +0.162 A 
ATOM     10  C   LIG A   1      -8.676   1.054 131.986  0.00  0.00    +0.162 A 
ATOM     11  C   LIG A   1      -9.503   1.949 131.293  0.00  0.00    +0.064 A 
ENDROOT
BRANCH   3  12
ATOM     12  C   LIG A   1     -11.043   6.782 130.672  0.00  0.00    -0.008 A 
ATOM     13  C   LIG A   1     -10.587   7.385 129.493  0.00  0.00    +0.058 A 
ATOM     14  C   LIG A   1     -11.329   8.386 128.854  0.00  0.00    +0.159 A 
ATOM     15  C   LIG A   1     -12.538   8.829 129.397  0.00  0.00    +0.161 A 
ATOM     16  C   LIG A   1     -12.993   8.236 130.578  0.00  0.00    +0.050 A 
ATOM     17  C   LIG A   1     -12.265   7.221 131.204  0.00  0.00    +0.012 A 
BRANCH  14  18
ATOM     18  O   LIG A   1     -10.828   8.902 127.689  0.00  0.00    -0.503 OA
ATOM     19  H   LIG A   1     -10.989   9.861 127.674  0.00  0.00    +0.292 HD
ENDBRANCH  14  18
BRANCH  15  20
ATOM     20  O   LIG A   1     -13.381   9.796 128.926  0.00  0.00    -0.491 OA
ATOM     21  C   LIG A   1     -13.508  10.986 129.690  0.00  0.00    +0.277 C 
ENDBRANCH  15  20
ENDBRANCH   3  12
BRANCH   9  22
ATOM     22  O   LIG A   1      -7.058   0.721 133.755  0.00  0.00    -0.503 OA
ATOM     23  H   LIG A   1      -7.599   0.151 134.325  0.00  0.00    +0.292 HD
ENDBRANCH   9  22
BRANCH  10  24
ATOM     24  O   LIG A   1      -8.772  -0.235 131.532  0.00  0.00    -0.491 OA
ATOM     25  C   LIG A   1      -7.899  -0.631 130.483  0.00  0.00    +0.277 C 
ENDBRANCH  10  24
TORSDOF 5
ENDMDL
MODEL 2
REMARK VINA RESULT:      -7.3      1.012      2.467
REMARK  Name = NuBBE_1189
REMARK  7 active torsions:
REMARK  status: ('A' for Active; 'I' for Inactive)
REMARK    1  A    between atoms: C_3  and  C_4
REMARK    2  A    between atoms: C_6  and  O_7
REMARK    3  A    between atoms: C_8  and  O_9
REMARK    4  A    between atoms: O_9  and  C_10
REMARK    5  A    between atoms: C_18  and  O_19
REMARK    6  A    between atoms: C_20  and  O_21
REMARK    7  A    between atoms: O_21  and  C_22
REMARK                            x       y       z     vdW  Elec       q    Type
REMARK                         _______ _______ _______ _____ _____    ______ ____
ROOT
ATOM      1  O   LIG A   1      -9.221   6.461 132.520  0.00  0.00    -0.286 OA
ATOM      2  C   LIG A   1      -9.620   5.442 131.973  0.00  0.00    +0.200 A 
ATOM      3  C   LIG A   1     -10.681   5.438 130.914  0.00  0.00    +0.064 A 
ATOM      4  C   LIG A   1     -11.001   4.245 130.390  0.00  0.00    +0.208 A 
ATOM      5  O   LIG A   1     -10.445   3.030 130.694  0.00  0.00    -0.462 OA
ATOM      6  C   LIG A   1      -9.055   4.133 132.344  0.00  0.00    +0.068 A 
ATOM      7  C   LIG A   1      -9.490   3.001 131.672  0.00  0.00    +0.142 A 
ATOM      8  C   LIG A   1      -8.957   1.754 131.980  0.00  0.00    +0.096 A 
ATOM      9  C   LIG A   1      -7.995   1.638 132.984  0.00  0.00    +0.162 A 
ATOM     10  C   LIG A   1      -7.560   2.769 133.692  0.00  0.00    +0.162 A 
ATOM     11  C   LIG A   1      -8.094   4.021 133.357  0.00  0.00    +0.064 A 
ENDROOT
BRANCH   3  12
ATOM     12  C   LIG A   1     -11.370   6.667 130.463  0.00  0.00    -0.008 A 
ATOM     13  C   LIG A   1     -10.964   7.330 129.298  0.00  0.00    +0.058 A 
ATOM     14  C   LIG A   1     -11.626   8.476 128.843  0.00  0.00    +0.159 A 
ATOM     15  C   LIG A   1     -12.701   9.005 129.562  0.00  0.00    +0.161 A 
ATOM     16  C   LIG A   1     -13.106   8.352 130.730  0.00  0.00    +0.050 A 
ATOM     17  C   LIG A   1     -12.459   7.196 131.172  0.00  0.00    +0.012 A 
BRANCH  14  18
ATOM     18  O   LIG A   1     -11.186   9.045 127.679  0.00  0.00    -0.503 OA
ATOM     19  H   LIG A   1     -11.590   8.579 126.927  0.00  0.00    +0.292 HD
ENDBRANCH  14  18
BRANCH  15  20
ATOM     20  O   LIG A   1     -13.452  10.112 129.282  0.00  0.00    -0.491 OA
ATOM     21  C   LIG A   1     -13.464  11.158 130.242  0.00  0.00    +0.277 C 
ENDBRANCH  15  20
ENDBRANCH   3  12
BRANCH   9  22
ATOM     22  O   LIG A   1      -7.498   0.391 133.244  0.00  0.00    -0.503 OA
ATOM     23  H   LIG A   1      -7.714   0.139 134.156  0.00  0.00    +0.292 HD
ENDBRANCH   9  22
BRANCH  10  24
ATOM     24  O   LIG A   1      -6.645   2.824 134.710  0.00  0.00    -0.491 OA
ATOM     25  C   LIG A   1      -6.087   4.092 135.026  0.00  0.00    +0.277 C 
ENDBRANCH  10  24
TORSDOF 5
ENDMDL
MODEL 3
REMARK VINA RESULT:      -7.2      7.524      8.795
REMARK  Name = NuBBE_1189
REMARK  7 active torsions:
REMARK  status: ('A' for Active; 'I' for Inactive)
REMARK    1  A    between atoms: C_3  and  C_4
REMARK    2  A    between atoms: C_6  and  O_7
REMARK    3  A    between atoms: C_8  and  O_9
REMARK    4  A    between atoms: O_9  and  C_10
REMARK    5  A    between atoms: C_18  and  O_19
REMARK    6  A    between atoms: C_20  and  O_21
REMARK    7  A    between atoms: O_21  and  C_22
REMARK                            x       y       z     vdW  Elec       q    Type
REMARK                         _______ _______ _______ _____ _____    ______ ____
ROOT
ATOM      1  O   LIG A   1      -7.100   0.433 123.374  0.00  0.00    -0.286 OA
ATOM      2  C   LIG A   1      -7.443   1.294 124.173  0.00  0.00    +0.200 A 
ATOM      3  C   LIG A   1      -7.719   2.715 123.783  0.00  0.00    +0.064 A 
ATOM      4  C   LIG A   1      -8.109   3.542 124.767  0.00  0.00    +0.208 A 
ATOM      5  O   LIG A   1      -8.311   3.225 126.084  0.00  0.00    -0.462 OA
ATOM      6  C   LIG A   1      -7.608   0.958 125.599  0.00  0.00    +0.068 A 
ATOM      7  C   LIG A   1      -8.047   1.941 126.472  0.00  0.00    +0.142 A 
ATOM      8  C   LIG A   1      -8.237   1.649 127.818  0.00  0.00    +0.096 A 
ATOM      9  C   LIG A   1      -7.966   0.366 128.296  0.00  0.00    +0.162 A 
ATOM     10  C   LIG A   1      -7.497  -0.635 127.431  0.00  0.00    +0.162 A 
ATOM     11  C   LIG A   1      -7.327  -0.329 126.074  0.00  0.00    +0.064 A 
ENDROOT
BRANCH   3  12
ATOM     12  C   LIG A   1      -7.561   3.214 122.400  0.00  0.00    -0.008 A 
ATOM     13  C   LIG A   1      -8.673   3.373 121.564  0.00  0.00    +0.058 A 
ATOM     14  C   LIG A   1      -8.541   3.873 120.263  0.00  0.00    +0.159 A 
ATOM     15  C   LIG A   1      -7.282   4.203 119.755  0.00  0.00    +0.161 A 
ATOM     16  C   LIG A   1      -6.167   4.038 120.582  0.00  0.00    +0.050 A 
ATOM     17  C   LIG A   1      -6.301   3.560 121.888  0.00  0.00    +0.012 A 
BRANCH  14  18
ATOM     18  O   LIG A   1      -9.682   4.028 119.523  0.00  0.00    -0.503 OA
ATOM     19  H   LIG A   1     -10.453   3.937 120.108  0.00  0.00    +0.292 HD
ENDBRANCH  14  18
BRANCH  15  20
ATOM     20  O   LIG A   1      -6.961   4.685 118.517  0.00  0.00    -0.491 OA
ATOM     21  C   LIG A   1      -5.986   5.715 118.445  0.00  0.00    +0.277 C 
ENDBRANCH  15  20
ENDBRANCH   3  12
BRANCH   9  22
ATOM     22  O   LIG A   1      -8.176   0.128 129.626  0.00  0.00    -0.503 OA
ATOM     23  H   LIG A   1      -7.877  -0.768 129.848  0.00  0.00    +0.292 HD
ENDBRANCH   9  22
BRANCH  10  24
ATOM     24  O   LIG A   1      -7.168  -1.928 127.742  0.00  0.00    -0.491 OA
ATOM     25  C   LIG A   1      -8.183  -2.914 127.620  0.00  0.00    +0.277 C 
ENDBRANCH  10  24
TORSDOF 5
ENDMDL
MODEL 4
REMARK VINA RESULT:      -6.8      8.579     11.431
REMARK  Name = NuBBE_1189
REMARK  7 active torsions:
REMARK  status: ('A' for Active; 'I' for Inactive)
REMARK    1  A    between atoms: C_3  and  C_4
REMARK    2  A    between atoms: C_6  and  O_7
REMARK    3  A    between atoms: C_8  and  O_9
REMARK    4  A    between atoms: O_9  and  C_10
REMARK    5  A    between atoms: C_18  and  O_19
REMARK    6  A    between atoms: C_20  and  O_21
REMARK    7  A    between atoms: O_21  and  C_22
REMARK                            x       y       z     vdW  Elec       q    Type
REMARK                         _______ _______ _______ _____ _____    ______ ____
ROOT
ATOM      1  O   LIG A   1      -5.904  -1.650 128.116  0.00  0.00    -0.286 OA
ATOM      2  C   LIG A   1      -6.911  -2.298 127.867  0.00  0.00    +0.200 A 
ATOM      3  C   LIG A   1      -7.538  -3.251 128.838  0.00  0.00    +0.064 A 
ATOM      4  C   LIG A   1      -8.655  -3.875 128.431  0.00  0.00    +0.208 A 
ATOM      5  O   LIG A   1      -9.305  -3.716 127.235  0.00  0.00    -0.462 OA
ATOM      6  C   LIG A   1      -7.574  -2.161 126.557  0.00  0.00    +0.068 A 
ATOM      7  C   LIG A   1      -8.744  -2.868 126.321  0.00  0.00    +0.142 A 
ATOM      8  C   LIG A   1      -9.407  -2.740 125.106  0.00  0.00    +0.096 A 
ATOM      9  C   LIG A   1      -8.884  -1.912 124.112  0.00  0.00    +0.162 A 
ATOM     10  C   LIG A   1      -7.689  -1.207 124.324  0.00  0.00    +0.162 A 
ATOM     11  C   LIG A   1      -7.042  -1.333 125.561  0.00  0.00    +0.064 A 
ENDROOT
BRANCH   3  12
ATOM     12  C   LIG A   1      -6.968  -3.525 130.176  0.00  0.00    -0.008 A 
ATOM     13  C   LIG A   1      -7.442  -2.851 131.308  0.00  0.00    +0.058 A 
ATOM     14  C   LIG A   1      -6.934  -3.123 132.584  0.00  0.00    +0.159 A 
ATOM     15  C   LIG A   1      -5.913  -4.063 132.754  0.00  0.00    +0.161 A 
ATOM     16  C   LIG A   1      -5.431  -4.732 131.626  0.00  0.00    +0.050 A 
ATOM     17  C   LIG A   1      -5.954  -4.478 130.356  0.00  0.00    +0.012 A 
BRANCH  14  18
ATOM     18  O   LIG A   1      -7.473  -2.443 133.642  0.00  0.00    -0.503 OA
ATOM     19  H   LIG A   1      -6.869  -2.508 134.400  0.00  0.00    +0.292 HD
ENDBRANCH  14  18
BRANCH  15  20
ATOM     20  O   LIG A   1      -5.289  -4.444 133.908  0.00  0.00    -0.491 OA
ATOM     21  C   LIG A   1      -5.750  -5.626 134.545  0.00  0.00    +0.277 C 
ENDBRANCH  15  20
ENDBRANCH   3  12
BRANCH   9  22
ATOM     22  O   LIG A   1      -9.578  -1.816 122.938  0.00  0.00    -0.503 OA
ATOM     23  H   LIG A   1      -8.960  -1.653 122.207  0.00  0.00    +0.292 HD
ENDBRANCH   9  22
BRANCH  10  24
ATOM     24  O   LIG A   1      -7.037  -0.376 123.452  0.00  0.00    -0.491 OA
ATOM     25  C   LIG A   1      -7.227   1.023 123.610  0.00  0.00    +0.277 C 
ENDBRANCH  10  24
TORSDOF 5
ENDMDL
MODEL 5
REMARK VINA RESULT:      -6.7      3.346      4.571
REMARK  Name = NuBBE_1189
REMARK  7 active torsions:
REMARK  status: ('A' for Active; 'I' for Inactive)
REMARK    1  A    between atoms: C_3  and  C_4
REMARK    2  A    between atoms: C_6  and  O_7
REMARK    3  A    between atoms: C_8  and  O_9
REMARK    4  A    between atoms: O_9  and  C_10
REMARK    5  A    between atoms: C_18  and  O_19
REMARK    6  A    between atoms: C_20  and  O_21
REMARK    7  A    between atoms: O_21  and  C_22
REMARK                            x       y       z     vdW  Elec       q    Type
REMARK                         _______ _______ _______ _____ _____    ______ ____
ROOT
ATOM      1  O   LIG A   1      -6.946   7.486 130.647  0.00  0.00    -0.286 OA
ATOM      2  C   LIG A   1      -7.207   6.646 131.496  0.00  0.00    +0.200 A 
ATOM      3  C   LIG A   1      -8.594   6.141 131.756  0.00  0.00    +0.064 A 
ATOM      4  C   LIG A   1      -8.724   5.201 132.706  0.00  0.00    +0.208 A 
ATOM      5  O   LIG A   1      -7.724   4.629 133.447  0.00  0.00    -0.462 OA
ATOM      6  C   LIG A   1      -6.132   6.073 132.327  0.00  0.00    +0.068 A 
ATOM      7  C   LIG A   1      -6.450   5.085 133.246  0.00  0.00    +0.142 A 
ATOM      8  C   LIG A   1      -5.455   4.506 134.027  0.00  0.00    +0.096 A 
ATOM      9  C   LIG A   1      -4.133   4.935 133.898  0.00  0.00    +0.162 A 
ATOM     10  C   LIG A   1      -3.797   5.951 132.990  0.00  0.00    +0.162 A 
ATOM     11  C   LIG A   1      -4.809   6.512 132.199  0.00  0.00    +0.064 A 
ENDROOT
BRANCH   3  12
ATOM     12  C   LIG A   1      -9.781   6.647 131.031  0.00  0.00    -0.008 A 
ATOM     13  C   LIG A   1     -11.042   6.658 131.642  0.00  0.00    +0.058 A 
ATOM     14  C   LIG A   1     -12.167   7.161 130.979  0.00  0.00    +0.159 A 
ATOM     15  C   LIG A   1     -12.063   7.644 129.672  0.00  0.00    +0.161 A 
ATOM     16  C   LIG A   1     -10.809   7.628 129.055  0.00  0.00    +0.050 A 
ATOM     17  C   LIG A   1      -9.681   7.146 129.724  0.00  0.00    +0.012 A 
BRANCH  14  18
ATOM     18  O   LIG A   1     -13.356   7.165 131.657  0.00  0.00    -0.503 OA
ATOM     19  H   LIG A   1     -14.009   7.673 131.147  0.00  0.00    +0.292 HD
ENDBRANCH  14  18
BRANCH  15  20
ATOM     20  O   LIG A   1     -13.045   8.155 128.870  0.00  0.00    -0.491 OA
ATOM     21  C   LIG A   1     -13.226   9.563 128.868  0.00  0.00    +0.277 C 
ENDBRANCH  15  20
ENDBRANCH   3  12
BRANCH   9  22
ATOM     22  O   LIG A   1      -3.192   4.330 134.683  0.00  0.00    -0.503 OA
ATOM     23  H   LIG A   1      -2.493   4.967 134.903  0.00  0.00    +0.292 HD
ENDBRANCH   9  22
BRANCH  10  24
ATOM     24  O   LIG A   1      -2.562   6.496 132.758  0.00  0.00    -0.491 OA
ATOM     25  C   LIG A   1      -2.452   7.461 131.721  0.00  0.00    +0.277 C 
ENDBRANCH  10  24
TORSDOF 5
ENDMDL
MODEL 6
REMARK VINA RESULT:      -6.7      9.000     11.271
REMARK  Name = NuBBE_1189
REMARK  7 active torsions:
REMARK  status: ('A' for Active; 'I' for Inactive)
REMARK    1  A    between atoms: C_3  and  C_4
REMARK    2  A    between atoms: C_6  and  O_7
REMARK    3  A    between atoms: C_8  and  O_9
REMARK    4  A    between atoms: O_9  and  C_10
REMARK    5  A    between atoms: C_18  and  O_19
REMARK    6  A    between atoms: C_20  and  O_21
REMARK    7  A    between atoms: O_21  and  C_22
REMARK                            x       y       z     vdW  Elec       q    Type
REMARK                         _______ _______ _______ _____ _____    ______ ____
ROOT
ATOM      1  O   LIG A   1      -8.674  -3.593 128.802  0.00  0.00    -0.286 OA
ATOM      2  C   LIG A   1      -7.638  -3.032 128.472  0.00  0.00    +0.200 A 
ATOM      3  C   LIG A   1      -6.466  -2.860 129.390  0.00  0.00    +0.064 A 
ATOM      4  C   LIG A   1      -5.389  -2.242 128.879  0.00  0.00    +0.208 A 
ATOM      5  O   LIG A   1      -5.230  -1.775 127.601  0.00  0.00    -0.462 OA
ATOM      6  C   LIG A   1      -7.495  -2.485 127.111  0.00  0.00    +0.068 A 
ATOM      7  C   LIG A   1      -6.291  -1.900 126.747  0.00  0.00    +0.142 A 
ATOM      8  C   LIG A   1      -6.115  -1.397 125.463  0.00  0.00    +0.096 A 
ATOM      9  C   LIG A   1      -7.161  -1.465 124.541  0.00  0.00    +0.162 A 
ATOM     10  C   LIG A   1      -8.394  -2.032 124.898  0.00  0.00    +0.162 A 
ATOM     11  C   LIG A   1      -8.550  -2.549 126.192  0.00  0.00    +0.064 A 
ENDROOT
BRANCH   3  12
ATOM     12  C   LIG A   1      -6.472  -3.321 130.796  0.00  0.00    -0.008 A 
ATOM     13  C   LIG A   1      -7.258  -2.675 131.758  0.00  0.00    +0.058 A 
ATOM     14  C   LIG A   1      -7.297  -3.119 133.085  0.00  0.00    +0.159 A 
ATOM     15  C   LIG A   1      -6.524  -4.211 133.489  0.00  0.00    +0.161 A 
ATOM     16  C   LIG A   1      -5.731  -4.855 132.535  0.00  0.00    +0.050 A 
ATOM     17  C   LIG A   1      -5.710  -4.425 131.205  0.00  0.00    +0.012 A 
BRANCH  14  18
ATOM     18  O   LIG A   1      -8.115  -2.452 133.955  0.00  0.00    -0.503 OA
ATOM     19  H   LIG A   1      -8.452  -1.650 133.520  0.00  0.00    +0.292 HD
ENDBRANCH  14  18
BRANCH  15  20
ATOM     20  O   LIG A   1      -6.423  -4.771 134.731  0.00  0.00    -0.491 OA
ATOM     21  C   LIG A   1      -5.495  -5.832 134.902  0.00  0.00    +0.277 C 
ENDBRANCH  15  20
ENDBRANCH   3  12
BRANCH   9  22
ATOM     22  O   LIG A   1      -6.935  -0.963 123.289  0.00  0.00    -0.503 OA
ATOM     23  H   LIG A   1      -7.336  -0.082 123.215  0.00  0.00    +0.292 HD
ENDBRANCH   9  22
BRANCH  10  24
ATOM     24  O   LIG A   1      -9.518  -2.156 124.125  0.00  0.00    -0.491 OA
ATOM     25  C   LIG A   1      -9.607  -3.287 123.271  0.00  0.00    +0.277 C 
ENDBRANCH  10  24
TORSDOF 5
ENDMDL
MODEL 7
REMARK VINA RESULT:      -6.3      6.602      8.627
REMARK  Name = NuBBE_1189
REMARK  7 active torsions:
REMARK  status: ('A' for Active; 'I' for Inactive)
REMARK    1  A    between atoms: C_3  and  C_4
REMARK    2  A    between atoms: C_6  and  O_7
REMARK    3  A    between atoms: C_8  and  O_9
REMARK    4  A    between atoms: O_9  and  C_10
REMARK    5  A    between atoms: C_18  and  O_19
REMARK    6  A    between atoms: C_20  and  O_21
REMARK    7  A    between atoms: O_21  and  C_22
REMARK                            x       y       z     vdW  Elec       q    Type
REMARK                         _______ _______ _______ _____ _____    ______ ____
ROOT
ATOM      1  O   LIG A   1      -5.614   1.366 125.924  0.00  0.00    -0.286 OA
ATOM      2  C   LIG A   1      -6.604   2.037 125.668  0.00  0.00    +0.200 A 
ATOM      3  C   LIG A   1      -6.823   3.420 126.204  0.00  0.00    +0.064 A 
ATOM      4  C   LIG A   1      -7.948   4.043 125.817  0.00  0.00    +0.208 A 
ATOM      5  O   LIG A   1      -8.907   3.566 124.962  0.00  0.00    -0.462 OA
ATOM      6  C   LIG A   1      -7.657   1.497 124.789  0.00  0.00    +0.068 A 
ATOM      7  C   LIG A   1      -8.743   2.299 124.474  0.00  0.00    +0.142 A 
ATOM      8  C   LIG A   1      -9.741   1.828 123.627  0.00  0.00    +0.096 A 
ATOM      9  C   LIG A   1      -9.658   0.536 123.108  0.00  0.00    +0.162 A 
ATOM     10  C   LIG A   1      -8.579  -0.299 123.435  0.00  0.00    +0.162 A 
ATOM     11  C   LIG A   1      -7.573   0.196 124.276  0.00  0.00    +0.064 A 
ENDROOT
BRANCH   3  12
ATOM     12  C   LIG A   1      -5.876   4.083 127.127  0.00  0.00    -0.008 A 
ATOM     13  C   LIG A   1      -6.124   4.116 128.505  0.00  0.00    +0.058 A 
ATOM     14  C   LIG A   1      -5.221   4.713 129.393  0.00  0.00    +0.159 A 
ATOM     15  C   LIG A   1      -4.055   5.318 128.917  0.00  0.00    +0.161 A 
ATOM     16  C   LIG A   1      -3.806   5.295 127.542  0.00  0.00    +0.050 A 
ATOM     17  C   LIG A   1      -4.696   4.679 126.658  0.00  0.00    +0.012 A 
BRANCH  14  18
ATOM     18  O   LIG A   1      -5.522   4.675 130.727  0.00  0.00    -0.503 OA
ATOM     19  H   LIG A   1      -5.385   5.559 131.107  0.00  0.00    +0.292 HD
ENDBRANCH  14  18
BRANCH  15  20
ATOM     20  O   LIG A   1      -3.076   5.956 129.626  0.00  0.00    -0.491 OA
ATOM     21  C   LIG A   1      -2.034   6.581 128.891  0.00  0.00    +0.277 C 
ENDBRANCH  15  20
ENDBRANCH   3  12
BRANCH   9  22
ATOM     22  O   LIG A   1     -10.661   0.123 122.275  0.00  0.00    -0.503 OA
ATOM     23  H   LIG A   1     -10.280  -0.208 121.446  0.00  0.00    +0.292 HD
ENDBRANCH   9  22
BRANCH  10  24
ATOM     24  O   LIG A   1      -8.360  -1.589 123.030  0.00  0.00    -0.491 OA
ATOM     25  C   LIG A   1      -8.913  -2.631 123.822  0.00  0.00    +0.277 C 
ENDBRANCH  10  24
TORSDOF 5
ENDMDL
MODEL 8
REMARK VINA RESULT:      -6.3      1.844      2.233
REMARK  Name = NuBBE_1189
REMARK  7 active torsions:
REMARK  status: ('A' for Active; 'I' for Inactive)
REMARK    1  A    between atoms: C_3  and  C_4
REMARK    2  A    between atoms: C_6  and  O_7
REMARK    3  A    between atoms: C_8  and  O_9
REMARK    4  A    between atoms: O_9  and  C_10
REMARK    5  A    between atoms: C_18  and  O_19
REMARK    6  A    between atoms: C_20  and  O_21
REMARK    7  A    between atoms: O_21  and  C_22
REMARK                            x       y       z     vdW  Elec       q    Type
REMARK                         _______ _______ _______ _____ _____    ______ ____
ROOT
ATOM      1  O   LIG A   1     -10.063   3.564 129.637  0.00  0.00    -0.286 OA
ATOM      2  C   LIG A   1      -9.127   4.088 130.225  0.00  0.00    +0.200 A 
ATOM      3  C   LIG A   1      -9.107   5.534 130.619  0.00  0.00    +0.064 A 
ATOM      4  C   LIG A   1      -8.019   5.962 131.279  0.00  0.00    +0.208 A 
ATOM      5  O   LIG A   1      -6.935   5.216 131.661  0.00  0.00    -0.462 OA
ATOM      6  C   LIG A   1      -7.939   3.291 130.584  0.00  0.00    +0.068 A 
ATOM      7  C   LIG A   1      -6.916   3.898 131.296  0.00  0.00    +0.142 A 
ATOM      8  C   LIG A   1      -5.794   3.168 131.673  0.00  0.00    +0.096 A 
ATOM      9  C   LIG A   1      -5.689   1.822 131.317  0.00  0.00    +0.162 A 
ATOM     10  C   LIG A   1      -6.704   1.198 130.576  0.00  0.00    +0.162 A 
ATOM     11  C   LIG A   1      -7.836   1.943 130.219  0.00  0.00    +0.064 A 
ENDROOT
BRANCH   3  12
ATOM     12  C   LIG A   1     -10.206   6.470 130.294  0.00  0.00    -0.008 A 
ATOM     13  C   LIG A   1     -11.368   6.508 131.075  0.00  0.00    +0.058 A 
ATOM     14  C   LIG A   1     -12.403   7.410 130.798  0.00  0.00    +0.159 A 
ATOM     15  C   LIG A   1     -12.310   8.281 129.710  0.00  0.00    +0.161 A 
ATOM     16  C   LIG A   1     -11.156   8.241 128.922  0.00  0.00    +0.050 A 
ATOM     17  C   LIG A   1     -10.114   7.357 129.212  0.00  0.00    +0.012 A 
BRANCH  14  18
ATOM     18  O   LIG A   1     -13.490   7.405 131.629  0.00  0.00    -0.503 OA
ATOM     19  H   LIG A   1     -13.242   7.811 132.476  0.00  0.00    +0.292 HD
ENDBRANCH  14  18
BRANCH  15  20
ATOM     20  O   LIG A   1     -13.217   9.209 129.281  0.00  0.00    -0.491 OA
ATOM     21  C   LIG A   1     -13.226  10.470 129.935  0.00  0.00    +0.277 C 
ENDBRANCH  15  20
ENDBRANCH   3  12
BRANCH   9  22
ATOM     22  O   LIG A   1      -4.570   1.147 131.717  0.00  0.00    -0.503 OA
ATOM     23  H   LIG A   1      -4.603   1.003 132.677  0.00  0.00    +0.292 HD
ENDBRANCH   9  22
BRANCH  10  24
ATOM     24  O   LIG A   1      -6.746  -0.098 130.133  0.00  0.00    -0.491 OA
ATOM     25  C   LIG A   1      -7.760  -0.942 130.661  0.00  0.00    +0.277 C 
ENDBRANCH  10  24
TORSDOF 5
ENDMDL
MODEL 9
REMARK VINA RESULT:      -6.2      2.275      4.443
REMARK  Name = NuBBE_1189
REMARK  7 active torsions:
REMARK  status: ('A' for Active; 'I' for Inactive)
REMARK    1  A    between atoms: C_3  and  C_4
REMARK    2  A    between atoms: C_6  and  O_7
REMARK    3  A    between atoms: C_8  and  O_9
REMARK    4  A    between atoms: O_9  and  C_10
REMARK    5  A    between atoms: C_18  and  O_19
REMARK    6  A    between atoms: C_20  and  O_21
REMARK    7  A    between atoms: O_21  and  C_22
REMARK                            x       y       z     vdW  Elec       q    Type
REMARK                         _______ _______ _______ _____ _____    ______ ____
ROOT
ATOM      1  O   LIG A   1      -7.985   2.560 129.125  0.00  0.00    -0.286 OA
ATOM      2  C   LIG A   1      -8.329   1.760 129.983  0.00  0.00    +0.200 A 
ATOM      3  C   LIG A   1      -9.318   2.086 131.062  0.00  0.00    +0.064 A 
ATOM      4  C   LIG A   1      -9.615   1.098 131.922  0.00  0.00    +0.208 A 
ATOM      5  O   LIG A   1      -9.136  -0.186 131.907  0.00  0.00    -0.462 OA
ATOM      6  C   LIG A   1      -7.769   0.397 129.992  0.00  0.00    +0.068 A 
ATOM      7  C   LIG A   1      -8.217  -0.505 130.946  0.00  0.00    +0.142 A 
ATOM      8  C   LIG A   1      -7.728  -1.806 130.965  0.00  0.00    +0.096 A 
ATOM      9  C   LIG A   1      -6.768  -2.202 130.032  0.00  0.00    +0.162 A 
ATOM     10  C   LIG A   1      -6.286  -1.296 129.074  0.00  0.00    +0.162 A 
ATOM     11  C   LIG A   1      -6.802   0.007 129.058  0.00  0.00    +0.064 A 
ENDROOT
BRANCH   3  12
ATOM     12  C   LIG A   1      -9.937   3.421 131.209  0.00  0.00    -0.008 A 
ATOM     13  C   LIG A   1      -9.534   4.290 132.231  0.00  0.00    +0.058 A 
ATOM     14  C   LIG A   1     -10.089   5.568 132.362  0.00  0.00    +0.159 A 
ATOM     15  C   LIG A   1     -11.087   6.000 131.484  0.00  0.00    +0.161 A 
ATOM     16  C   LIG A   1     -11.499   5.135 130.467  0.00  0.00    +0.050 A 
ATOM     17  C   LIG A   1     -10.928   3.868 130.322  0.00  0.00    +0.012 A 
BRANCH  14  18
ATOM     18  O   LIG A   1      -9.618   6.366 133.369  0.00  0.00    -0.503 OA
ATOM     19  H   LIG A   1      -9.572   7.283 133.050  0.00  0.00    +0.292 HD
ENDBRANCH  14  18
BRANCH  15  20
ATOM     20  O   LIG A   1     -11.749   7.196 131.468  0.00  0.00    -0.491 OA
ATOM     21  C   LIG A   1     -12.685   7.414 130.424  0.00  0.00    +0.277 C 
ENDBRANCH  15  20
ENDBRANCH   3  12
BRANCH   9  22
ATOM     22  O   LIG A   1      -6.325  -3.494 130.089  0.00  0.00    -0.503 OA
ATOM     23  H   LIG A   1      -5.762  -3.611 130.871  0.00  0.00    +0.292 HD
ENDBRANCH   9  22
BRANCH  10  24
ATOM     24  O   LIG A   1      -5.339  -1.517 128.109  0.00  0.00    -0.491 OA
ATOM     25  C   LIG A   1      -5.788  -1.671 126.770  0.00  0.00    +0.277 C 
ENDBRANCH  10  24
TORSDOF 5
ENDMDL
