MODEL 1
REMARK VINA RESULT:      -6.8      0.000      0.000
REMARK  Name = NuBBE_2469
REMARK  16 active torsions:
REMARK  status: ('A' for Active; 'I' for Inactive)
REMARK    1  A    between atoms: O_1  and  C_2
REMARK    2  A    between atoms: C_2  and  C_3
REMARK    3  A    between atoms: C_3  and  C_5
REMARK    4  A    between atoms: C_3  and  C_20
REMARK    5  A    between atoms: C_5  and  C_7
REMARK    6  A    between atoms: C_5  and  C_9
REMARK    7  A    between atoms: C_7  and  O_8
REMARK    8  A    between atoms: C_9  and  C_10
REMARK    9  A    between atoms: C_13  and  O_14
REMARK   10  A    between atoms: O_14  and  C_15
REMARK   11  A    between atoms: C_16  and  O_17
REMARK   12  A    between atoms: O_17  and  C_18
REMARK   13  A    between atoms: C_20  and  C_21
REMARK   14  A    between atoms: C_23  and  O_24
REMARK   15  A    between atoms: O_24  and  C_25
REMARK   16  A    between atoms: C_26  and  O_27
REMARK                            x       y       z     vdW  Elec       q    Type
REMARK                         _______ _______ _______ _____ _____    ______ ____
ROOT
ATOM      1  C   LIG A   1      -6.745  -1.721 123.666  0.00  0.00    +0.024 C 
ENDROOT
BRANCH   1   2
ATOM      2  C   LIG A   1      -5.365  -2.396 123.766  0.00  0.00    +0.160 C 
BRANCH   2   3
ATOM      3  O   LIG A   1      -5.482  -3.774 124.097  0.00  0.00    -0.395 OA
ATOM      4  H   LIG A   1      -5.660  -4.256 123.268  0.00  0.00    +0.209 HD
ENDBRANCH   2   3
ENDBRANCH   1   2
BRANCH   1   5
ATOM      5  C   LIG A   1      -7.921  -2.655 124.148  0.00  0.00    +0.024 C 
BRANCH   5   6
ATOM      6  C   LIG A   1      -9.051  -2.789 123.096  0.00  0.00    +0.160 C 
BRANCH   6   7
ATOM      7  O   LIG A   1     -10.151  -3.510 123.648  0.00  0.00    -0.395 OA
ATOM      8  H   LIG A   1     -10.647  -2.887 124.208  0.00  0.00    +0.209 HD
ENDBRANCH   6   7
ENDBRANCH   5   6
BRANCH   5   9
ATOM      9  C   LIG A   1      -8.588  -2.249 125.498  0.00  0.00    +0.041 C 
BRANCH   9  10
ATOM     10  C   LIG A   1      -8.047  -2.780 126.818  0.00  0.00    -0.043 A 
ATOM     11  C   LIG A   1      -8.859  -3.545 127.660  0.00  0.00    +0.007 A 
ATOM     12  C   LIG A   1      -8.457  -3.816 128.962  0.00  0.00    +0.050 A 
ATOM     13  C   LIG A   1      -7.236  -3.349 129.447  0.00  0.00    +0.162 A 
ATOM     14  C   LIG A   1      -6.361  -2.651 128.605  0.00  0.00    +0.162 A 
ATOM     15  C   LIG A   1      -6.782  -2.367 127.296  0.00  0.00    +0.053 A 
BRANCH  13  16
ATOM     16  O   LIG A   1      -6.873  -3.623 130.752  0.00  0.00    -0.491 OA
ATOM     17  C   LIG A   1      -7.450  -2.764 131.735  0.00  0.00    +0.277 C 
ENDBRANCH  13  16
BRANCH  14  18
ATOM     18  O   LIG A   1      -5.098  -2.226 128.909  0.00  0.00    -0.491 OA
ATOM     19  C   LIG A   1      -4.055  -3.197 128.919  0.00  0.00    +0.277 C 
ENDBRANCH  14  18
ENDBRANCH   9  10
ENDBRANCH   5   9
ENDBRANCH   1   5
BRANCH   1  20
ATOM     20  C   LIG A   1      -6.800  -0.348 124.409  0.00  0.00    +0.041 C 
BRANCH  20  21
ATOM     21  C   LIG A   1      -7.364   0.835 123.640  0.00  0.00    -0.043 A 
ATOM     22  C   LIG A   1      -6.499   1.830 123.129  0.00  0.00    +0.053 A 
ATOM     23  C   LIG A   1      -7.005   2.905 122.389  0.00  0.00    +0.162 A 
ATOM     24  C   LIG A   1      -8.375   2.980 122.145  0.00  0.00    +0.159 A 
ATOM     25  C   LIG A   1      -9.246   2.000 122.626  0.00  0.00    +0.049 A 
ATOM     26  C   LIG A   1      -8.732   0.935 123.370  0.00  0.00    +0.007 A 
BRANCH  23  27
ATOM     27  O   LIG A   1      -6.269   3.939 121.850  0.00  0.00    -0.491 OA
ATOM     28  C   LIG A   1      -5.294   3.578 120.884  0.00  0.00    +0.277 C 
ENDBRANCH  23  27
BRANCH  24  29
ATOM     29  O   LIG A   1      -8.901   4.014 121.424  0.00  0.00    -0.503 OA
ATOM     30  H   LIG A   1      -9.339   4.589 122.082  0.00  0.00    +0.292 HD
ENDBRANCH  24  29
ENDBRANCH  20  21
ENDBRANCH   1  20
TORSDOF 13
ENDMDL
MODEL 2
REMARK VINA RESULT:      -6.6      2.470      5.148
REMARK  Name = NuBBE_2469
REMARK  16 active torsions:
REMARK  status: ('A' for Active; 'I' for Inactive)
REMARK    1  A    between atoms: O_1  and  C_2
REMARK    2  A    between atoms: C_2  and  C_3
REMARK    3  A    between atoms: C_3  and  C_5
REMARK    4  A    between atoms: C_3  and  C_20
REMARK    5  A    between atoms: C_5  and  C_7
REMARK    6  A    between atoms: C_5  and  C_9
REMARK    7  A    between atoms: C_7  and  O_8
REMARK    8  A    between atoms: C_9  and  C_10
REMARK    9  A    between atoms: C_13  and  O_14
REMARK   10  A    between atoms: O_14  and  C_15
REMARK   11  A    between atoms: C_16  and  O_17
REMARK   12  A    between atoms: O_17  and  C_18
REMARK   13  A    between atoms: C_20  and  C_21
REMARK   14  A    between atoms: C_23  and  O_24
REMARK   15  A    between atoms: O_24  and  C_25
REMARK   16  A    between atoms: C_26  and  O_27
REMARK                            x       y       z     vdW  Elec       q    Type
REMARK                         _______ _______ _______ _____ _____    ______ ____
ROOT
ATOM      1  C   LIG A   1      -6.104   3.315 124.645  0.00  0.00    +0.024 C 
ENDROOT
BRANCH   1   2
ATOM      2  C   LIG A   1      -6.867   4.510 125.247  0.00  0.00    +0.160 C 
BRANCH   2   3
ATOM      3  O   LIG A   1      -5.978   5.454 125.831  0.00  0.00    -0.395 OA
ATOM      4  H   LIG A   1      -6.515   6.053 126.381  0.00  0.00    +0.209 HD
ENDBRANCH   2   3
ENDBRANCH   1   2
BRANCH   1   5
ATOM      5  C   LIG A   1      -5.910   2.133 125.670  0.00  0.00    +0.024 C 
BRANCH   5   6
ATOM      6  C   LIG A   1      -4.545   2.193 126.404  0.00  0.00    +0.160 C 
BRANCH   6   7
ATOM      7  O   LIG A   1      -4.592   3.168 127.445  0.00  0.00    -0.395 OA
ATOM      8  H   LIG A   1      -3.680   3.481 127.581  0.00  0.00    +0.209 HD
ENDBRANCH   6   7
ENDBRANCH   5   6
BRANCH   5   9
ATOM      9  C   LIG A   1      -6.054   0.699 125.074  0.00  0.00    +0.041 C 
BRANCH   9  10
ATOM     10  C   LIG A   1      -6.997  -0.311 125.711  0.00  0.00    -0.043 A 
ATOM     11  C   LIG A   1      -6.760  -0.783 127.005  0.00  0.00    +0.007 A 
ATOM     12  C   LIG A   1      -7.465  -1.878 127.490  0.00  0.00    +0.050 A 
ATOM     13  C   LIG A   1      -8.430  -2.513 126.710  0.00  0.00    +0.162 A 
ATOM     14  C   LIG A   1      -8.752  -2.015 125.440  0.00  0.00    +0.162 A 
ATOM     15  C   LIG A   1      -8.023  -0.919 124.950  0.00  0.00    +0.053 A 
BRANCH  13  16
ATOM     16  O   LIG A   1      -9.102  -3.608 127.216  0.00  0.00    -0.491 OA
ATOM     17  C   LIG A   1      -8.840  -3.900 128.589  0.00  0.00    +0.277 C 
ENDBRANCH  13  16
BRANCH  14  18
ATOM     18  O   LIG A   1      -9.739  -2.467 124.610  0.00  0.00    -0.491 OA
ATOM     19  C   LIG A   1      -9.353  -3.240 123.477  0.00  0.00    +0.277 C 
ENDBRANCH  14  18
ENDBRANCH   9  10
ENDBRANCH   5   9
ENDBRANCH   1   5
BRANCH   1  20
ATOM     20  C   LIG A   1      -6.751   2.791 123.324  0.00  0.00    +0.041 C 
BRANCH  20  21
ATOM     21  C   LIG A   1      -6.412   3.534 122.042  0.00  0.00    -0.043 A 
ATOM     22  C   LIG A   1      -7.356   3.611 120.993  0.00  0.00    +0.053 A 
ATOM     23  C   LIG A   1      -7.066   4.323 119.822  0.00  0.00    +0.162 A 
ATOM     24  C   LIG A   1      -5.839   4.972 119.705  0.00  0.00    +0.159 A 
ATOM     25  C   LIG A   1      -4.899   4.925 120.736  0.00  0.00    +0.049 A 
ATOM     26  C   LIG A   1      -5.194   4.205 121.897  0.00  0.00    +0.007 A 
BRANCH  23  27
ATOM     27  O   LIG A   1      -7.895   4.460 118.729  0.00  0.00    -0.491 OA
ATOM     28  C   LIG A   1      -9.286   4.320 118.975  0.00  0.00    +0.277 C 
ENDBRANCH  23  27
BRANCH  24  29
ATOM     29  O   LIG A   1      -5.527   5.678 118.579  0.00  0.00    -0.503 OA
ATOM     30  H   LIG A   1      -5.254   5.008 117.923  0.00  0.00    +0.292 HD
ENDBRANCH  24  29
ENDBRANCH  20  21
ENDBRANCH   1  20
TORSDOF 13
ENDMDL
MODEL 3
REMARK VINA RESULT:      -6.6      2.688      3.708
REMARK  Name = NuBBE_2469
REMARK  16 active torsions:
REMARK  status: ('A' for Active; 'I' for Inactive)
REMARK    1  A    between atoms: O_1  and  C_2
REMARK    2  A    between atoms: C_2  and  C_3
REMARK    3  A    between atoms: C_3  and  C_5
REMARK    4  A    between atoms: C_3  and  C_20
REMARK    5  A    between atoms: C_5  and  C_7
REMARK    6  A    between atoms: C_5  and  C_9
REMARK    7  A    between atoms: C_7  and  O_8
REMARK    8  A    between atoms: C_9  and  C_10
REMARK    9  A    between atoms: C_13  and  O_14
REMARK   10  A    between atoms: O_14  and  C_15
REMARK   11  A    between atoms: C_16  and  O_17
REMARK   12  A    between atoms: O_17  and  C_18
REMARK   13  A    between atoms: C_20  and  C_21
REMARK   14  A    between atoms: C_23  and  O_24
REMARK   15  A    between atoms: O_24  and  C_25
REMARK   16  A    between atoms: C_26  and  O_27
REMARK                            x       y       z     vdW  Elec       q    Type
REMARK                         _______ _______ _______ _____ _____    ______ ____
ROOT
ATOM      1  C   LIG A   1      -7.863  -2.154 124.188  0.00  0.00    +0.024 C 
ENDROOT
BRANCH   1   2
ATOM      2  C   LIG A   1      -8.655  -3.451 123.944  0.00  0.00    +0.160 C 
BRANCH   2   3
ATOM      3  O   LIG A   1      -9.983  -3.178 123.516  0.00  0.00    -0.395 OA
ATOM      4  H   LIG A   1     -10.454  -2.781 124.272  0.00  0.00    +0.209 HD
ENDBRANCH   2   3
ENDBRANCH   1   2
BRANCH   1   5
ATOM      5  C   LIG A   1      -6.315  -2.403 124.358  0.00  0.00    +0.024 C 
BRANCH   5   6
ATOM      6  C   LIG A   1      -5.897  -3.851 123.995  0.00  0.00    +0.160 C 
BRANCH   6   7
ATOM      7  O   LIG A   1      -4.484  -4.000 124.128  0.00  0.00    -0.395 OA
ATOM      8  H   LIG A   1      -4.079  -3.182 123.789  0.00  0.00    +0.209 HD
ENDBRANCH   6   7
ENDBRANCH   5   6
BRANCH   5   9
ATOM      9  C   LIG A   1      -5.738  -2.093 125.773  0.00  0.00    +0.041 C 
BRANCH   9  10
ATOM     10  C   LIG A   1      -6.164  -0.840 126.524  0.00  0.00    -0.043 A 
ATOM     11  C   LIG A   1      -7.326  -0.841 127.302  0.00  0.00    +0.007 A 
ATOM     12  C   LIG A   1      -7.848   0.354 127.780  0.00  0.00    +0.050 A 
ATOM     13  C   LIG A   1      -7.219   1.569 127.512  0.00  0.00    +0.162 A 
ATOM     14  C   LIG A   1      -6.009   1.599 126.806  0.00  0.00    +0.162 A 
ATOM     15  C   LIG A   1      -5.496   0.388 126.313  0.00  0.00    +0.053 A 
BRANCH  13  16
ATOM     16  O   LIG A   1      -7.773   2.742 127.989  0.00  0.00    -0.491 OA
ATOM     17  C   LIG A   1      -8.619   2.593 129.130  0.00  0.00    +0.277 C 
ENDBRANCH  13  16
BRANCH  14  18
ATOM     18  O   LIG A   1      -5.232   2.696 126.560  0.00  0.00    -0.491 OA
ATOM     19  C   LIG A   1      -3.817   2.523 126.559  0.00  0.00    +0.277 C 
ENDBRANCH  14  18
ENDBRANCH   9  10
ENDBRANCH   5   9
ENDBRANCH   1   5
BRANCH   1  20
ATOM     20  C   LIG A   1      -8.123  -1.074 123.089  0.00  0.00    +0.041 C 
BRANCH  20  21
ATOM     21  C   LIG A   1      -8.160   0.378 123.539  0.00  0.00    -0.043 A 
ATOM     22  C   LIG A   1      -7.123   1.264 123.168  0.00  0.00    +0.053 A 
ATOM     23  C   LIG A   1      -7.165   2.611 123.547  0.00  0.00    +0.162 A 
ATOM     24  C   LIG A   1      -8.251   3.079 124.284  0.00  0.00    +0.159 A 
ATOM     25  C   LIG A   1      -9.296   2.225 124.646  0.00  0.00    +0.049 A 
ATOM     26  C   LIG A   1      -9.240   0.881 124.270  0.00  0.00    +0.007 A 
BRANCH  23  27
ATOM     27  O   LIG A   1      -6.213   3.567 123.259  0.00  0.00    -0.491 OA
ATOM     28  C   LIG A   1      -5.962   3.807 121.884  0.00  0.00    +0.277 C 
ENDBRANCH  23  27
BRANCH  24  29
ATOM     29  O   LIG A   1      -8.325   4.388 124.667  0.00  0.00    -0.503 OA
ATOM     30  H   LIG A   1      -9.078   4.759 124.168  0.00  0.00    +0.292 HD
ENDBRANCH  24  29
ENDBRANCH  20  21
ENDBRANCH   1  20
TORSDOF 13
ENDMDL
MODEL 4
REMARK VINA RESULT:      -6.5      7.322      9.530
REMARK  Name = NuBBE_2469
REMARK  16 active torsions:
REMARK  status: ('A' for Active; 'I' for Inactive)
REMARK    1  A    between atoms: O_1  and  C_2
REMARK    2  A    between atoms: C_2  and  C_3
REMARK    3  A    between atoms: C_3  and  C_5
REMARK    4  A    between atoms: C_3  and  C_20
REMARK    5  A    between atoms: C_5  and  C_7
REMARK    6  A    between atoms: C_5  and  C_9
REMARK    7  A    between atoms: C_7  and  O_8
REMARK    8  A    between atoms: C_9  and  C_10
REMARK    9  A    between atoms: C_13  and  O_14
REMARK   10  A    between atoms: O_14  and  C_15
REMARK   11  A    between atoms: C_16  and  O_17
REMARK   12  A    between atoms: O_17  and  C_18
REMARK   13  A    between atoms: C_20  and  C_21
REMARK   14  A    between atoms: C_23  and  O_24
REMARK   15  A    between atoms: O_24  and  C_25
REMARK   16  A    between atoms: C_26  and  O_27
REMARK                            x       y       z     vdW  Elec       q    Type
REMARK                         _______ _______ _______ _____ _____    ______ ____
ROOT
ATOM      1  C   LIG A   1      -9.138   3.698 130.502  0.00  0.00    +0.024 C 
ENDROOT
BRANCH   1   2
ATOM      2  C   LIG A   1     -10.471   2.957 130.709  0.00  0.00    +0.160 C 
BRANCH   2   3
ATOM      3  O   LIG A   1     -11.549   3.641 130.082  0.00  0.00    -0.395 OA
ATOM      4  H   LIG A   1     -11.925   3.037 129.415  0.00  0.00    +0.209 HD
ENDBRANCH   2   3
ENDBRANCH   1   2
BRANCH   1   5
ATOM      5  C   LIG A   1      -8.483   4.171 131.856  0.00  0.00    +0.024 C 
BRANCH   5   6
ATOM      6  C   LIG A   1      -8.878   3.275 133.059  0.00  0.00    +0.160 C 
BRANCH   6   7
ATOM      7  O   LIG A   1      -9.742   3.992 133.940  0.00  0.00    -0.395 OA
ATOM      8  H   LIG A   1     -10.551   3.459 134.039  0.00  0.00    +0.209 HD
ENDBRANCH   6   7
ENDBRANCH   5   6
BRANCH   5   9
ATOM      9  C   LIG A   1      -8.773   5.648 132.262  0.00  0.00    +0.041 C 
BRANCH   9  10
ATOM     10  C   LIG A   1      -9.831   6.458 131.526  0.00  0.00    -0.043 A 
ATOM     11  C   LIG A   1     -11.141   6.515 132.008  0.00  0.00    +0.007 A 
ATOM     12  C   LIG A   1     -12.156   7.039 131.215  0.00  0.00    +0.050 A 
ATOM     13  C   LIG A   1     -11.887   7.530 129.939  0.00  0.00    +0.162 A 
ATOM     14  C   LIG A   1     -10.571   7.564 129.456  0.00  0.00    +0.162 A 
ATOM     15  C   LIG A   1      -9.555   7.019 130.257  0.00  0.00    +0.053 A 
BRANCH  13  16
ATOM     16  O   LIG A   1     -12.921   8.030 129.170  0.00  0.00    -0.491 OA
ATOM     17  C   LIG A   1     -13.047   9.452 129.173  0.00  0.00    +0.277 C 
ENDBRANCH  13  16
BRANCH  14  18
ATOM     18  O   LIG A   1     -10.147   8.107 128.277  0.00  0.00    -0.491 OA
ATOM     19  C   LIG A   1     -10.510   7.443 127.070  0.00  0.00    +0.277 C 
ENDBRANCH  14  18
ENDBRANCH   9  10
ENDBRANCH   5   9
ENDBRANCH   1   5
BRANCH   1  20
ATOM     20  C   LIG A   1      -8.113   2.872 129.661  0.00  0.00    +0.041 C 
BRANCH  20  21
ATOM     21  C   LIG A   1      -8.074   3.133 128.164  0.00  0.00    -0.043 A 
ATOM     22  C   LIG A   1      -8.172   2.059 127.251  0.00  0.00    +0.053 A 
ATOM     23  C   LIG A   1      -8.173   2.292 125.870  0.00  0.00    +0.162 A 
ATOM     24  C   LIG A   1      -8.091   3.601 125.400  0.00  0.00    +0.159 A 
ATOM     25  C   LIG A   1      -8.010   4.679 126.283  0.00  0.00    +0.049 A 
ATOM     26  C   LIG A   1      -8.002   4.435 127.659  0.00  0.00    +0.007 A 
BRANCH  23  27
ATOM     27  O   LIG A   1      -8.251   1.331 124.884  0.00  0.00    -0.491 OA
ATOM     28  C   LIG A   1      -9.399   0.498 124.910  0.00  0.00    +0.277 C 
ENDBRANCH  23  27
BRANCH  24  29
ATOM     29  O   LIG A   1      -8.092   3.863 124.060  0.00  0.00    -0.503 OA
ATOM     30  H   LIG A   1      -8.475   4.758 123.973  0.00  0.00    +0.292 HD
ENDBRANCH  24  29
ENDBRANCH  20  21
ENDBRANCH   1  20
TORSDOF 13
ENDMDL
MODEL 5
REMARK VINA RESULT:      -6.5      9.197     11.408
REMARK  Name = NuBBE_2469
REMARK  16 active torsions:
REMARK  status: ('A' for Active; 'I' for Inactive)
REMARK    1  A    between atoms: O_1  and  C_2
REMARK    2  A    between atoms: C_2  and  C_3
REMARK    3  A    between atoms: C_3  and  C_5
REMARK    4  A    between atoms: C_3  and  C_20
REMARK    5  A    between atoms: C_5  and  C_7
REMARK    6  A    between atoms: C_5  and  C_9
REMARK    7  A    between atoms: C_7  and  O_8
REMARK    8  A    between atoms: C_9  and  C_10
REMARK    9  A    between atoms: C_13  and  O_14
REMARK   10  A    between atoms: O_14  and  C_15
REMARK   11  A    between atoms: C_16  and  O_17
REMARK   12  A    between atoms: O_17  and  C_18
REMARK   13  A    between atoms: C_20  and  C_21
REMARK   14  A    between atoms: C_23  and  O_24
REMARK   15  A    between atoms: O_24  and  C_25
REMARK   16  A    between atoms: C_26  and  O_27
REMARK                            x       y       z     vdW  Elec       q    Type
REMARK                         _______ _______ _______ _____ _____    ______ ____
ROOT
ATOM      1  C   LIG A   1      -8.546   4.894 131.918  0.00  0.00    +0.024 C 
ENDROOT
BRANCH   1   2
ATOM      2  C   LIG A   1      -9.450   4.967 133.162  0.00  0.00    +0.160 C 
BRANCH   2   3
ATOM      3  O   LIG A   1      -9.583   6.303 133.631  0.00  0.00    -0.395 OA
ATOM      4  H   LIG A   1     -10.092   6.795 132.962  0.00  0.00    +0.209 HD
ENDBRANCH   2   3
ENDBRANCH   1   2
BRANCH   1   5
ATOM      5  C   LIG A   1      -9.257   4.222 130.682  0.00  0.00    +0.024 C 
BRANCH   5   6
ATOM      6  C   LIG A   1      -8.552   4.541 129.338  0.00  0.00    +0.160 C 
BRANCH   6   7
ATOM      7  O   LIG A   1      -8.734   3.462 128.422  0.00  0.00    -0.395 OA
ATOM      8  H   LIG A   1      -7.923   3.406 127.885  0.00  0.00    +0.209 HD
ENDBRANCH   6   7
ENDBRANCH   5   6
BRANCH   5   9
ATOM      9  C   LIG A   1     -10.767   4.569 130.507  0.00  0.00    +0.041 C 
BRANCH   9  10
ATOM     10  C   LIG A   1     -11.207   6.005 130.262  0.00  0.00    -0.043 A 
ATOM     11  C   LIG A   1     -12.153   6.608 131.095  0.00  0.00    +0.007 A 
ATOM     12  C   LIG A   1     -12.737   7.815 130.732  0.00  0.00    +0.050 A 
ATOM     13  C   LIG A   1     -12.381   8.455 129.545  0.00  0.00    +0.162 A 
ATOM     14  C   LIG A   1     -11.377   7.920 128.727  0.00  0.00    +0.162 A 
ATOM     15  C   LIG A   1     -10.804   6.692 129.094  0.00  0.00    +0.053 A 
BRANCH  13  16
ATOM     16  O   LIG A   1     -12.992   9.647 129.205  0.00  0.00    -0.491 OA
ATOM     17  C   LIG A   1     -13.275  10.518 130.301  0.00  0.00    +0.277 C 
ENDBRANCH  13  16
BRANCH  14  18
ATOM     18  O   LIG A   1     -10.855   8.485 127.598  0.00  0.00    -0.491 OA
ATOM     19  C   LIG A   1     -11.015   7.783 126.368  0.00  0.00    +0.277 C 
ENDBRANCH  14  18
ENDBRANCH   9  10
ENDBRANCH   5   9
ENDBRANCH   1   5
BRANCH   1  20
ATOM     20  C   LIG A   1      -7.957   6.284 131.519  0.00  0.00    +0.041 C 
BRANCH  20  21
ATOM     21  C   LIG A   1      -6.458   6.476 131.682  0.00  0.00    -0.043 A 
ATOM     22  C   LIG A   1      -5.720   7.185 130.706  0.00  0.00    +0.053 A 
ATOM     23  C   LIG A   1      -4.345   7.397 130.865  0.00  0.00    +0.162 A 
ATOM     24  C   LIG A   1      -3.708   6.914 132.005  0.00  0.00    +0.159 A 
ATOM     25  C   LIG A   1      -4.419   6.226 132.990  0.00  0.00    +0.049 A 
ATOM     26  C   LIG A   1      -5.790   6.013 132.819  0.00  0.00    +0.007 A 
BRANCH  23  27
ATOM     27  O   LIG A   1      -3.518   8.059 129.981  0.00  0.00    -0.491 OA
ATOM     28  C   LIG A   1      -3.900   9.381 129.636  0.00  0.00    +0.277 C 
ENDBRANCH  23  27
BRANCH  24  29
ATOM     29  O   LIG A   1      -2.369   7.106 132.192  0.00  0.00    -0.503 OA
ATOM     30  H   LIG A   1      -2.195   6.827 133.112  0.00  0.00    +0.292 HD
ENDBRANCH  24  29
ENDBRANCH  20  21
ENDBRANCH   1  20
TORSDOF 13
ENDMDL
MODEL 6
REMARK VINA RESULT:      -6.4      2.177      2.399
REMARK  Name = NuBBE_2469
REMARK  16 active torsions:
REMARK  status: ('A' for Active; 'I' for Inactive)
REMARK    1  A    between atoms: O_1  and  C_2
REMARK    2  A    between atoms: C_2  and  C_3
REMARK    3  A    between atoms: C_3  and  C_5
REMARK    4  A    between atoms: C_3  and  C_20
REMARK    5  A    between atoms: C_5  and  C_7
REMARK    6  A    between atoms: C_5  and  C_9
REMARK    7  A    between atoms: C_7  and  O_8
REMARK    8  A    between atoms: C_9  and  C_10
REMARK    9  A    between atoms: C_13  and  O_14
REMARK   10  A    between atoms: O_14  and  C_15
REMARK   11  A    between atoms: C_16  and  O_17
REMARK   12  A    between atoms: O_17  and  C_18
REMARK   13  A    between atoms: C_20  and  C_21
REMARK   14  A    between atoms: C_23  and  O_24
REMARK   15  A    between atoms: O_24  and  C_25
REMARK   16  A    between atoms: C_26  and  O_27
REMARK                            x       y       z     vdW  Elec       q    Type
REMARK                         _______ _______ _______ _____ _____    ______ ____
ROOT
ATOM      1  C   LIG A   1      -7.309  -1.344 123.678  0.00  0.00    +0.024 C 
ENDROOT
BRANCH   1   2
ATOM      2  C   LIG A   1      -6.477  -1.901 122.510  0.00  0.00    +0.160 C 
BRANCH   2   3
ATOM      3  O   LIG A   1      -5.384  -2.684 122.975  0.00  0.00    -0.395 OA
ATOM      4  H   LIG A   1      -5.640  -3.620 122.883  0.00  0.00    +0.209 HD
ENDBRANCH   2   3
ENDBRANCH   1   2
BRANCH   1   5
ATOM      5  C   LIG A   1      -7.953  -2.476 124.567  0.00  0.00    +0.024 C 
BRANCH   5   6
ATOM      6  C   LIG A   1      -8.874  -3.424 123.757  0.00  0.00    +0.160 C 
BRANCH   6   7
ATOM      7  O   LIG A   1     -10.031  -2.719 123.310  0.00  0.00    -0.395 OA
ATOM      8  H   LIG A   1     -10.785  -3.054 123.827  0.00  0.00    +0.209 HD
ENDBRANCH   6   7
ENDBRANCH   5   6
BRANCH   5   9
ATOM      9  C   LIG A   1      -8.767  -1.978 125.800  0.00  0.00    +0.041 C 
BRANCH   9  10
ATOM     10  C   LIG A   1      -8.260  -2.227 127.214  0.00  0.00    -0.043 A 
ATOM     11  C   LIG A   1      -8.564  -3.420 127.875  0.00  0.00    +0.007 A 
ATOM     12  C   LIG A   1      -8.319  -3.546 129.237  0.00  0.00    +0.050 A 
ATOM     13  C   LIG A   1      -7.753  -2.500 129.964  0.00  0.00    +0.162 A 
ATOM     14  C   LIG A   1      -7.359  -1.320 129.316  0.00  0.00    +0.162 A 
ATOM     15  C   LIG A   1      -7.625  -1.195 127.943  0.00  0.00    +0.053 A 
BRANCH  13  16
ATOM     16  O   LIG A   1      -7.537  -2.651 131.320  0.00  0.00    -0.491 OA
ATOM     17  C   LIG A   1      -6.373  -3.401 131.669  0.00  0.00    +0.277 C 
ENDBRANCH  13  16
BRANCH  14  18
ATOM     18  O   LIG A   1      -6.703  -0.261 129.875  0.00  0.00    -0.491 OA
ATOM     19  C   LIG A   1      -6.949   1.035 129.334  0.00  0.00    +0.277 C 
ENDBRANCH  14  18
ENDBRANCH   9  10
ENDBRANCH   5   9
ENDBRANCH   1   5
BRANCH   1  20
ATOM     20  C   LIG A   1      -6.505  -0.344 124.568  0.00  0.00    +0.041 C 
BRANCH  20  21
ATOM     21  C   LIG A   1      -7.115   1.030 124.793  0.00  0.00    -0.043 A 
ATOM     22  C   LIG A   1      -6.444   1.985 125.592  0.00  0.00    +0.053 A 
ATOM     23  C   LIG A   1      -6.981   3.265 125.777  0.00  0.00    +0.162 A 
ATOM     24  C   LIG A   1      -8.180   3.598 125.152  0.00  0.00    +0.159 A 
ATOM     25  C   LIG A   1      -8.851   2.677 124.345  0.00  0.00    +0.049 A 
ATOM     26  C   LIG A   1      -8.312   1.400 124.173  0.00  0.00    +0.007 A 
BRANCH  23  27
ATOM     27  O   LIG A   1      -6.430   4.274 126.539  0.00  0.00    -0.491 OA
ATOM     28  C   LIG A   1      -5.035   4.485 126.387  0.00  0.00    +0.277 C 
ENDBRANCH  23  27
BRANCH  24  29
ATOM     29  O   LIG A   1      -8.729   4.839 125.309  0.00  0.00    -0.503 OA
ATOM     30  H   LIG A   1      -8.034   5.374 125.739  0.00  0.00    +0.292 HD
ENDBRANCH  24  29
ENDBRANCH  20  21
ENDBRANCH   1  20
TORSDOF 13
ENDMDL
MODEL 7
REMARK VINA RESULT:      -6.3      2.425      4.545
REMARK  Name = NuBBE_2469
REMARK  16 active torsions:
REMARK  status: ('A' for Active; 'I' for Inactive)
REMARK    1  A    between atoms: O_1  and  C_2
REMARK    2  A    between atoms: C_2  and  C_3
REMARK    3  A    between atoms: C_3  and  C_5
REMARK    4  A    between atoms: C_3  and  C_20
REMARK    5  A    between atoms: C_5  and  C_7
REMARK    6  A    between atoms: C_5  and  C_9
REMARK    7  A    between atoms: C_7  and  O_8
REMARK    8  A    between atoms: C_9  and  C_10
REMARK    9  A    between atoms: C_13  and  O_14
REMARK   10  A    between atoms: O_14  and  C_15
REMARK   11  A    between atoms: C_16  and  O_17
REMARK   12  A    between atoms: O_17  and  C_18
REMARK   13  A    between atoms: C_20  and  C_21
REMARK   14  A    between atoms: C_23  and  O_24
REMARK   15  A    between atoms: O_24  and  C_25
REMARK   16  A    between atoms: C_26  and  O_27
REMARK                            x       y       z     vdW  Elec       q    Type
REMARK                         _______ _______ _______ _____ _____    ______ ____
ROOT
ATOM      1  C   LIG A   1      -6.614   3.232 124.763  0.00  0.00    +0.024 C 
ENDROOT
BRANCH   1   2
ATOM      2  C   LIG A   1      -7.772   4.037 125.379  0.00  0.00    +0.160 C 
BRANCH   2   3
ATOM      3  O   LIG A   1      -7.492   5.432 125.384  0.00  0.00    -0.395 OA
ATOM      4  H   LIG A   1      -8.340   5.897 125.269  0.00  0.00    +0.209 HD
ENDBRANCH   2   3
ENDBRANCH   1   2
BRANCH   1   5
ATOM      5  C   LIG A   1      -6.094   2.084 125.711  0.00  0.00    +0.024 C 
BRANCH   5   6
ATOM      6  C   LIG A   1      -4.660   2.346 126.240  0.00  0.00    +0.160 C 
BRANCH   6   7
ATOM      7  O   LIG A   1      -4.202   3.624 125.800  0.00  0.00    -0.395 OA
ATOM      8  H   LIG A   1      -3.660   3.473 125.005  0.00  0.00    +0.209 HD
ENDBRANCH   6   7
ENDBRANCH   5   6
BRANCH   5   9
ATOM      9  C   LIG A   1      -6.108   0.650 125.097  0.00  0.00    +0.041 C 
BRANCH   9  10
ATOM     10  C   LIG A   1      -6.460  -0.555 125.958  0.00  0.00    -0.043 A 
ATOM     11  C   LIG A   1      -7.795  -0.910 126.167  0.00  0.00    +0.007 A 
ATOM     12  C   LIG A   1      -8.126  -1.844 127.141  0.00  0.00    +0.050 A 
ATOM     13  C   LIG A   1      -7.139  -2.455 127.914  0.00  0.00    +0.162 A 
ATOM     14  C   LIG A   1      -5.785  -2.183 127.675  0.00  0.00    +0.162 A 
ATOM     15  C   LIG A   1      -5.460  -1.227 126.699  0.00  0.00    +0.053 A 
BRANCH  13  16
ATOM     16  O   LIG A   1      -7.503  -3.367 128.885  0.00  0.00    -0.491 OA
ATOM     17  C   LIG A   1      -7.816  -2.805 130.159  0.00  0.00    +0.277 C 
ENDBRANCH  13  16
BRANCH  14  18
ATOM     18  O   LIG A   1      -4.713  -2.779 128.277  0.00  0.00    -0.491 OA
ATOM     19  C   LIG A   1      -4.197  -2.177 129.462  0.00  0.00    +0.277 C 
ENDBRANCH  14  18
ENDBRANCH   9  10
ENDBRANCH   5   9
ENDBRANCH   1   5
BRANCH   1  20
ATOM     20  C   LIG A   1      -6.962   2.658 123.353  0.00  0.00    +0.041 C 
BRANCH  20  21
ATOM     21  C   LIG A   1      -6.479   3.445 122.145  0.00  0.00    -0.043 A 
ATOM     22  C   LIG A   1      -7.284   3.536 120.987  0.00  0.00    +0.053 A 
ATOM     23  C   LIG A   1      -6.864   4.288 119.883  0.00  0.00    +0.162 A 
ATOM     24  C   LIG A   1      -5.647   4.962 119.940  0.00  0.00    +0.159 A 
ATOM     25  C   LIG A   1      -4.843   4.900 121.080  0.00  0.00    +0.049 A 
ATOM     26  C   LIG A   1      -5.267   4.141 122.174  0.00  0.00    +0.007 A 
BRANCH  23  27
ATOM     27  O   LIG A   1      -7.552   4.443 118.696  0.00  0.00    -0.491 OA
ATOM     28  C   LIG A   1      -8.967   4.381 118.779  0.00  0.00    +0.277 C 
ENDBRANCH  23  27
BRANCH  24  29
ATOM     29  O   LIG A   1      -5.209   5.707 118.882  0.00  0.00    -0.503 OA
ATOM     30  H   LIG A   1      -5.986   6.223 118.593  0.00  0.00    +0.292 HD
ENDBRANCH  24  29
ENDBRANCH  20  21
ENDBRANCH   1  20
TORSDOF 13
ENDMDL
MODEL 8
REMARK VINA RESULT:      -6.3      2.222      6.830
REMARK  Name = NuBBE_2469
REMARK  16 active torsions:
REMARK  status: ('A' for Active; 'I' for Inactive)
REMARK    1  A    between atoms: O_1  and  C_2
REMARK    2  A    between atoms: C_2  and  C_3
REMARK    3  A    between atoms: C_3  and  C_5
REMARK    4  A    between atoms: C_3  and  C_20
REMARK    5  A    between atoms: C_5  and  C_7
REMARK    6  A    between atoms: C_5  and  C_9
REMARK    7  A    between atoms: C_7  and  O_8
REMARK    8  A    between atoms: C_9  and  C_10
REMARK    9  A    between atoms: C_13  and  O_14
REMARK   10  A    between atoms: O_14  and  C_15
REMARK   11  A    between atoms: C_16  and  O_17
REMARK   12  A    between atoms: O_17  and  C_18
REMARK   13  A    between atoms: C_20  and  C_21
REMARK   14  A    between atoms: C_23  and  O_24
REMARK   15  A    between atoms: O_24  and  C_25
REMARK   16  A    between atoms: C_26  and  O_27
REMARK                            x       y       z     vdW  Elec       q    Type
REMARK                         _______ _______ _______ _____ _____    ______ ____
ROOT
ATOM      1  C   LIG A   1      -6.482  -1.370 128.849  0.00  0.00    +0.024 C 
ENDROOT
BRANCH   1   2
ATOM      2  C   LIG A   1      -5.519  -1.623 130.024  0.00  0.00    +0.160 C 
BRANCH   2   3
ATOM      3  O   LIG A   1      -4.161  -1.528 129.614  0.00  0.00    -0.395 OA
ATOM      4  H   LIG A   1      -3.870  -2.425 129.367  0.00  0.00    +0.209 HD
ENDBRANCH   2   3
ENDBRANCH   1   2
BRANCH   1   5
ATOM      5  C   LIG A   1      -6.702   0.163 128.556  0.00  0.00    +0.024 C 
BRANCH   5   6
ATOM      6  C   LIG A   1      -6.499   1.050 129.812  0.00  0.00    +0.160 C 
BRANCH   6   7
ATOM      7  O   LIG A   1      -5.416   1.955 129.603  0.00  0.00    -0.395 OA
ATOM      8  H   LIG A   1      -5.078   2.200 130.483  0.00  0.00    +0.209 HD
ENDBRANCH   6   7
ENDBRANCH   5   6
BRANCH   5   9
ATOM      9  C   LIG A   1      -8.086   0.537 127.942  0.00  0.00    +0.041 C 
BRANCH   9  10
ATOM     10  C   LIG A   1      -8.176   1.124 126.541  0.00  0.00    -0.043 A 
ATOM     11  C   LIG A   1      -7.299   2.135 126.139  0.00  0.00    +0.007 A 
ATOM     12  C   LIG A   1      -7.535   2.841 124.966  0.00  0.00    +0.050 A 
ATOM     13  C   LIG A   1      -8.634   2.545 124.160  0.00  0.00    +0.162 A 
ATOM     14  C   LIG A   1      -9.487   1.483 124.490  0.00  0.00    +0.162 A 
ATOM     15  C   LIG A   1      -9.251   0.786 125.686  0.00  0.00    +0.053 A 
BRANCH  13  16
ATOM     16  O   LIG A   1      -8.849   3.276 123.008  0.00  0.00    -0.491 OA
ATOM     17  C   LIG A   1      -7.817   3.180 122.027  0.00  0.00    +0.277 C 
ENDBRANCH  13  16
BRANCH  14  18
ATOM     18  O   LIG A   1     -10.535   1.016 123.748  0.00  0.00    -0.491 OA
ATOM     19  C   LIG A   1     -10.236   0.279 122.565  0.00  0.00    +0.277 C 
ENDBRANCH  14  18
ENDBRANCH   9  10
ENDBRANCH   5   9
ENDBRANCH   1   5
BRANCH   1  20
ATOM     20  C   LIG A   1      -6.052  -2.118 127.547  0.00  0.00    +0.041 C 
BRANCH  20  21
ATOM     21  C   LIG A   1      -7.127  -2.363 126.501  0.00  0.00    -0.043 A 
ATOM     22  C   LIG A   1      -6.852  -2.143 125.132  0.00  0.00    +0.053 A 
ATOM     23  C   LIG A   1      -7.824  -2.399 124.157  0.00  0.00    +0.162 A 
ATOM     24  C   LIG A   1      -9.068  -2.890 124.548  0.00  0.00    +0.159 A 
ATOM     25  C   LIG A   1      -9.356  -3.131 125.892  0.00  0.00    +0.049 A 
ATOM     26  C   LIG A   1      -8.382  -2.865 126.858  0.00  0.00    +0.007 A 
BRANCH  23  27
ATOM     27  O   LIG A   1      -7.681  -2.214 122.798  0.00  0.00    -0.491 OA
ATOM     28  C   LIG A   1      -6.387  -1.841 122.349  0.00  0.00    +0.277 C 
ENDBRANCH  23  27
BRANCH  24  29
ATOM     29  O   LIG A   1     -10.038  -3.153 123.622  0.00  0.00    -0.503 OA
ATOM     30  H   LIG A   1      -9.835  -4.047 123.285  0.00  0.00    +0.292 HD
ENDBRANCH  24  29
ENDBRANCH  20  21
ENDBRANCH   1  20
TORSDOF 13
ENDMDL
MODEL 9
REMARK VINA RESULT:      -6.3      7.440      9.582
REMARK  Name = NuBBE_2469
REMARK  16 active torsions:
REMARK  status: ('A' for Active; 'I' for Inactive)
REMARK    1  A    between atoms: O_1  and  C_2
REMARK    2  A    between atoms: C_2  and  C_3
REMARK    3  A    between atoms: C_3  and  C_5
REMARK    4  A    between atoms: C_3  and  C_20
REMARK    5  A    between atoms: C_5  and  C_7
REMARK    6  A    between atoms: C_5  and  C_9
REMARK    7  A    between atoms: C_7  and  O_8
REMARK    8  A    between atoms: C_9  and  C_10
REMARK    9  A    between atoms: C_13  and  O_14
REMARK   10  A    between atoms: O_14  and  C_15
REMARK   11  A    between atoms: C_16  and  O_17
REMARK   12  A    between atoms: O_17  and  C_18
REMARK   13  A    between atoms: C_20  and  C_21
REMARK   14  A    between atoms: C_23  and  O_24
REMARK   15  A    between atoms: O_24  and  C_25
REMARK   16  A    between atoms: C_26  and  O_27
REMARK                            x       y       z     vdW  Elec       q    Type
REMARK                         _______ _______ _______ _____ _____    ______ ____
ROOT
ATOM      1  C   LIG A   1      -9.227   3.551 130.584  0.00  0.00    +0.024 C 
ENDROOT
BRANCH   1   2
ATOM      2  C   LIG A   1     -10.676   3.045 130.703  0.00  0.00    +0.160 C 
BRANCH   2   3
ATOM      3  O   LIG A   1     -11.564   3.812 129.899  0.00  0.00    -0.395 OA
ATOM      4  H   LIG A   1     -11.892   4.546 130.450  0.00  0.00    +0.209 HD
ENDBRANCH   2   3
ENDBRANCH   1   2
BRANCH   1   5
ATOM      5  C   LIG A   1      -8.620   4.005 131.966  0.00  0.00    +0.024 C 
BRANCH   5   6
ATOM      6  C   LIG A   1      -9.191   3.203 133.165  0.00  0.00    +0.160 C 
BRANCH   6   7
ATOM      7  O   LIG A   1      -9.780   4.092 134.112  0.00  0.00    -0.395 OA
ATOM      8  H   LIG A   1     -10.653   3.725 134.341  0.00  0.00    +0.209 HD
ENDBRANCH   6   7
ENDBRANCH   5   6
BRANCH   5   9
ATOM      9  C   LIG A   1      -8.777   5.519 132.304  0.00  0.00    +0.041 C 
BRANCH   9  10
ATOM     10  C   LIG A   1      -9.808   6.370 131.575  0.00  0.00    -0.043 A 
ATOM     11  C   LIG A   1     -11.110   6.485 132.072  0.00  0.00    +0.007 A 
ATOM     12  C   LIG A   1     -12.110   7.047 131.289  0.00  0.00    +0.050 A 
ATOM     13  C   LIG A   1     -11.835   7.521 130.007  0.00  0.00    +0.162 A 
ATOM     14  C   LIG A   1     -10.525   7.497 129.509  0.00  0.00    +0.162 A 
ATOM     15  C   LIG A   1      -9.523   6.913 130.301  0.00  0.00    +0.053 A 
BRANCH  13  16
ATOM     16  O   LIG A   1     -12.855   8.061 129.247  0.00  0.00    -0.491 OA
ATOM     17  C   LIG A   1     -12.981   9.481 129.320  0.00  0.00    +0.277 C 
ENDBRANCH  13  16
BRANCH  14  18
ATOM     18  O   LIG A   1     -10.091   8.017 128.322  0.00  0.00    -0.491 OA
ATOM     19  C   LIG A   1     -10.527   7.384 127.121  0.00  0.00    +0.277 C 
ENDBRANCH  14  18
ENDBRANCH   9  10
ENDBRANCH   5   9
ENDBRANCH   1   5
BRANCH   1  20
ATOM     20  C   LIG A   1      -8.284   2.519 129.887  0.00  0.00    +0.041 C 
BRANCH  20  21
ATOM     21  C   LIG A   1      -7.782   2.868 128.495  0.00  0.00    -0.043 A 
ATOM     22  C   LIG A   1      -6.856   3.920 128.315  0.00  0.00    +0.053 A 
ATOM     23  C   LIG A   1      -6.360   4.226 127.042  0.00  0.00    +0.162 A 
ATOM     24  C   LIG A   1      -6.778   3.470 125.948  0.00  0.00    +0.159 A 
ATOM     25  C   LIG A   1      -7.678   2.415 126.105  0.00  0.00    +0.049 A 
ATOM     26  C   LIG A   1      -8.173   2.123 127.379  0.00  0.00    +0.007 A 
BRANCH  23  27
ATOM     27  O   LIG A   1      -5.467   5.232 126.737  0.00  0.00    -0.491 OA
ATOM     28  C   LIG A   1      -4.195   5.151 127.361  0.00  0.00    +0.277 C 
ENDBRANCH  23  27
BRANCH  24  29
ATOM     29  O   LIG A   1      -6.312   3.740 124.693  0.00  0.00    -0.503 OA
ATOM     30  H   LIG A   1      -7.020   4.255 124.261  0.00  0.00    +0.292 HD
ENDBRANCH  24  29
ENDBRANCH  20  21
ENDBRANCH   1  20
TORSDOF 13
ENDMDL
