MODEL 1
REMARK VINA RESULT:      -4.4      0.000      0.000
REMARK  Name = NuBBE_1378
REMARK  6 active torsions:
REMARK  status: ('A' for Active; 'I' for Inactive)
REMARK    1  A    between atoms: C_1  and  C_2
REMARK    2  A    between atoms: C_2  and  C_3
REMARK    3  A    between atoms: C_3  and  C_4
REMARK    4  A    between atoms: C_4  and  C_5
REMARK    5  A    between atoms: C_5  and  C_6
REMARK    6  A    between atoms: C_6  and  C_7
REMARK                            x       y       z     vdW  Elec       q    Type
REMARK                         _______ _______ _______ _____ _____    ______ ____
ROOT
ATOM      1  C   LIG A   1     -13.157   8.555 128.400  0.00  0.00    +0.000 C 
ENDROOT
BRANCH   1   2
ATOM      2  C   LIG A   1     -13.712   9.955 128.684  0.00  0.00    -0.000 C 
BRANCH   2   4
ATOM      3  C   LIG A   1     -13.686  11.921 130.276  0.00  0.00    +0.004 C 
ATOM      4  C   LIG A   1     -13.235  10.487 130.038  0.00  0.00    -0.003 C 
ENDBRANCH   2   4
ENDBRANCH   1   2
BRANCH   1   5
ATOM      5  C   LIG A   1     -11.766   8.363 129.017  0.00  0.00    +0.007 C 
BRANCH   5   6
ATOM      6  C   LIG A   1     -10.645   8.428 127.982  0.00  0.00    +0.071 C 
BRANCH   6   7
ATOM      7  C   LIG A   1     -10.997   7.679 126.723  0.00  0.00    +0.223 C 
ATOM      8  O   LIG A   1     -10.394   6.678 126.341  0.00  0.00    -0.301 OA
ENDBRANCH   6   7
ENDBRANCH   5   6
ENDBRANCH   1   5
TORSDOF 5
ENDMDL
MODEL 2
REMARK VINA RESULT:      -4.2      2.759      4.520
REMARK  Name = NuBBE_1378
REMARK  6 active torsions:
REMARK  status: ('A' for Active; 'I' for Inactive)
REMARK    1  A    between atoms: C_1  and  C_2
REMARK    2  A    between atoms: C_2  and  C_3
REMARK    3  A    between atoms: C_3  and  C_4
REMARK    4  A    between atoms: C_4  and  C_5
REMARK    5  A    between atoms: C_5  and  C_6
REMARK    6  A    between atoms: C_6  and  C_7
REMARK                            x       y       z     vdW  Elec       q    Type
REMARK                         _______ _______ _______ _____ _____    ______ ____
ROOT
ATOM      1  C   LIG A   1     -12.606   7.398 129.145  0.00  0.00    +0.000 C 
ENDROOT
BRANCH   1   2
ATOM      2  C   LIG A   1     -13.378   7.550 127.830  0.00  0.00    -0.000 C 
BRANCH   2   4
ATOM      3  C   LIG A   1     -11.133   7.654 126.671  0.00  0.00    +0.004 C 
ATOM      4  C   LIG A   1     -12.546   7.090 126.631  0.00  0.00    -0.003 C 
ENDBRANCH   2   4
ENDBRANCH   1   2
BRANCH   1   5
ATOM      5  C   LIG A   1     -12.741   8.645 130.027  0.00  0.00    +0.007 C 
BRANCH   5   6
ATOM      6  C   LIG A   1     -13.159   9.886 129.239  0.00  0.00    +0.071 C 
BRANCH   6   7
ATOM      7  C   LIG A   1     -13.476  11.047 130.146  0.00  0.00    +0.223 C 
ATOM      8  O   LIG A   1     -13.503  12.215 129.761  0.00  0.00    -0.301 OA
ENDBRANCH   6   7
ENDBRANCH   5   6
ENDBRANCH   1   5
TORSDOF 5
ENDMDL
MODEL 3
REMARK VINA RESULT:      -4.1     13.862     14.714
REMARK  Name = NuBBE_1378
REMARK  6 active torsions:
REMARK  status: ('A' for Active; 'I' for Inactive)
REMARK    1  A    between atoms: C_1  and  C_2
REMARK    2  A    between atoms: C_2  and  C_3
REMARK    3  A    between atoms: C_3  and  C_4
REMARK    4  A    between atoms: C_4  and  C_5
REMARK    5  A    between atoms: C_5  and  C_6
REMARK    6  A    between atoms: C_6  and  C_7
REMARK                            x       y       z     vdW  Elec       q    Type
REMARK                         _______ _______ _______ _____ _____    ______ ____
ROOT
ATOM      1  C   LIG A   1      -6.901  -2.071 123.704  0.00  0.00    +0.000 C 
ENDROOT
BRANCH   1   2
ATOM      2  C   LIG A   1      -7.434  -2.823 124.929  0.00  0.00    -0.000 C 
BRANCH   2   4
ATOM      3  C   LIG A   1      -9.411  -3.120 123.379  0.00  0.00    +0.004 C 
ATOM      4  C   LIG A   1      -8.657  -3.675 124.579  0.00  0.00    -0.003 C 
ENDBRANCH   2   4
ENDBRANCH   1   2
BRANCH   1   5
ATOM      5  C   LIG A   1      -5.555  -2.637 123.237  0.00  0.00    +0.007 C 
BRANCH   5   6
ATOM      6  C   LIG A   1      -5.018  -3.730 124.158  0.00  0.00    +0.071 C 
BRANCH   6   7
ATOM      7  C   LIG A   1      -3.913  -4.521 123.508  0.00  0.00    +0.223 C 
ATOM      8  O   LIG A   1      -4.105  -5.565 122.888  0.00  0.00    -0.301 OA
ENDBRANCH   6   7
ENDBRANCH   5   6
ENDBRANCH   1   5
TORSDOF 5
ENDMDL
MODEL 4
REMARK VINA RESULT:      -4.1      2.322      3.580
REMARK  Name = NuBBE_1378
REMARK  6 active torsions:
REMARK  status: ('A' for Active; 'I' for Inactive)
REMARK    1  A    between atoms: C_1  and  C_2
REMARK    2  A    between atoms: C_2  and  C_3
REMARK    3  A    between atoms: C_3  and  C_4
REMARK    4  A    between atoms: C_4  and  C_5
REMARK    5  A    between atoms: C_5  and  C_6
REMARK    6  A    between atoms: C_6  and  C_7
REMARK                            x       y       z     vdW  Elec       q    Type
REMARK                         _______ _______ _______ _____ _____    ______ ____
ROOT
ATOM      1  C   LIG A   1     -12.585   8.620 129.942  0.00  0.00    +0.000 C 
ENDROOT
BRANCH   1   2
ATOM      2  C   LIG A   1     -12.994   8.516 128.469  0.00  0.00    -0.000 C 
BRANCH   2   4
ATOM      3  C   LIG A   1     -10.480   8.466 128.189  0.00  0.00    +0.004 C 
ATOM      4  C   LIG A   1     -11.822   8.072 127.589  0.00  0.00    -0.003 C 
ENDBRANCH   2   4
ENDBRANCH   1   2
BRANCH   1   5
ATOM      5  C   LIG A   1     -13.002   7.375 130.733  0.00  0.00    +0.007 C 
BRANCH   5   6
ATOM      6  C   LIG A   1     -11.827   6.702 131.442  0.00  0.00    +0.071 C 
BRANCH   6   7
ATOM      7  C   LIG A   1     -11.300   5.525 130.663  0.00  0.00    +0.223 C 
ATOM      8  O   LIG A   1     -11.775   5.158 129.589  0.00  0.00    -0.301 OA
ENDBRANCH   6   7
ENDBRANCH   5   6
ENDBRANCH   1   5
TORSDOF 5
ENDMDL
MODEL 5
REMARK VINA RESULT:      -4.1      1.641      2.707
REMARK  Name = NuBBE_1378
REMARK  6 active torsions:
REMARK  status: ('A' for Active; 'I' for Inactive)
REMARK    1  A    between atoms: C_1  and  C_2
REMARK    2  A    between atoms: C_2  and  C_3
REMARK    3  A    between atoms: C_3  and  C_4
REMARK    4  A    between atoms: C_4  and  C_5
REMARK    5  A    between atoms: C_5  and  C_6
REMARK    6  A    between atoms: C_6  and  C_7
REMARK                            x       y       z     vdW  Elec       q    Type
REMARK                         _______ _______ _______ _____ _____    ______ ____
ROOT
ATOM      1  C   LIG A   1     -12.603   8.847 128.492  0.00  0.00    +0.000 C 
ENDROOT
BRANCH   1   2
ATOM      2  C   LIG A   1     -12.719   8.734 130.017  0.00  0.00    -0.000 C 
BRANCH   2   4
ATOM      3  C   LIG A   1     -11.633   6.712 131.081  0.00  0.00    +0.004 C 
ATOM      4  C   LIG A   1     -12.902   7.280 130.461  0.00  0.00    -0.003 C 
ENDBRANCH   2   4
ENDBRANCH   1   2
BRANCH   1   5
ATOM      5  C   LIG A   1     -13.252   7.651 127.786  0.00  0.00    +0.007 C 
BRANCH   5   6
ATOM      6  C   LIG A   1     -12.367   7.056 126.693  0.00  0.00    +0.071 C 
BRANCH   6   7
ATOM      7  C   LIG A   1     -10.925   7.462 126.853  0.00  0.00    +0.223 C 
ATOM      8  O   LIG A   1     -10.010   6.655 127.003  0.00  0.00    -0.301 OA
ENDBRANCH   6   7
ENDBRANCH   5   6
ENDBRANCH   1   5
TORSDOF 5
ENDMDL
MODEL 6
REMARK VINA RESULT:      -4.0     12.889     14.453
REMARK  Name = NuBBE_1378
REMARK  6 active torsions:
REMARK  status: ('A' for Active; 'I' for Inactive)
REMARK    1  A    between atoms: C_1  and  C_2
REMARK    2  A    between atoms: C_2  and  C_3
REMARK    3  A    between atoms: C_3  and  C_4
REMARK    4  A    between atoms: C_4  and  C_5
REMARK    5  A    between atoms: C_5  and  C_6
REMARK    6  A    between atoms: C_6  and  C_7
REMARK                            x       y       z     vdW  Elec       q    Type
REMARK                         _______ _______ _______ _____ _____    ______ ____
ROOT
ATOM      1  C   LIG A   1      -6.342  -2.034 122.626  0.00  0.00    +0.000 C 
ENDROOT
BRANCH   1   2
ATOM      2  C   LIG A   1      -5.371  -2.408 123.751  0.00  0.00    -0.000 C 
BRANCH   2   4
ATOM      3  C   LIG A   1      -4.100  -4.583 123.517  0.00  0.00    +0.004 C 
ATOM      4  C   LIG A   1      -5.372  -3.915 124.019  0.00  0.00    -0.003 C 
ENDBRANCH   2   4
ENDBRANCH   1   2
BRANCH   1   5
ATOM      5  C   LIG A   1      -7.690  -1.558 123.180  0.00  0.00    +0.007 C 
BRANCH   5   6
ATOM      6  C   LIG A   1      -8.772  -2.634 123.113  0.00  0.00    +0.071 C 
BRANCH   6   7
ATOM      7  C   LIG A   1      -9.053  -3.234 124.467  0.00  0.00    +0.223 C 
ATOM      8  O   LIG A   1      -9.845  -2.746 125.270  0.00  0.00    -0.301 OA
ENDBRANCH   6   7
ENDBRANCH   5   6
ENDBRANCH   1   5
TORSDOF 5
ENDMDL
MODEL 7
REMARK VINA RESULT:      -4.0      2.741      3.243
REMARK  Name = NuBBE_1378
REMARK  6 active torsions:
REMARK  status: ('A' for Active; 'I' for Inactive)
REMARK    1  A    between atoms: C_1  and  C_2
REMARK    2  A    between atoms: C_2  and  C_3
REMARK    3  A    between atoms: C_3  and  C_4
REMARK    4  A    between atoms: C_4  and  C_5
REMARK    5  A    between atoms: C_5  and  C_6
REMARK    6  A    between atoms: C_6  and  C_7
REMARK                            x       y       z     vdW  Elec       q    Type
REMARK                         _______ _______ _______ _____ _____    ______ ____
ROOT
ATOM      1  C   LIG A   1     -13.357   7.830 128.567  0.00  0.00    +0.000 C 
ENDROOT
BRANCH   1   2
ATOM      2  C   LIG A   1     -12.713   9.167 128.949  0.00  0.00    -0.000 C 
BRANCH   2   4
ATOM      3  C   LIG A   1     -13.625  11.237 130.083  0.00  0.00    +0.004 C 
ATOM      4  C   LIG A   1     -13.717  10.320 128.871  0.00  0.00    -0.003 C 
ENDBRANCH   2   4
ENDBRANCH   1   2
BRANCH   1   5
ATOM      5  C   LIG A   1     -12.767   6.667 129.373  0.00  0.00    +0.007 C 
BRANCH   5   6
ATOM      6  C   LIG A   1     -12.535   7.020 130.841  0.00  0.00    +0.071 C 
BRANCH   6   7
ATOM      7  C   LIG A   1     -11.293   6.366 131.388  0.00  0.00    +0.223 C 
ATOM      8  O   LIG A   1     -10.861   6.578 132.520  0.00  0.00    -0.301 OA
ENDBRANCH   6   7
ENDBRANCH   5   6
ENDBRANCH   1   5
TORSDOF 5
ENDMDL
MODEL 8
REMARK VINA RESULT:      -3.9      2.771      3.928
REMARK  Name = NuBBE_1378
REMARK  6 active torsions:
REMARK  status: ('A' for Active; 'I' for Inactive)
REMARK    1  A    between atoms: C_1  and  C_2
REMARK    2  A    between atoms: C_2  and  C_3
REMARK    3  A    between atoms: C_3  and  C_4
REMARK    4  A    between atoms: C_4  and  C_5
REMARK    5  A    between atoms: C_5  and  C_6
REMARK    6  A    between atoms: C_6  and  C_7
REMARK                            x       y       z     vdW  Elec       q    Type
REMARK                         _______ _______ _______ _____ _____    ______ ____
ROOT
ATOM      1  C   LIG A   1     -10.377   7.870 129.270  0.00  0.00    +0.000 C 
ENDROOT
BRANCH   1   2
ATOM      2  C   LIG A   1     -11.166   8.340 128.043  0.00  0.00    -0.000 C 
BRANCH   2   4
ATOM      3  C   LIG A   1     -13.632   7.793 127.902  0.00  0.00    +0.004 C 
ATOM      4  C   LIG A   1     -12.587   8.772 128.418  0.00  0.00    -0.003 C 
ENDBRANCH   2   4
ENDBRANCH   1   2
BRANCH   1   5
ATOM      5  C   LIG A   1     -10.312   6.341 129.347  0.00  0.00    +0.007 C 
BRANCH   5   6
ATOM      6  C   LIG A   1     -11.465   5.737 130.147  0.00  0.00    +0.071 C 
BRANCH   6   7
ATOM      7  C   LIG A   1     -11.806   6.568 131.357  0.00  0.00    +0.223 C 
ATOM      8  O   LIG A   1     -12.936   6.997 131.584  0.00  0.00    -0.301 OA
ENDBRANCH   6   7
ENDBRANCH   5   6
ENDBRANCH   1   5
TORSDOF 5
ENDMDL
MODEL 9
REMARK VINA RESULT:      -3.8     11.116     13.872
REMARK  Name = NuBBE_1378
REMARK  6 active torsions:
REMARK  status: ('A' for Active; 'I' for Inactive)
REMARK    1  A    between atoms: C_1  and  C_2
REMARK    2  A    between atoms: C_2  and  C_3
REMARK    3  A    between atoms: C_3  and  C_4
REMARK    4  A    between atoms: C_4  and  C_5
REMARK    5  A    between atoms: C_5  and  C_6
REMARK    6  A    between atoms: C_6  and  C_7
REMARK                            x       y       z     vdW  Elec       q    Type
REMARK                         _______ _______ _______ _____ _____    ______ ____
ROOT
ATOM      1  C   LIG A   1      -6.777  -2.023 122.822  0.00  0.00    +0.000 C 
ENDROOT
BRANCH   1   2
ATOM      2  C   LIG A   1      -6.044  -2.837 123.894  0.00  0.00    -0.000 C 
BRANCH   2   4
ATOM      3  C   LIG A   1      -4.357  -4.704 123.639  0.00  0.00    +0.004 C 
ATOM      4  C   LIG A   1      -4.632  -3.220 123.444  0.00  0.00    -0.003 C 
ENDBRANCH   2   4
ENDBRANCH   1   2
BRANCH   1   5
ATOM      5  C   LIG A   1      -8.297  -2.071 123.017  0.00  0.00    +0.007 C 
BRANCH   5   6
ATOM      6  C   LIG A   1      -8.836  -0.861 123.777  0.00  0.00    +0.071 C 
BRANCH   6   7
ATOM      7  C   LIG A   1      -9.541   0.109 122.865  0.00  0.00    +0.223 C 
ATOM      8  O   LIG A   1     -10.726   0.004 122.555  0.00  0.00    -0.301 OA
ENDBRANCH   6   7
ENDBRANCH   5   6
ENDBRANCH   1   5
TORSDOF 5
ENDMDL
