MODEL 1
REMARK VINA RESULT:      -8.5      0.000      0.000
REMARK  Name = NuBBE_1030
REMARK  10 active torsions:
REMARK  status: ('A' for Active; 'I' for Inactive)
REMARK    1  A    between atoms: O_1  and  C_2
REMARK    2  A    between atoms: C_5  and  C_8
REMARK    3  A    between atoms: C_10  and  O_12
REMARK    4  A    between atoms: O_12  and  C_13
REMARK    5  A    between atoms: C_15  and  O_17
REMARK    6  A    between atoms: C_18  and  O_20
REMARK    7  A    between atoms: C_21  and  O_23
REMARK    8  A    between atoms: C_24  and  C_26
REMARK    9  A    between atoms: C_30  and  O_31
REMARK   10  A    between atoms: C_33  and  O_34
REMARK                            x       y       z     vdW  Elec       q    Type
REMARK                         _______ _______ _______ _____ _____    ______ ____
ROOT
ATOM      1  C   LIG A   1      -6.759   2.420 123.700  0.00  0.00    +0.233 C 
ATOM      2  C   LIG A   1      -8.049   1.879 124.365  0.00  0.00    +0.171 C 
ATOM      3  C   LIG A   1      -7.743   1.492 125.809  0.00  0.00    +0.078 C 
ATOM      4  C   LIG A   1      -6.947   2.528 126.530  0.00  0.00    +0.038 A 
ATOM      5  C   LIG A   1      -6.942   2.610 127.930  0.00  0.00    +0.127 A 
ATOM      6  C   LIG A   1      -6.218   3.596 128.594  0.00  0.00    +0.091 A 
ATOM      7  C   LIG A   1      -5.468   4.497 127.856  0.00  0.00    +0.124 A 
ATOM      8  C   LIG A   1      -5.434   4.419 126.463  0.00  0.00    +0.091 A 
ATOM      9  C   LIG A   1      -6.175   3.436 125.801  0.00  0.00    +0.132 A 
ATOM     10  O   LIG A   1      -6.112   3.470 124.440  0.00  0.00    -0.481 OA
ENDROOT
BRANCH   1  14
ATOM     11  C   LIG A   1      -7.547   4.152 119.807  0.00  0.00    +0.117 A 
ATOM     12  C   LIG A   1      -8.609   3.821 120.638  0.00  0.00    +0.046 A 
ATOM     13  C   LIG A   1      -8.349   3.261 121.891  0.00  0.00    +0.011 A 
ATOM     14  C   LIG A   1      -7.031   3.013 122.318  0.00  0.00    -0.005 A 
ATOM     15  C   LIG A   1      -5.976   3.360 121.460  0.00  0.00    +0.011 A 
ATOM     16  C   LIG A   1      -6.234   3.926 120.207  0.00  0.00    +0.046 A 
BRANCH  11  17
ATOM     17  O   LIG A   1      -7.753   4.713 118.582  0.00  0.00    -0.507 OA
ATOM     18  H   LIG A   1      -8.084   5.618 118.711  0.00  0.00    +0.292 HD
ENDBRANCH  11  17
ENDBRANCH   1  14
BRANCH   5  19
ATOM     19  O   LIG A   1      -7.646   1.757 128.735  0.00  0.00    -0.506 OA
ATOM     20  H   LIG A   1      -7.048   1.129 129.166  0.00  0.00    +0.292 HD
ENDBRANCH   5  19
BRANCH   7  21
ATOM     21  O   LIG A   1      -4.747   5.483 128.462  0.00  0.00    -0.506 OA
ATOM     22  H   LIG A   1      -3.826   5.182 128.541  0.00  0.00    +0.292 HD
ENDBRANCH   7  21
BRANCH   2  23
ATOM     23  O   LIG A   1      -8.548   0.727 123.649  0.00  0.00    -0.341 OA
BRANCH  23  24
ATOM     24  C   LIG A   1      -8.298  -0.527 124.322  0.00  0.00    +0.282 C 
ATOM     25  C   LIG A   1      -7.813  -1.522 123.253  0.00  0.00    +0.201 C 
ATOM     26  C   LIG A   1      -7.658  -2.928 123.836  0.00  0.00    +0.179 C 
ATOM     27  C   LIG A   1      -8.910  -3.344 124.611  0.00  0.00    +0.174 C 
ATOM     28  C   LIG A   1      -9.349  -2.263 125.619  0.00  0.00    +0.149 C 
ATOM     29  C   LIG A   1      -8.490  -2.205 126.882  0.00  0.00    +0.040 C 
ATOM     30  O   LIG A   1      -9.462  -0.972 125.003  0.00  0.00    -0.343 OA
BRANCH  25  31
ATOM     31  O   LIG A   1      -6.533  -1.108 122.729  0.00  0.00    -0.384 OA
ATOM     32  H   LIG A   1      -5.960  -1.003 123.515  0.00  0.00    +0.210 HD
ENDBRANCH  25  31
BRANCH  26  33
ATOM     33  O   LIG A   1      -6.498  -2.987 124.676  0.00  0.00    -0.386 OA
ATOM     34  H   LIG A   1      -5.799  -3.374 124.110  0.00  0.00    +0.210 HD
ENDBRANCH  26  33
BRANCH  27  35
ATOM     35  O   LIG A   1      -9.984  -3.555 123.682  0.00  0.00    -0.387 OA
ATOM     36  H   LIG A   1     -10.821  -3.418 124.157  0.00  0.00    +0.210 HD
ENDBRANCH  27  35
ENDBRANCH  23  24
ENDBRANCH   2  23
TORSDOF 9
ENDMDL
MODEL 2
REMARK VINA RESULT:      -8.3      6.814      9.425
REMARK  Name = NuBBE_1030
REMARK  10 active torsions:
REMARK  status: ('A' for Active; 'I' for Inactive)
REMARK    1  A    between atoms: O_1  and  C_2
REMARK    2  A    between atoms: C_5  and  C_8
REMARK    3  A    between atoms: C_10  and  O_12
REMARK    4  A    between atoms: O_12  and  C_13
REMARK    5  A    between atoms: C_15  and  O_17
REMARK    6  A    between atoms: C_18  and  O_20
REMARK    7  A    between atoms: C_21  and  O_23
REMARK    8  A    between atoms: C_24  and  C_26
REMARK    9  A    between atoms: C_30  and  O_31
REMARK   10  A    between atoms: C_33  and  O_34
REMARK                            x       y       z     vdW  Elec       q    Type
REMARK                         _______ _______ _______ _____ _____    ______ ____
ROOT
ATOM      1  C   LIG A   1      -6.171   4.444 131.188  0.00  0.00    +0.233 C 
ATOM      2  C   LIG A   1      -6.768   5.780 130.680  0.00  0.00    +0.171 C 
ATOM      3  C   LIG A   1      -5.630   6.728 130.310  0.00  0.00    +0.078 C 
ATOM      4  C   LIG A   1      -4.565   6.066 129.501  0.00  0.00    +0.038 A 
ATOM      5  C   LIG A   1      -3.694   6.804 128.687  0.00  0.00    +0.127 A 
ATOM      6  C   LIG A   1      -2.719   6.178 127.916  0.00  0.00    +0.091 A 
ATOM      7  C   LIG A   1      -2.593   4.799 127.974  0.00  0.00    +0.124 A 
ATOM      8  C   LIG A   1      -3.430   4.045 128.798  0.00  0.00    +0.091 A 
ATOM      9  C   LIG A   1      -4.416   4.679 129.559  0.00  0.00    +0.132 A 
ATOM     10  O   LIG A   1      -5.210   3.851 130.296  0.00  0.00    -0.481 OA
ENDROOT
BRANCH   1  14
ATOM     11  C   LIG A   1      -9.176   1.372 131.738  0.00  0.00    +0.117 A 
ATOM     12  C   LIG A   1      -8.799   1.739 130.454  0.00  0.00    +0.046 A 
ATOM     13  C   LIG A   1      -7.831   2.732 130.282  0.00  0.00    +0.011 A 
ATOM     14  C   LIG A   1      -7.245   3.376 131.388  0.00  0.00    -0.005 A 
ATOM     15  C   LIG A   1      -7.642   2.982 132.675  0.00  0.00    +0.011 A 
ATOM     16  C   LIG A   1      -8.606   1.983 132.849  0.00  0.00    +0.046 A 
BRANCH  11  17
ATOM     17  O   LIG A   1     -10.106   0.398 131.952  0.00  0.00    -0.507 OA
ATOM     18  H   LIG A   1      -9.688  -0.322 132.454  0.00  0.00    +0.292 HD
ENDBRANCH  11  17
ENDBRANCH   1  14
BRANCH   5  19
ATOM     19  O   LIG A   1      -3.742   8.167 128.578  0.00  0.00    -0.506 OA
ATOM     20  H   LIG A   1      -3.322   8.455 127.753  0.00  0.00    +0.292 HD
ENDBRANCH   5  19
BRANCH   7  21
ATOM     21  O   LIG A   1      -1.658   4.141 127.233  0.00  0.00    -0.506 OA
ATOM     22  H   LIG A   1      -1.539   3.253 127.610  0.00  0.00    +0.292 HD
ENDBRANCH   7  21
BRANCH   2  23
ATOM     23  O   LIG A   1      -7.597   6.388 131.695  0.00  0.00    -0.341 OA
BRANCH  23  24
ATOM     24  C   LIG A   1      -8.938   6.684 131.247  0.00  0.00    +0.282 C 
ATOM     25  C   LIG A   1      -9.899   5.897 132.157  0.00  0.00    +0.201 C 
ATOM     26  C   LIG A   1     -11.346   6.026 131.676  0.00  0.00    +0.179 C 
ATOM     27  C   LIG A   1     -11.458   5.730 130.180  0.00  0.00    +0.174 C 
ATOM     28  C   LIG A   1     -10.422   6.524 129.357  0.00  0.00    +0.149 C 
ATOM     29  C   LIG A   1     -10.774   8.000 129.172  0.00  0.00    +0.040 C 
ATOM     30  O   LIG A   1      -9.093   6.363 129.873  0.00  0.00    -0.343 OA
BRANCH  25  31
ATOM     31  O   LIG A   1      -9.828   6.396 133.510  0.00  0.00    -0.384 OA
ATOM     32  H   LIG A   1     -10.029   7.351 133.438  0.00  0.00    +0.210 HD
ENDBRANCH  25  31
BRANCH  26  33
ATOM     33  O   LIG A   1     -11.848   7.335 131.974  0.00  0.00    -0.386 OA
ATOM     34  H   LIG A   1     -12.820   7.256 131.885  0.00  0.00    +0.210 HD
ENDBRANCH  26  33
BRANCH  27  35
ATOM     35  O   LIG A   1     -11.226   4.330 129.963  0.00  0.00    -0.387 OA
ATOM     36  H   LIG A   1     -11.795   3.835 130.577  0.00  0.00    +0.210 HD
ENDBRANCH  27  35
ENDBRANCH  23  24
ENDBRANCH   2  23
TORSDOF 9
ENDMDL
MODEL 3
REMARK VINA RESULT:      -8.3      3.378      6.942
REMARK  Name = NuBBE_1030
REMARK  10 active torsions:
REMARK  status: ('A' for Active; 'I' for Inactive)
REMARK    1  A    between atoms: O_1  and  C_2
REMARK    2  A    between atoms: C_5  and  C_8
REMARK    3  A    between atoms: C_10  and  O_12
REMARK    4  A    between atoms: O_12  and  C_13
REMARK    5  A    between atoms: C_15  and  O_17
REMARK    6  A    between atoms: C_18  and  O_20
REMARK    7  A    between atoms: C_21  and  O_23
REMARK    8  A    between atoms: C_24  and  C_26
REMARK    9  A    between atoms: C_30  and  O_31
REMARK   10  A    between atoms: C_33  and  O_34
REMARK                            x       y       z     vdW  Elec       q    Type
REMARK                         _______ _______ _______ _____ _____    ______ ____
ROOT
ATOM      1  C   LIG A   1      -7.155   2.167 127.470  0.00  0.00    +0.233 C 
ATOM      2  C   LIG A   1      -7.550   3.428 128.276  0.00  0.00    +0.171 C 
ATOM      3  C   LIG A   1      -6.406   3.800 129.215  0.00  0.00    +0.078 C 
ATOM      4  C   LIG A   1      -5.073   3.767 128.545  0.00  0.00    +0.038 A 
ATOM      5  C   LIG A   1      -3.978   4.485 129.048  0.00  0.00    +0.127 A 
ATOM      6  C   LIG A   1      -2.745   4.469 128.403  0.00  0.00    +0.091 A 
ATOM      7  C   LIG A   1      -2.591   3.709 127.255  0.00  0.00    +0.124 A 
ATOM      8  C   LIG A   1      -3.657   2.963 126.751  0.00  0.00    +0.091 A 
ATOM      9  C   LIG A   1      -4.897   2.995 127.395  0.00  0.00    +0.132 A 
ATOM     10  O   LIG A   1      -5.886   2.269 126.799  0.00  0.00    -0.481 OA
ENDROOT
BRANCH   1  14
ATOM     11  C   LIG A   1      -9.975   1.251 124.310  0.00  0.00    +0.117 A 
ATOM     12  C   LIG A   1      -9.142   2.355 124.187  0.00  0.00    +0.046 A 
ATOM     13  C   LIG A   1      -8.237   2.647 125.210  0.00  0.00    +0.011 A 
ATOM     14  C   LIG A   1      -8.165   1.850 126.368  0.00  0.00    -0.005 A 
ATOM     15  C   LIG A   1      -9.016   0.738 126.465  0.00  0.00    +0.011 A 
ATOM     16  C   LIG A   1      -9.919   0.441 125.439  0.00  0.00    +0.046 A 
BRANCH  11  17
ATOM     17  O   LIG A   1     -10.864   0.921 123.330  0.00  0.00    -0.507 OA
ATOM     18  H   LIG A   1     -11.742   0.818 123.735  0.00  0.00    +0.292 HD
ENDBRANCH  11  17
ENDBRANCH   1  14
BRANCH   5  19
ATOM     19  O   LIG A   1      -4.039   5.253 130.178  0.00  0.00    -0.506 OA
ATOM     20  H   LIG A   1      -4.951   5.528 130.352  0.00  0.00    +0.292 HD
ENDBRANCH   5  19
BRANCH   7  21
ATOM     21  O   LIG A   1      -1.404   3.667 126.587  0.00  0.00    -0.506 OA
ATOM     22  H   LIG A   1      -0.745   4.161 127.103  0.00  0.00    +0.292 HD
ENDBRANCH   7  21
BRANCH   2  23
ATOM     23  O   LIG A   1      -8.750   3.189 129.044  0.00  0.00    -0.341 OA
BRANCH  23  24
ATOM     24  C   LIG A   1      -9.256   4.367 129.710  0.00  0.00    +0.282 C 
ATOM     25  C   LIG A   1     -10.625   3.992 130.306  0.00  0.00    +0.201 C 
ATOM     26  C   LIG A   1     -11.317   5.215 130.913  0.00  0.00    +0.179 C 
ATOM     27  C   LIG A   1     -11.320   6.389 129.933  0.00  0.00    +0.174 C 
ATOM     28  C   LIG A   1      -9.917   6.655 129.349  0.00  0.00    +0.149 C 
ATOM     29  C   LIG A   1      -8.965   7.360 130.315  0.00  0.00    +0.040 C 
ATOM     30  O   LIG A   1      -9.328   5.462 128.810  0.00  0.00    -0.343 OA
BRANCH  25  31
ATOM     31  O   LIG A   1     -10.464   3.004 131.347  0.00  0.00    -0.384 OA
ATOM     32  H   LIG A   1     -11.372   2.710 131.559  0.00  0.00    +0.210 HD
ENDBRANCH  25  31
BRANCH  26  33
ATOM     33  O   LIG A   1     -10.679   5.581 132.143  0.00  0.00    -0.386 OA
ATOM     34  H   LIG A   1      -9.847   5.064 132.156  0.00  0.00    +0.210 HD
ENDBRANCH  26  33
BRANCH  27  35
ATOM     35  O   LIG A   1     -12.209   6.087 128.847  0.00  0.00    -0.387 OA
ATOM     36  H   LIG A   1     -11.839   5.331 128.359  0.00  0.00    +0.210 HD
ENDBRANCH  27  35
ENDBRANCH  23  24
ENDBRANCH   2  23
TORSDOF 9
ENDMDL
MODEL 4
REMARK VINA RESULT:      -8.2      1.398      6.147
REMARK  Name = NuBBE_1030
REMARK  10 active torsions:
REMARK  status: ('A' for Active; 'I' for Inactive)
REMARK    1  A    between atoms: O_1  and  C_2
REMARK    2  A    between atoms: C_5  and  C_8
REMARK    3  A    between atoms: C_10  and  O_12
REMARK    4  A    between atoms: O_12  and  C_13
REMARK    5  A    between atoms: C_15  and  O_17
REMARK    6  A    between atoms: C_18  and  O_20
REMARK    7  A    between atoms: C_21  and  O_23
REMARK    8  A    between atoms: C_24  and  C_26
REMARK    9  A    between atoms: C_30  and  O_31
REMARK   10  A    between atoms: C_33  and  O_34
REMARK                            x       y       z     vdW  Elec       q    Type
REMARK                         _______ _______ _______ _____ _____    ______ ____
ROOT
ATOM      1  C   LIG A   1      -8.353   2.129 123.417  0.00  0.00    +0.233 C 
ATOM      2  C   LIG A   1      -7.316   2.038 124.563  0.00  0.00    +0.171 C 
ATOM      3  C   LIG A   1      -7.837   1.083 125.634  0.00  0.00    +0.078 C 
ATOM      4  C   LIG A   1      -8.388  -0.181 125.064  0.00  0.00    +0.038 A 
ATOM      5  C   LIG A   1      -8.492  -1.350 125.832  0.00  0.00    +0.127 A 
ATOM      6  C   LIG A   1      -8.982  -2.533 125.286  0.00  0.00    +0.091 A 
ATOM      7  C   LIG A   1      -9.398  -2.547 123.965  0.00  0.00    +0.124 A 
ATOM      8  C   LIG A   1      -9.331  -1.389 123.188  0.00  0.00    +0.091 A 
ATOM      9  C   LIG A   1      -8.824  -0.208 123.738  0.00  0.00    +0.132 A 
ATOM     10  O   LIG A   1      -8.759   0.855 122.887  0.00  0.00    -0.481 OA
ENDROOT
BRANCH   1  14
ATOM     11  C   LIG A   1      -6.805   4.288 119.993  0.00  0.00    +0.117 A 
ATOM     12  C   LIG A   1      -5.926   3.791 120.946  0.00  0.00    +0.046 A 
ATOM     13  C   LIG A   1      -6.430   3.098 122.048  0.00  0.00    +0.011 A 
ATOM     14  C   LIG A   1      -7.815   2.908 122.218  0.00  0.00    -0.005 A 
ATOM     15  C   LIG A   1      -8.681   3.417 121.238  0.00  0.00    +0.011 A 
ATOM     16  C   LIG A   1      -8.177   4.106 120.130  0.00  0.00    +0.046 A 
BRANCH  11  17
ATOM     17  O   LIG A   1      -6.356   4.958 118.894  0.00  0.00    -0.507 OA
ATOM     18  H   LIG A   1      -6.098   4.307 118.221  0.00  0.00    +0.292 HD
ENDBRANCH  11  17
ENDBRANCH   1  14
BRANCH   5  19
ATOM     19  O   LIG A   1      -8.113  -1.423 127.144  0.00  0.00    -0.506 OA
ATOM     20  H   LIG A   1      -8.010  -2.348 127.416  0.00  0.00    +0.292 HD
ENDBRANCH   5  19
BRANCH   7  21
ATOM     21  O   LIG A   1      -9.881  -3.682 123.385  0.00  0.00    -0.506 OA
ATOM     22  H   LIG A   1     -10.464  -4.126 124.023  0.00  0.00    +0.292 HD
ENDBRANCH   7  21
BRANCH   2  23
ATOM     23  O   LIG A   1      -7.082   3.339 125.145  0.00  0.00    -0.341 OA
BRANCH  23  24
ATOM     24  C   LIG A   1      -5.991   3.363 126.093  0.00  0.00    +0.282 C 
ATOM     25  C   LIG A   1      -6.490   4.125 127.333  0.00  0.00    +0.201 C 
ATOM     26  C   LIG A   1      -5.361   4.335 128.345  0.00  0.00    +0.179 C 
ATOM     27  C   LIG A   1      -4.116   4.911 127.669  0.00  0.00    +0.174 C 
ATOM     28  C   LIG A   1      -3.724   4.114 126.408  0.00  0.00    +0.149 C 
ATOM     29  C   LIG A   1      -3.043   2.777 126.703  0.00  0.00    +0.040 C 
ATOM     30  O   LIG A   1      -4.835   3.948 125.514  0.00  0.00    -0.343 OA
BRANCH  25  31
ATOM     31  O   LIG A   1      -7.545   3.385 127.984  0.00  0.00    -0.384 OA
ATOM     32  H   LIG A   1      -8.139   3.101 127.259  0.00  0.00    +0.210 HD
ENDBRANCH  25  31
BRANCH  26  33
ATOM     33  O   LIG A   1      -5.056   3.099 129.004  0.00  0.00    -0.386 OA
ATOM     34  H   LIG A   1      -5.872   2.563 128.920  0.00  0.00    +0.210 HD
ENDBRANCH  26  33
BRANCH  27  35
ATOM     35  O   LIG A   1      -4.383   6.266 127.278  0.00  0.00    -0.387 OA
ATOM     36  H   LIG A   1      -4.511   6.280 126.314  0.00  0.00    +0.210 HD
ENDBRANCH  27  35
ENDBRANCH  23  24
ENDBRANCH   2  23
TORSDOF 9
ENDMDL
MODEL 5
REMARK VINA RESULT:      -7.8      5.103      7.697
REMARK  Name = NuBBE_1030
REMARK  10 active torsions:
REMARK  status: ('A' for Active; 'I' for Inactive)
REMARK    1  A    between atoms: O_1  and  C_2
REMARK    2  A    between atoms: C_5  and  C_8
REMARK    3  A    between atoms: C_10  and  O_12
REMARK    4  A    between atoms: O_12  and  C_13
REMARK    5  A    between atoms: C_15  and  O_17
REMARK    6  A    between atoms: C_18  and  O_20
REMARK    7  A    between atoms: C_21  and  O_23
REMARK    8  A    between atoms: C_24  and  C_26
REMARK    9  A    between atoms: C_30  and  O_31
REMARK   10  A    between atoms: C_33  and  O_34
REMARK                            x       y       z     vdW  Elec       q    Type
REMARK                         _______ _______ _______ _____ _____    ______ ____
ROOT
ATOM      1  C   LIG A   1      -9.116   6.332 130.521  0.00  0.00    +0.233 C 
ATOM      2  C   LIG A   1      -9.209   4.826 130.170  0.00  0.00    +0.171 C 
ATOM      3  C   LIG A   1      -8.121   4.068 130.926  0.00  0.00    +0.078 C 
ATOM      4  C   LIG A   1      -8.031   4.464 132.362  0.00  0.00    +0.038 A 
ATOM      5  C   LIG A   1      -7.456   3.621 133.323  0.00  0.00    +0.127 A 
ATOM      6  C   LIG A   1      -7.398   3.987 134.665  0.00  0.00    +0.091 A 
ATOM      7  C   LIG A   1      -7.898   5.220 135.052  0.00  0.00    +0.124 A 
ATOM      8  C   LIG A   1      -8.449   6.089 134.109  0.00  0.00    +0.091 A 
ATOM      9  C   LIG A   1      -8.517   5.710 132.766  0.00  0.00    +0.132 A 
ATOM     10  O   LIG A   1      -9.113   6.609 131.932  0.00  0.00    -0.481 OA
ENDROOT
BRANCH   1  14
ATOM     11  C   LIG A   1     -12.453   8.622 128.973  0.00  0.00    +0.117 A 
ATOM     12  C   LIG A   1     -12.613   7.873 130.131  0.00  0.00    +0.046 A 
ATOM     13  C   LIG A   1     -11.535   7.135 130.624  0.00  0.00    +0.011 A 
ATOM     14  C   LIG A   1     -10.295   7.125 129.959  0.00  0.00    -0.005 A 
ATOM     15  C   LIG A   1     -10.159   7.894 128.792  0.00  0.00    +0.011 A 
ATOM     16  C   LIG A   1     -11.236   8.639 128.301  0.00  0.00    +0.046 A 
BRANCH  11  17
ATOM     17  O   LIG A   1     -13.474   9.368 128.464  0.00  0.00    -0.507 OA
ATOM     18  H   LIG A   1     -13.403   9.366 127.495  0.00  0.00    +0.292 HD
ENDBRANCH  11  17
ENDBRANCH   1  14
BRANCH   5  19
ATOM     19  O   LIG A   1      -6.932   2.393 133.027  0.00  0.00    -0.506 OA
ATOM     20  H   LIG A   1      -7.563   1.871 132.511  0.00  0.00    +0.292 HD
ENDBRANCH   5  19
BRANCH   7  21
ATOM     21  O   LIG A   1      -7.868   5.619 136.355  0.00  0.00    -0.506 OA
ATOM     22  H   LIG A   1      -7.949   4.830 136.917  0.00  0.00    +0.292 HD
ENDBRANCH   7  21
BRANCH   2  23
ATOM     23  O   LIG A   1      -9.045   4.622 128.749  0.00  0.00    -0.341 OA
BRANCH  23  24
ATOM     24  C   LIG A   1      -8.242   3.467 128.418  0.00  0.00    +0.282 C 
ATOM     25  C   LIG A   1      -7.258   3.905 127.318  0.00  0.00    +0.201 C 
ATOM     26  C   LIG A   1      -6.453   2.716 126.790  0.00  0.00    +0.179 C 
ATOM     27  C   LIG A   1      -7.371   1.546 126.432  0.00  0.00    +0.174 C 
ATOM     28  C   LIG A   1      -8.355   1.215 127.573  0.00  0.00    +0.149 C 
ATOM     29  C   LIG A   1      -7.720   0.462 128.743  0.00  0.00    +0.040 C 
ATOM     30  O   LIG A   1      -9.063   2.379 128.022  0.00  0.00    -0.343 OA
BRANCH  25  31
ATOM     31  O   LIG A   1      -6.329   4.881 127.838  0.00  0.00    -0.384 OA
ATOM     32  H   LIG A   1      -6.879   5.501 128.359  0.00  0.00    +0.210 HD
ENDBRANCH  25  31
BRANCH  26  33
ATOM     33  O   LIG A   1      -5.475   2.316 127.759  0.00  0.00    -0.386 OA
ATOM     34  H   LIG A   1      -5.825   1.483 128.138  0.00  0.00    +0.210 HD
ENDBRANCH  26  33
BRANCH  27  35
ATOM     35  O   LIG A   1      -8.134   1.893 125.267  0.00  0.00    -0.387 OA
ATOM     36  H   LIG A   1      -7.536   2.330 124.637  0.00  0.00    +0.210 HD
ENDBRANCH  27  35
ENDBRANCH  23  24
ENDBRANCH   2  23
TORSDOF 9
ENDMDL
MODEL 6
REMARK VINA RESULT:      -7.7      5.915      9.971
REMARK  Name = NuBBE_1030
REMARK  10 active torsions:
REMARK  status: ('A' for Active; 'I' for Inactive)
REMARK    1  A    between atoms: O_1  and  C_2
REMARK    2  A    between atoms: C_5  and  C_8
REMARK    3  A    between atoms: C_10  and  O_12
REMARK    4  A    between atoms: O_12  and  C_13
REMARK    5  A    between atoms: C_15  and  O_17
REMARK    6  A    between atoms: C_18  and  O_20
REMARK    7  A    between atoms: C_21  and  O_23
REMARK    8  A    between atoms: C_24  and  C_26
REMARK    9  A    between atoms: C_30  and  O_31
REMARK   10  A    between atoms: C_33  and  O_34
REMARK                            x       y       z     vdW  Elec       q    Type
REMARK                         _______ _______ _______ _____ _____    ______ ____
ROOT
ATOM      1  C   LIG A   1      -3.516   6.013 130.432  0.00  0.00    +0.233 C 
ATOM      2  C   LIG A   1      -4.371   4.910 131.102  0.00  0.00    +0.171 C 
ATOM      3  C   LIG A   1      -5.077   4.098 130.019  0.00  0.00    +0.078 C 
ATOM      4  C   LIG A   1      -4.171   3.719 128.896  0.00  0.00    +0.038 A 
ATOM      5  C   LIG A   1      -4.455   2.632 128.056  0.00  0.00    +0.127 A 
ATOM      6  C   LIG A   1      -3.592   2.269 127.026  0.00  0.00    +0.091 A 
ATOM      7  C   LIG A   1      -2.441   3.012 126.814  0.00  0.00    +0.124 A 
ATOM      8  C   LIG A   1      -2.151   4.114 127.619  0.00  0.00    +0.091 A 
ATOM      9  C   LIG A   1      -3.014   4.465 128.660  0.00  0.00    +0.132 A 
ATOM     10  O   LIG A   1      -2.620   5.529 129.416  0.00  0.00    -0.481 OA
ENDROOT
BRANCH   1  14
ATOM     11  C   LIG A   1      -0.949   8.081 133.244  0.00  0.00    +0.117 A 
ATOM     12  C   LIG A   1      -0.580   6.829 132.772  0.00  0.00    +0.046 A 
ATOM     13  C   LIG A   1      -1.412   6.166 131.867  0.00  0.00    +0.011 A 
ATOM     14  C   LIG A   1      -2.625   6.739 131.439  0.00  0.00    -0.005 A 
ATOM     15  C   LIG A   1      -2.972   8.007 131.930  0.00  0.00    +0.011 A 
ATOM     16  C   LIG A   1      -2.136   8.675 132.831  0.00  0.00    +0.046 A 
BRANCH  11  17
ATOM     17  O   LIG A   1      -0.160   8.770 134.118  0.00  0.00    -0.507 OA
ATOM     18  H   LIG A   1       0.575   8.194 134.387  0.00  0.00    +0.292 HD
ENDBRANCH  11  17
ENDBRANCH   1  14
BRANCH   5  19
ATOM     19  O   LIG A   1      -5.570   1.852 128.188  0.00  0.00    -0.506 OA
ATOM     20  H   LIG A   1      -5.350   1.021 128.636  0.00  0.00    +0.292 HD
ENDBRANCH   5  19
BRANCH   7  21
ATOM     21  O   LIG A   1      -1.564   2.691 125.821  0.00  0.00    -0.506 OA
ATOM     22  H   LIG A   1      -1.649   3.352 125.113  0.00  0.00    +0.292 HD
ENDBRANCH   7  21
BRANCH   2  23
ATOM     23  O   LIG A   1      -5.351   5.491 131.990  0.00  0.00    -0.341 OA
BRANCH  23  24
ATOM     24  C   LIG A   1      -6.710   5.368 131.514  0.00  0.00    +0.282 C 
ATOM     25  C   LIG A   1      -7.291   6.791 131.440  0.00  0.00    +0.201 C 
ATOM     26  C   LIG A   1      -8.779   6.763 131.084  0.00  0.00    +0.179 C 
ATOM     27  C   LIG A   1      -9.540   5.782 131.976  0.00  0.00    +0.174 C 
ATOM     28  C   LIG A   1      -8.855   4.401 132.030  0.00  0.00    +0.149 C 
ATOM     29  C   LIG A   1      -9.069   3.552 130.777  0.00  0.00    +0.040 C 
ATOM     30  O   LIG A   1      -7.462   4.508 132.357  0.00  0.00    -0.343 OA
BRANCH  25  31
ATOM     31  O   LIG A   1      -6.601   7.560 130.432  0.00  0.00    -0.384 OA
ATOM     32  H   LIG A   1      -6.987   7.268 129.582  0.00  0.00    +0.210 HD
ENDBRANCH  25  31
BRANCH  26  33
ATOM     33  O   LIG A   1      -8.947   6.428 129.700  0.00  0.00    -0.386 OA
ATOM     34  H   LIG A   1      -9.911   6.496 129.542  0.00  0.00    +0.210 HD
ENDBRANCH  26  33
BRANCH  27  35
ATOM     35  O   LIG A   1      -9.592   6.309 133.310  0.00  0.00    -0.387 OA
ATOM     36  H   LIG A   1      -8.694   6.592 133.555  0.00  0.00    +0.210 HD
ENDBRANCH  27  35
ENDBRANCH  23  24
ENDBRANCH   2  23
TORSDOF 9
ENDMDL
MODEL 7
REMARK VINA RESULT:      -7.6      2.500      3.897
REMARK  Name = NuBBE_1030
REMARK  10 active torsions:
REMARK  status: ('A' for Active; 'I' for Inactive)
REMARK    1  A    between atoms: O_1  and  C_2
REMARK    2  A    between atoms: C_5  and  C_8
REMARK    3  A    between atoms: C_10  and  O_12
REMARK    4  A    between atoms: O_12  and  C_13
REMARK    5  A    between atoms: C_15  and  O_17
REMARK    6  A    between atoms: C_18  and  O_20
REMARK    7  A    between atoms: C_21  and  O_23
REMARK    8  A    between atoms: C_24  and  C_26
REMARK    9  A    between atoms: C_30  and  O_31
REMARK   10  A    between atoms: C_33  and  O_34
REMARK                            x       y       z     vdW  Elec       q    Type
REMARK                         _______ _______ _______ _____ _____    ______ ____
ROOT
ATOM      1  C   LIG A   1      -7.482   2.023 127.345  0.00  0.00    +0.233 C 
ATOM      2  C   LIG A   1      -7.984   0.587 127.635  0.00  0.00    +0.171 C 
ATOM      3  C   LIG A   1      -7.986   0.353 129.144  0.00  0.00    +0.078 C 
ATOM      4  C   LIG A   1      -8.586   1.489 129.904  0.00  0.00    +0.038 A 
ATOM      5  C   LIG A   1      -9.100   1.318 131.198  0.00  0.00    +0.127 A 
ATOM      6  C   LIG A   1      -9.681   2.376 131.891  0.00  0.00    +0.091 A 
ATOM      7  C   LIG A   1      -9.728   3.627 131.299  0.00  0.00    +0.124 A 
ATOM      8  C   LIG A   1      -9.198   3.829 130.024  0.00  0.00    +0.091 A 
ATOM      9  C   LIG A   1      -8.629   2.760 129.327  0.00  0.00    +0.132 A 
ATOM     10  O   LIG A   1      -8.180   3.049 128.073  0.00  0.00    -0.481 OA
ENDROOT
BRANCH   1  14
ATOM     11  C   LIG A   1      -7.966   3.136 123.186  0.00  0.00    +0.117 A 
ATOM     12  C   LIG A   1      -9.035   2.581 123.875  0.00  0.00    +0.046 A 
ATOM     13  C   LIG A   1      -8.873   2.222 125.215  0.00  0.00    +0.011 A 
ATOM     14  C   LIG A   1      -7.641   2.399 125.872  0.00  0.00    -0.005 A 
ATOM     15  C   LIG A   1      -6.577   2.966 125.152  0.00  0.00    +0.011 A 
ATOM     16  C   LIG A   1      -6.740   3.332 123.812  0.00  0.00    +0.046 A 
BRANCH  11  17
ATOM     17  O   LIG A   1      -8.084   3.514 121.880  0.00  0.00    -0.507 OA
ATOM     18  H   LIG A   1      -7.307   4.047 121.644  0.00  0.00    +0.292 HD
ENDBRANCH  11  17
ENDBRANCH   1  14
BRANCH   5  19
ATOM     19  O   LIG A   1      -9.086   0.121 131.859  0.00  0.00    -0.506 OA
ATOM     20  H   LIG A   1      -9.988  -0.151 132.086  0.00  0.00    +0.292 HD
ENDBRANCH   5  19
BRANCH   7  21
ATOM     21  O   LIG A   1     -10.292   4.692 131.937  0.00  0.00    -0.506 OA
ATOM     22  H   LIG A   1     -11.246   4.689 131.751  0.00  0.00    +0.292 HD
ENDBRANCH   7  21
BRANCH   2  23
ATOM     23  O   LIG A   1      -7.135  -0.390 126.994  0.00  0.00    -0.341 OA
BRANCH  23  24
ATOM     24  C   LIG A   1      -7.783  -1.104 125.917  0.00  0.00    +0.282 C 
ATOM     25  C   LIG A   1      -7.855  -2.583 126.338  0.00  0.00    +0.201 C 
ATOM     26  C   LIG A   1      -8.396  -3.455 125.203  0.00  0.00    +0.179 C 
ATOM     27  C   LIG A   1      -7.659  -3.172 123.893  0.00  0.00    +0.174 C 
ATOM     28  C   LIG A   1      -7.592  -1.663 123.582  0.00  0.00    +0.149 C 
ATOM     29  C   LIG A   1      -8.904  -1.076 123.063  0.00  0.00    +0.040 C 
ATOM     30  O   LIG A   1      -7.087  -0.911 124.695  0.00  0.00    -0.343 OA
BRANCH  25  31
ATOM     31  O   LIG A   1      -8.728  -2.736 127.478  0.00  0.00    -0.384 OA
ATOM     32  H   LIG A   1      -9.139  -1.857 127.602  0.00  0.00    +0.210 HD
ENDBRANCH  25  31
BRANCH  26  33
ATOM     33  O   LIG A   1      -9.805  -3.242 125.048  0.00  0.00    -0.386 OA
ATOM     34  H   LIG A   1      -9.945  -2.303 125.292  0.00  0.00    +0.210 HD
ENDBRANCH  26  33
BRANCH  27  35
ATOM     35  O   LIG A   1      -6.316  -3.669 123.997  0.00  0.00    -0.387 OA
ATOM     36  H   LIG A   1      -6.290  -4.308 124.731  0.00  0.00    +0.210 HD
ENDBRANCH  27  35
ENDBRANCH  23  24
ENDBRANCH   2  23
TORSDOF 9
ENDMDL
MODEL 8
REMARK VINA RESULT:      -7.6      7.007      8.915
REMARK  Name = NuBBE_1030
REMARK  10 active torsions:
REMARK  status: ('A' for Active; 'I' for Inactive)
REMARK    1  A    between atoms: O_1  and  C_2
REMARK    2  A    between atoms: C_5  and  C_8
REMARK    3  A    between atoms: C_10  and  O_12
REMARK    4  A    between atoms: O_12  and  C_13
REMARK    5  A    between atoms: C_15  and  O_17
REMARK    6  A    between atoms: C_18  and  O_20
REMARK    7  A    between atoms: C_21  and  O_23
REMARK    8  A    between atoms: C_24  and  C_26
REMARK    9  A    between atoms: C_30  and  O_31
REMARK   10  A    between atoms: C_33  and  O_34
REMARK                            x       y       z     vdW  Elec       q    Type
REMARK                         _______ _______ _______ _____ _____    ______ ____
ROOT
ATOM      1  C   LIG A   1      -7.545   6.381 131.231  0.00  0.00    +0.233 C 
ATOM      2  C   LIG A   1      -8.408   5.239 131.821  0.00  0.00    +0.171 C 
ATOM      3  C   LIG A   1      -9.781   5.792 132.193  0.00  0.00    +0.078 C 
ATOM      4  C   LIG A   1     -10.367   6.655 131.126  0.00  0.00    +0.038 A 
ATOM      5  C   LIG A   1     -11.748   6.886 131.042  0.00  0.00    +0.127 A 
ATOM      6  C   LIG A   1     -12.289   7.672 130.028  0.00  0.00    +0.091 A 
ATOM      7  C   LIG A   1     -11.443   8.256 129.100  0.00  0.00    +0.124 A 
ATOM      8  C   LIG A   1     -10.063   8.064 129.179  0.00  0.00    +0.091 A 
ATOM      9  C   LIG A   1      -9.527   7.262 130.190  0.00  0.00    +0.132 A 
ATOM     10  O   LIG A   1      -8.173   7.101 130.156  0.00  0.00    -0.481 OA
ENDROOT
BRANCH   1  14
ATOM     11  C   LIG A   1      -3.824   4.946 129.537  0.00  0.00    +0.117 A 
ATOM     12  C   LIG A   1      -5.030   4.441 129.069  0.00  0.00    +0.046 A 
ATOM     13  C   LIG A   1      -6.226   4.906 129.621  0.00  0.00    +0.011 A 
ATOM     14  C   LIG A   1      -6.229   5.864 130.651  0.00  0.00    -0.005 A 
ATOM     15  C   LIG A   1      -4.995   6.360 131.102  0.00  0.00    +0.011 A 
ATOM     16  C   LIG A   1      -3.797   5.901 130.547  0.00  0.00    +0.046 A 
BRANCH  11  17
ATOM     17  O   LIG A   1      -2.633   4.531 129.017  0.00  0.00    -0.507 OA
ATOM     18  H   LIG A   1      -2.428   5.080 128.243  0.00  0.00    +0.292 HD
ENDBRANCH  11  17
ENDBRANCH   1  14
BRANCH   5  19
ATOM     19  O   LIG A   1     -12.653   6.357 131.920  0.00  0.00    -0.506 OA
ATOM     20  H   LIG A   1     -13.100   7.062 132.411  0.00  0.00    +0.292 HD
ENDBRANCH   5  19
BRANCH   7  21
ATOM     21  O   LIG A   1     -11.927   9.028 128.087  0.00  0.00    -0.506 OA
ATOM     22  H   LIG A   1     -12.030   8.469 127.298  0.00  0.00    +0.292 HD
ENDBRANCH   7  21
BRANCH   2  23
ATOM     23  O   LIG A   1      -7.778   4.674 132.991  0.00  0.00    -0.341 OA
BRANCH  23  24
ATOM     24  C   LIG A   1      -7.631   3.238 132.934  0.00  0.00    +0.282 C 
ATOM     25  C   LIG A   1      -6.208   2.912 133.424  0.00  0.00    +0.201 C 
ATOM     26  C   LIG A   1      -5.897   1.422 133.266  0.00  0.00    +0.179 C 
ATOM     27  C   LIG A   1      -6.242   0.934 131.858  0.00  0.00    +0.174 C 
ATOM     28  C   LIG A   1      -7.665   1.352 131.436  0.00  0.00    +0.149 C 
ATOM     29  C   LIG A   1      -8.775   0.523 132.082  0.00  0.00    +0.040 C 
ATOM     30  O   LIG A   1      -7.886   2.758 131.623  0.00  0.00    -0.343 OA
BRANCH  25  31
ATOM     31  O   LIG A   1      -6.070   3.256 134.819  0.00  0.00    -0.384 OA
ATOM     32  H   LIG A   1      -6.827   2.823 135.263  0.00  0.00    +0.210 HD
ENDBRANCH  25  31
BRANCH  26  33
ATOM     33  O   LIG A   1      -6.606   0.665 134.255  0.00  0.00    -0.386 OA
ATOM     34  H   LIG A   1      -5.925   0.094 134.668  0.00  0.00    +0.210 HD
ENDBRANCH  26  33
BRANCH  27  35
ATOM     35  O   LIG A   1      -5.311   1.504 130.926  0.00  0.00    -0.387 OA
ATOM     36  H   LIG A   1      -5.821   1.983 130.250  0.00  0.00    +0.210 HD
ENDBRANCH  27  35
ENDBRANCH  23  24
ENDBRANCH   2  23
TORSDOF 9
ENDMDL
MODEL 9
REMARK VINA RESULT:      -7.6      4.042      8.037
REMARK  Name = NuBBE_1030
REMARK  10 active torsions:
REMARK  status: ('A' for Active; 'I' for Inactive)
REMARK    1  A    between atoms: O_1  and  C_2
REMARK    2  A    between atoms: C_5  and  C_8
REMARK    3  A    between atoms: C_10  and  O_12
REMARK    4  A    between atoms: O_12  and  C_13
REMARK    5  A    between atoms: C_15  and  O_17
REMARK    6  A    between atoms: C_18  and  O_20
REMARK    7  A    between atoms: C_21  and  O_23
REMARK    8  A    between atoms: C_24  and  C_26
REMARK    9  A    between atoms: C_30  and  O_31
REMARK   10  A    between atoms: C_33  and  O_34
REMARK                            x       y       z     vdW  Elec       q    Type
REMARK                         _______ _______ _______ _____ _____    ______ ____
ROOT
ATOM      1  C   LIG A   1      -7.703  -1.869 130.323  0.00  0.00    +0.233 C 
ATOM      2  C   LIG A   1      -6.906  -1.112 129.233  0.00  0.00    +0.171 C 
ATOM      3  C   LIG A   1      -7.739   0.063 128.728  0.00  0.00    +0.078 C 
ATOM      4  C   LIG A   1      -8.362   0.848 129.834  0.00  0.00    +0.038 A 
ATOM      5  C   LIG A   1      -8.767   2.179 129.653  0.00  0.00    +0.127 A 
ATOM      6  C   LIG A   1      -9.324   2.912 130.697  0.00  0.00    +0.091 A 
ATOM      7  C   LIG A   1      -9.502   2.307 131.930  0.00  0.00    +0.124 A 
ATOM      8  C   LIG A   1      -9.133   0.976 132.126  0.00  0.00    +0.091 A 
ATOM      9  C   LIG A   1      -8.561   0.248 131.079  0.00  0.00    +0.132 A 
ATOM     10  O   LIG A   1      -8.194  -1.029 131.384  0.00  0.00    -0.481 OA
ENDROOT
BRANCH   1  14
ATOM     11  C   LIG A   1      -5.256  -4.874 132.260  0.00  0.00    +0.117 A 
ATOM     12  C   LIG A   1      -5.544  -4.992 130.907  0.00  0.00    +0.046 A 
ATOM     13  C   LIG A   1      -6.335  -4.021 130.289  0.00  0.00    +0.011 A 
ATOM     14  C   LIG A   1      -6.858  -2.936 131.017  0.00  0.00    -0.005 A 
ATOM     15  C   LIG A   1      -6.548  -2.839 132.382  0.00  0.00    +0.011 A 
ATOM     16  C   LIG A   1      -5.750  -3.807 133.002  0.00  0.00    +0.046 A 
BRANCH  11  17
ATOM     17  O   LIG A   1      -4.476  -5.790 132.902  0.00  0.00    -0.507 OA
ATOM     18  H   LIG A   1      -4.517  -6.627 132.409  0.00  0.00    +0.292 HD
ENDBRANCH  11  17
ENDBRANCH   1  14
BRANCH   5  19
ATOM     19  O   LIG A   1      -8.636   2.850 128.469  0.00  0.00    -0.506 OA
ATOM     20  H   LIG A   1      -8.190   3.698 128.609  0.00  0.00    +0.292 HD
ENDBRANCH   5  19
BRANCH   7  21
ATOM     21  O   LIG A   1     -10.038   2.987 132.983  0.00  0.00    -0.506 OA
ATOM     22  H   LIG A   1      -9.862   2.482 133.794  0.00  0.00    +0.292 HD
ENDBRANCH   7  21
BRANCH   2  23
ATOM     23  O   LIG A   1      -6.588  -1.991 128.131  0.00  0.00    -0.341 OA
BRANCH  23  24
ATOM     24  C   LIG A   1      -7.475  -1.846 126.999  0.00  0.00    +0.282 C 
ATOM     25  C   LIG A   1      -8.029  -3.247 126.681  0.00  0.00    +0.201 C 
ATOM     26  C   LIG A   1      -8.871  -3.232 125.404  0.00  0.00    +0.179 C 
ATOM     27  C   LIG A   1      -8.126  -2.538 124.262  0.00  0.00    +0.174 C 
ATOM     28  C   LIG A   1      -7.563  -1.167 124.690  0.00  0.00    +0.149 C 
ATOM     29  C   LIG A   1      -8.616  -0.063 124.781  0.00  0.00    +0.040 C 
ATOM     30  O   LIG A   1      -6.796  -1.259 125.900  0.00  0.00    -0.343 OA
BRANCH  25  31
ATOM     31  O   LIG A   1      -8.863  -3.712 127.764  0.00  0.00    -0.384 OA
ATOM     32  H   LIG A   1      -9.779  -3.640 127.427  0.00  0.00    +0.210 HD
ENDBRANCH  25  31
BRANCH  26  33
ATOM     33  O   LIG A   1     -10.129  -2.592 125.652  0.00  0.00    -0.386 OA
ATOM     34  H   LIG A   1     -10.203  -2.557 126.629  0.00  0.00    +0.210 HD
ENDBRANCH  26  33
BRANCH  27  35
ATOM     35  O   LIG A   1      -7.028  -3.366 123.851  0.00  0.00    -0.387 OA
ATOM     36  H   LIG A   1      -7.069  -3.458 122.883  0.00  0.00    +0.210 HD
ENDBRANCH  27  35
ENDBRANCH  23  24
ENDBRANCH   2  23
TORSDOF 9
ENDMDL
