MODEL 1
REMARK VINA RESULT:      -5.9      0.000      0.000
REMARK  Name = NuBBE_1741
REMARK  5 active torsions:
REMARK  status: ('A' for Active; 'I' for Inactive)
REMARK    1  A    between atoms: C_1  and  C_2
REMARK    2  A    between atoms: C_1  and  C_3
REMARK    3  A    between atoms: C_1  and  C_4
REMARK    4  A    between atoms: C_4  and  O_5
REMARK    5  A    between atoms: C_8  and  C_11
REMARK                            x       y       z     vdW  Elec       q    Type
REMARK                         _______ _______ _______ _____ _____    ______ ____
ROOT
ATOM      1  C   LIG A   1     -12.449   7.150 128.920  0.00  0.00    +0.072 C 
ATOM      2  C   LIG A   1     -13.533   7.898 128.115  0.00  0.00    +0.039 C 
ATOM      3  C   LIG A   1     -13.599   9.411 128.326  0.00  0.00    +0.033 C 
ATOM      4  C   LIG A   1     -13.297   9.853 129.733  0.00  0.00    -0.076 C 
ATOM      5  C   LIG A   1     -12.830   9.007 130.665  0.00  0.00    -0.025 C 
ATOM      6  C   LIG A   1     -12.531   7.557 130.411  0.00  0.00    +0.062 C 
ATOM      7  C   LIG A   1     -13.554  11.303 130.033  0.00  0.00    +0.038 C 
ENDROOT
BRANCH   1   8
ATOM      8  C   LIG A   1     -11.015   7.250 128.294  0.00  0.00    +0.015 C 
ATOM      9  C   LIG A   1     -10.921   7.966 126.946  0.00  0.00    +0.010 C 
ATOM     10  C   LIG A   1      -9.998   7.898 129.253  0.00  0.00    +0.010 C 
ENDBRANCH   1   8
BRANCH   1  11
ATOM     11  O   LIG A   1     -12.828   5.755 128.857  0.00  0.00    -0.388 OA
ATOM     12  H   LIG A   1     -13.259   5.527 129.698  0.00  0.00    +0.210 HD
ENDBRANCH   1  11
TORSDOF 2
ENDMDL
MODEL 2
REMARK VINA RESULT:      -5.8      1.978      3.700
REMARK  Name = NuBBE_1741
REMARK  5 active torsions:
REMARK  status: ('A' for Active; 'I' for Inactive)
REMARK    1  A    between atoms: C_1  and  C_2
REMARK    2  A    between atoms: C_1  and  C_3
REMARK    3  A    between atoms: C_1  and  C_4
REMARK    4  A    between atoms: C_4  and  O_5
REMARK    5  A    between atoms: C_8  and  C_11
REMARK                            x       y       z     vdW  Elec       q    Type
REMARK                         _______ _______ _______ _____ _____    ______ ____
ROOT
ATOM      1  C   LIG A   1     -11.822   8.061 129.041  0.00  0.00    +0.072 C 
ATOM      2  C   LIG A   1     -10.287   8.032 129.200  0.00  0.00    +0.039 C 
ATOM      3  C   LIG A   1      -9.724   6.901 130.061  0.00  0.00    +0.033 C 
ATOM      4  C   LIG A   1     -10.588   6.529 131.237  0.00  0.00    -0.076 C 
ATOM      5  C   LIG A   1     -11.827   7.022 131.399  0.00  0.00    -0.025 C 
ATOM      6  C   LIG A   1     -12.494   7.957 130.432  0.00  0.00    +0.062 C 
ATOM      7  C   LIG A   1      -9.977   5.574 132.223  0.00  0.00    +0.038 C 
ENDROOT
BRANCH   1   8
ATOM      8  C   LIG A   1     -12.367   7.046 127.977  0.00  0.00    +0.015 C 
ATOM      9  C   LIG A   1     -13.885   7.023 127.789  0.00  0.00    +0.010 C 
ATOM     10  C   LIG A   1     -11.715   7.236 126.594  0.00  0.00    +0.010 C 
ENDBRANCH   1   8
BRANCH   1  11
ATOM     11  O   LIG A   1     -12.124   9.384 128.539  0.00  0.00    -0.388 OA
ATOM     12  H   LIG A   1     -12.666   9.838 129.208  0.00  0.00    +0.210 HD
ENDBRANCH   1  11
TORSDOF 2
ENDMDL
MODEL 3
REMARK VINA RESULT:      -5.7      1.869      2.881
REMARK  Name = NuBBE_1741
REMARK  5 active torsions:
REMARK  status: ('A' for Active; 'I' for Inactive)
REMARK    1  A    between atoms: C_1  and  C_2
REMARK    2  A    between atoms: C_1  and  C_3
REMARK    3  A    between atoms: C_1  and  C_4
REMARK    4  A    between atoms: C_4  and  O_5
REMARK    5  A    between atoms: C_8  and  C_11
REMARK                            x       y       z     vdW  Elec       q    Type
REMARK                         _______ _______ _______ _____ _____    ______ ____
ROOT
ATOM      1  C   LIG A   1     -10.664   6.348 129.648  0.00  0.00    +0.072 C 
ATOM      2  C   LIG A   1     -10.370   7.265 128.441  0.00  0.00    +0.039 C 
ATOM      3  C   LIG A   1     -11.179   8.560 128.372  0.00  0.00    +0.033 C 
ATOM      4  C   LIG A   1     -12.595   8.432 128.865  0.00  0.00    -0.076 C 
ATOM      5  C   LIG A   1     -13.042   7.326 129.483  0.00  0.00    -0.025 C 
ATOM      6  C   LIG A   1     -12.190   6.124 129.775  0.00  0.00    +0.062 C 
ATOM      7  C   LIG A   1     -13.484   9.619 128.621  0.00  0.00    +0.038 C 
ENDROOT
BRANCH   1   8
ATOM      8  C   LIG A   1      -9.959   6.801 130.973  0.00  0.00    +0.015 C 
ATOM      9  C   LIG A   1     -10.314   6.003 132.229  0.00  0.00    +0.010 C 
ATOM     10  C   LIG A   1      -8.423   6.831 130.843  0.00  0.00    +0.010 C 
ENDBRANCH   1   8
BRANCH   1  11
ATOM     11  O   LIG A   1     -10.092   5.067 129.296  0.00  0.00    -0.388 OA
ATOM     12  H   LIG A   1      -9.307   5.233 128.746  0.00  0.00    +0.210 HD
ENDBRANCH   1  11
TORSDOF 2
ENDMDL
MODEL 4
REMARK VINA RESULT:      -5.4     11.240     13.065
REMARK  Name = NuBBE_1741
REMARK  5 active torsions:
REMARK  status: ('A' for Active; 'I' for Inactive)
REMARK    1  A    between atoms: C_1  and  C_2
REMARK    2  A    between atoms: C_1  and  C_3
REMARK    3  A    between atoms: C_1  and  C_4
REMARK    4  A    between atoms: C_4  and  O_5
REMARK    5  A    between atoms: C_8  and  C_11
REMARK                            x       y       z     vdW  Elec       q    Type
REMARK                         _______ _______ _______ _____ _____    ______ ____
ROOT
ATOM      1  C   LIG A   1      -8.255  -2.397 125.830  0.00  0.00    +0.072 C 
ATOM      2  C   LIG A   1      -8.261  -3.544 124.796  0.00  0.00    +0.039 C 
ATOM      3  C   LIG A   1      -6.891  -4.004 124.300  0.00  0.00    +0.033 C 
ATOM      4  C   LIG A   1      -5.880  -2.898 124.158  0.00  0.00    -0.076 C 
ATOM      5  C   LIG A   1      -6.111  -1.654 124.608  0.00  0.00    -0.025 C 
ATOM      6  C   LIG A   1      -7.367  -1.237 125.318  0.00  0.00    +0.062 C 
ATOM      7  C   LIG A   1      -4.593  -3.270 123.477  0.00  0.00    +0.038 C 
ENDROOT
BRANCH   1   8
ATOM      8  C   LIG A   1      -7.937  -2.865 127.292  0.00  0.00    +0.015 C 
ATOM      9  C   LIG A   1      -7.770  -1.754 128.330  0.00  0.00    +0.010 C 
ATOM     10  C   LIG A   1      -8.975  -3.869 127.829  0.00  0.00    +0.010 C 
ENDBRANCH   1   8
BRANCH   1  11
ATOM     11  O   LIG A   1      -9.612  -1.896 125.845  0.00  0.00    -0.388 OA
ATOM     12  H   LIG A   1     -10.211  -2.662 125.820  0.00  0.00    +0.210 HD
ENDBRANCH   1  11
TORSDOF 2
ENDMDL
MODEL 5
REMARK VINA RESULT:      -5.4     11.661     13.197
REMARK  Name = NuBBE_1741
REMARK  5 active torsions:
REMARK  status: ('A' for Active; 'I' for Inactive)
REMARK    1  A    between atoms: C_1  and  C_2
REMARK    2  A    between atoms: C_1  and  C_3
REMARK    3  A    between atoms: C_1  and  C_4
REMARK    4  A    between atoms: C_4  and  O_5
REMARK    5  A    between atoms: C_8  and  C_11
REMARK                            x       y       z     vdW  Elec       q    Type
REMARK                         _______ _______ _______ _____ _____    ______ ____
ROOT
ATOM      1  C   LIG A   1      -7.612  -1.198 124.501  0.00  0.00    +0.072 C 
ATOM      2  C   LIG A   1      -6.899  -1.100 123.135  0.00  0.00    +0.039 C 
ATOM      3  C   LIG A   1      -6.050  -2.307 122.735  0.00  0.00    +0.033 C 
ATOM      4  C   LIG A   1      -5.339  -2.971 123.884  0.00  0.00    -0.076 C 
ATOM      5  C   LIG A   1      -5.584  -2.644 125.163  0.00  0.00    -0.025 C 
ATOM      6  C   LIG A   1      -6.596  -1.620 125.590  0.00  0.00    +0.062 C 
ATOM      7  C   LIG A   1      -4.334  -4.024 123.511  0.00  0.00    +0.038 C 
ENDROOT
BRANCH   1   8
ATOM      8  C   LIG A   1      -8.926  -2.051 124.469  0.00  0.00    +0.015 C 
ATOM      9  C   LIG A   1      -9.078  -3.005 123.283  0.00  0.00    +0.010 C 
ATOM     10  C   LIG A   1      -9.135  -2.861 125.764  0.00  0.00    +0.010 C 
ENDBRANCH   1   8
BRANCH   1  11
ATOM     11  O   LIG A   1      -8.009   0.157 124.816  0.00  0.00    -0.388 OA
ATOM     12  H   LIG A   1      -7.199   0.685 124.926  0.00  0.00    +0.210 HD
ENDBRANCH   1  11
TORSDOF 2
ENDMDL
MODEL 6
REMARK VINA RESULT:      -5.4     11.016     13.090
REMARK  Name = NuBBE_1741
REMARK  5 active torsions:
REMARK  status: ('A' for Active; 'I' for Inactive)
REMARK    1  A    between atoms: C_1  and  C_2
REMARK    2  A    between atoms: C_1  and  C_3
REMARK    3  A    between atoms: C_1  and  C_4
REMARK    4  A    between atoms: C_4  and  O_5
REMARK    5  A    between atoms: C_8  and  C_11
REMARK                            x       y       z     vdW  Elec       q    Type
REMARK                         _______ _______ _______ _____ _____    ______ ____
ROOT
ATOM      1  C   LIG A   1      -8.399  -1.814 123.950  0.00  0.00    +0.072 C 
ATOM      2  C   LIG A   1      -8.310  -3.346 124.113  0.00  0.00    +0.039 C 
ATOM      3  C   LIG A   1      -6.911  -3.913 124.356  0.00  0.00    +0.033 C 
ATOM      4  C   LIG A   1      -5.814  -3.192 123.620  0.00  0.00    -0.076 C 
ATOM      5  C   LIG A   1      -6.030  -2.040 122.962  0.00  0.00    -0.025 C 
ATOM      6  C   LIG A   1      -7.356  -1.337 122.910  0.00  0.00    +0.062 C 
ATOM      7  C   LIG A   1      -4.460  -3.840 123.662  0.00  0.00    +0.038 C 
ENDROOT
BRANCH   1   8
ATOM      8  C   LIG A   1      -8.371  -1.031 125.308  0.00  0.00    +0.015 C 
ATOM      9  C   LIG A   1      -9.286   0.192 125.396  0.00  0.00    +0.010 C 
ATOM     10  C   LIG A   1      -8.666  -1.938 126.518  0.00  0.00    +0.010 C 
ENDBRANCH   1   8
BRANCH   1  11
ATOM     11  O   LIG A   1      -9.700  -1.572 123.364  0.00  0.00    -0.388 OA
ATOM     12  H   LIG A   1      -9.567  -1.052 122.552  0.00  0.00    +0.210 HD
ENDBRANCH   1  11
TORSDOF 2
ENDMDL
MODEL 7
REMARK VINA RESULT:      -5.1     10.628     12.190
REMARK  Name = NuBBE_1741
REMARK  5 active torsions:
REMARK  status: ('A' for Active; 'I' for Inactive)
REMARK    1  A    between atoms: C_1  and  C_2
REMARK    2  A    between atoms: C_1  and  C_3
REMARK    3  A    between atoms: C_1  and  C_4
REMARK    4  A    between atoms: C_4  and  O_5
REMARK    5  A    between atoms: C_8  and  C_11
REMARK                            x       y       z     vdW  Elec       q    Type
REMARK                         _______ _______ _______ _____ _____    ______ ____
ROOT
ATOM      1  C   LIG A   1      -8.559  -1.831 125.118  0.00  0.00    +0.072 C 
ATOM      2  C   LIG A   1      -8.341  -0.842 126.284  0.00  0.00    +0.039 C 
ATOM      3  C   LIG A   1      -7.779  -1.441 127.573  0.00  0.00    +0.033 C 
ATOM      4  C   LIG A   1      -8.272  -2.831 127.876  0.00  0.00    -0.076 C 
ATOM      5  C   LIG A   1      -8.991  -3.544 126.994  0.00  0.00    -0.025 C 
ATOM      6  C   LIG A   1      -9.354  -3.061 125.619  0.00  0.00    +0.062 C 
ATOM      7  C   LIG A   1      -7.913  -3.372 129.231  0.00  0.00    +0.038 C 
ENDROOT
BRANCH   1   8
ATOM      8  C   LIG A   1      -7.250  -2.177 124.329  0.00  0.00    +0.015 C 
ATOM      9  C   LIG A   1      -6.889  -3.661 124.247  0.00  0.00    +0.010 C 
ATOM     10  C   LIG A   1      -7.256  -1.606 122.898  0.00  0.00    +0.010 C 
ENDBRANCH   1   8
BRANCH   1  11
ATOM     11  O   LIG A   1      -9.426  -1.135 124.192  0.00  0.00    -0.388 OA
ATOM     12  H   LIG A   1      -9.110  -0.218 124.123  0.00  0.00    +0.210 HD
ENDBRANCH   1  11
TORSDOF 2
ENDMDL
MODEL 8
REMARK VINA RESULT:      -5.0      2.723      3.764
REMARK  Name = NuBBE_1741
REMARK  5 active torsions:
REMARK  status: ('A' for Active; 'I' for Inactive)
REMARK    1  A    between atoms: C_1  and  C_2
REMARK    2  A    between atoms: C_1  and  C_3
REMARK    3  A    between atoms: C_1  and  C_4
REMARK    4  A    between atoms: C_4  and  O_5
REMARK    5  A    between atoms: C_8  and  C_11
REMARK                            x       y       z     vdW  Elec       q    Type
REMARK                         _______ _______ _______ _____ _____    ______ ____
ROOT
ATOM      1  C   LIG A   1     -10.134   6.332 131.082  0.00  0.00    +0.072 C 
ATOM      2  C   LIG A   1     -11.562   6.659 131.570  0.00  0.00    +0.039 C 
ATOM      3  C   LIG A   1     -12.589   6.959 130.478  0.00  0.00    +0.033 C 
ATOM      4  C   LIG A   1     -12.034   7.703 129.293  0.00  0.00    -0.076 C 
ATOM      5  C   LIG A   1     -10.716   7.913 129.132  0.00  0.00    -0.025 C 
ATOM      6  C   LIG A   1      -9.664   7.414 130.080  0.00  0.00    +0.062 C 
ATOM      7  C   LIG A   1     -13.044   8.201 128.299  0.00  0.00    +0.038 C 
ENDROOT
BRANCH   1   8
ATOM      8  C   LIG A   1      -9.959   4.858 130.580  0.00  0.00    +0.015 C 
ATOM      9  C   LIG A   1      -8.922   4.645 129.475  0.00  0.00    +0.010 C 
ATOM     10  C   LIG A   1      -9.645   3.877 131.726  0.00  0.00    +0.010 C 
ENDBRANCH   1   8
BRANCH   1  11
ATOM     11  O   LIG A   1      -9.296   6.469 132.254  0.00  0.00    -0.388 OA
ATOM     12  H   LIG A   1      -8.952   5.587 132.477  0.00  0.00    +0.210 HD
ENDBRANCH   1  11
TORSDOF 2
ENDMDL
MODEL 9
REMARK VINA RESULT:      -4.9     10.353     12.429
REMARK  Name = NuBBE_1741
REMARK  5 active torsions:
REMARK  status: ('A' for Active; 'I' for Inactive)
REMARK    1  A    between atoms: C_1  and  C_2
REMARK    2  A    between atoms: C_1  and  C_3
REMARK    3  A    between atoms: C_1  and  C_4
REMARK    4  A    between atoms: C_4  and  O_5
REMARK    5  A    between atoms: C_8  and  C_11
REMARK                            x       y       z     vdW  Elec       q    Type
REMARK                         _______ _______ _______ _____ _____    ______ ____
ROOT
ATOM      1  C   LIG A   1      -8.585  -1.140 124.544  0.00  0.00    +0.072 C 
ATOM      2  C   LIG A   1      -7.295  -0.883 125.353  0.00  0.00    +0.039 C 
ATOM      3  C   LIG A   1      -6.036  -1.588 124.846  0.00  0.00    +0.033 C 
ATOM      4  C   LIG A   1      -6.281  -2.959 124.276  0.00  0.00    -0.076 C 
ATOM      5  C   LIG A   1      -7.518  -3.436 124.063  0.00  0.00    -0.025 C 
ATOM      6  C   LIG A   1      -8.776  -2.661 124.334  0.00  0.00    +0.062 C 
ATOM      7  C   LIG A   1      -5.053  -3.767 123.962  0.00  0.00    +0.038 C 
ENDROOT
BRANCH   1   8
ATOM      8  C   LIG A   1      -8.691  -0.283 123.235  0.00  0.00    +0.015 C 
ATOM      9  C   LIG A   1     -10.066  -0.249 122.566  0.00  0.00    +0.010 C 
ATOM     10  C   LIG A   1      -8.224   1.171 123.443  0.00  0.00    +0.010 C 
ENDBRANCH   1   8
BRANCH   1  11
ATOM     11  O   LIG A   1      -9.662  -0.708 125.406  0.00  0.00    -0.388 OA
ATOM     12  H   LIG A   1     -10.499  -0.862 124.935  0.00  0.00    +0.210 HD
ENDBRANCH   1  11
TORSDOF 2
ENDMDL
