MODEL 1
REMARK VINA RESULT:      -6.0      0.000      0.000
REMARK  Name = NuBBE_346
REMARK  8 active torsions:
REMARK  status: ('A' for Active; 'I' for Inactive)
REMARK    1  A    between atoms: C_2  and  C_3
REMARK    2  A    between atoms: C_2  and  C_7
REMARK    3  A    between atoms: C_3  and  O_4
REMARK    4  A    between atoms: O_4  and  C_5
REMARK    5  A    between atoms: C_10  and  C_11
REMARK    6  A    between atoms: C_11  and  C_12
REMARK    7  A    between atoms: C_12  and  O_13
REMARK    8  A    between atoms: O_13  and  C_14
REMARK                            x       y       z     vdW  Elec       q    Type
REMARK                         _______ _______ _______ _____ _____    ______ ____
ROOT
ATOM      1  C   LIG A   1     -10.889   6.792 131.100  0.00  0.00    +0.029 A 
ATOM      2  C   LIG A   1      -9.970   7.308 130.177  0.00  0.00    +0.012 A 
ATOM      3  C   LIG A   1      -8.594   7.161 130.389  0.00  0.00    +0.012 A 
ATOM      4  C   LIG A   1      -8.122   6.498 131.529  0.00  0.00    +0.029 A 
ATOM      5  C   LIG A   1      -9.043   5.996 132.458  0.00  0.00    +0.012 A 
ATOM      6  C   LIG A   1     -10.420   6.142 132.247  0.00  0.00    +0.012 A 
ENDROOT
BRANCH   1   8
ATOM      7  O   LIG A   1     -13.148   7.196 131.704  0.00  0.00    -0.280 OA
ATOM      8  C   LIG A   1     -12.342   6.942 130.820  0.00  0.00    +0.269 C 
BRANCH   8   9
ATOM      9  C   LIG A   1     -12.837   6.794 129.392  0.00  0.00    +0.380 C 
ATOM     10  O   LIG A   1     -12.578   5.827 128.702  0.00  0.00    -0.241 OA
BRANCH   9  11
ATOM     11  O   LIG A   1     -13.532   7.900 129.052  0.00  0.00    -0.462 OA
ATOM     12  C   LIG A   1     -12.712   8.989 128.628  0.00  0.00    +0.280 C 
ENDBRANCH   9  11
ENDBRANCH   8   9
ENDBRANCH   1   8
BRANCH   4  13
ATOM     13  C   LIG A   1      -6.656   6.334 131.713  0.00  0.00    +0.269 C 
ATOM     14  O   LIG A   1      -6.154   6.137 132.813  0.00  0.00    -0.280 OA
BRANCH  13  15
ATOM     15  C   LIG A   1      -5.755   6.435 130.490  0.00  0.00    +0.380 C 
ATOM     16  O   LIG A   1      -5.612   5.516 129.703  0.00  0.00    -0.241 OA
BRANCH  15  17
ATOM     17  O   LIG A   1      -5.264   7.688 130.396  0.00  0.00    -0.462 OA
ATOM     18  C   LIG A   1      -3.859   7.773 130.631  0.00  0.00    +0.280 C 
ENDBRANCH  15  17
ENDBRANCH  13  15
ENDBRANCH   4  13
TORSDOF 6
ENDMDL
MODEL 2
REMARK VINA RESULT:      -5.9     10.161     11.941
REMARK  Name = NuBBE_346
REMARK  8 active torsions:
REMARK  status: ('A' for Active; 'I' for Inactive)
REMARK    1  A    between atoms: C_2  and  C_3
REMARK    2  A    between atoms: C_2  and  C_7
REMARK    3  A    between atoms: C_3  and  O_4
REMARK    4  A    between atoms: O_4  and  C_5
REMARK    5  A    between atoms: C_10  and  C_11
REMARK    6  A    between atoms: C_11  and  C_12
REMARK    7  A    between atoms: C_12  and  O_13
REMARK    8  A    between atoms: O_13  and  C_14
REMARK                            x       y       z     vdW  Elec       q    Type
REMARK                         _______ _______ _______ _____ _____    ______ ____
ROOT
ATOM      1  C   LIG A   1      -7.493  -3.116 129.122  0.00  0.00    +0.029 A 
ATOM      2  C   LIG A   1      -7.027  -1.989 128.432  0.00  0.00    +0.012 A 
ATOM      3  C   LIG A   1      -7.573  -1.644 127.189  0.00  0.00    +0.012 A 
ATOM      4  C   LIG A   1      -8.589  -2.425 126.623  0.00  0.00    +0.029 A 
ATOM      5  C   LIG A   1      -9.042  -3.559 127.308  0.00  0.00    +0.012 A 
ATOM      6  C   LIG A   1      -8.497  -3.906 128.551  0.00  0.00    +0.012 A 
ENDROOT
BRANCH   1   8
ATOM      7  O   LIG A   1      -7.434  -3.063 131.494  0.00  0.00    -0.280 OA
ATOM      8  C   LIG A   1      -6.907  -3.429 130.453  0.00  0.00    +0.269 C 
BRANCH   8   9
ATOM      9  C   LIG A   1      -5.626  -4.241 130.522  0.00  0.00    +0.380 C 
ATOM     10  O   LIG A   1      -5.617  -5.448 130.668  0.00  0.00    -0.241 OA
BRANCH   9  11
ATOM     11  O   LIG A   1      -4.570  -3.402 130.445  0.00  0.00    -0.462 OA
ATOM     12  C   LIG A   1      -3.723  -3.642 129.322  0.00  0.00    +0.280 C 
ENDBRANCH   9  11
ENDBRANCH   8   9
ENDBRANCH   1   8
BRANCH   4  13
ATOM     13  C   LIG A   1      -9.167  -2.017 125.315  0.00  0.00    +0.269 C 
ATOM     14  O   LIG A   1      -9.775  -0.963 125.171  0.00  0.00    -0.280 OA
BRANCH  13  15
ATOM     15  C   LIG A   1      -9.008  -2.954 124.127  0.00  0.00    +0.380 C 
ATOM     16  O   LIG A   1      -9.946  -3.293 123.428  0.00  0.00    -0.241 OA
BRANCH  15  17
ATOM     17  O   LIG A   1      -7.700  -3.233 123.947  0.00  0.00    -0.462 OA
ATOM     18  C   LIG A   1      -6.993  -2.225 123.225  0.00  0.00    +0.280 C 
ENDBRANCH  15  17
ENDBRANCH  13  15
ENDBRANCH   4  13
TORSDOF 6
ENDMDL
MODEL 3
REMARK VINA RESULT:      -5.9     10.160     10.998
REMARK  Name = NuBBE_346
REMARK  8 active torsions:
REMARK  status: ('A' for Active; 'I' for Inactive)
REMARK    1  A    between atoms: C_2  and  C_3
REMARK    2  A    between atoms: C_2  and  C_7
REMARK    3  A    between atoms: C_3  and  O_4
REMARK    4  A    between atoms: O_4  and  C_5
REMARK    5  A    between atoms: C_10  and  C_11
REMARK    6  A    between atoms: C_11  and  C_12
REMARK    7  A    between atoms: C_12  and  O_13
REMARK    8  A    between atoms: O_13  and  C_14
REMARK                            x       y       z     vdW  Elec       q    Type
REMARK                         _______ _______ _______ _____ _____    ______ ____
ROOT
ATOM      1  C   LIG A   1      -8.590  -2.420 126.599  0.00  0.00    +0.029 A 
ATOM      2  C   LIG A   1      -7.713  -1.542 127.250  0.00  0.00    +0.012 A 
ATOM      3  C   LIG A   1      -7.212  -1.851 128.520  0.00  0.00    +0.012 A 
ATOM      4  C   LIG A   1      -7.587  -3.043 129.155  0.00  0.00    +0.029 A 
ATOM      5  C   LIG A   1      -8.476  -3.911 128.510  0.00  0.00    +0.012 A 
ATOM      6  C   LIG A   1      -8.977  -3.603 127.239  0.00  0.00    +0.012 A 
ENDROOT
BRANCH   1   8
ATOM      7  O   LIG A   1      -9.639  -1.008 125.006  0.00  0.00    -0.280 OA
ATOM      8  C   LIG A   1      -9.073  -2.067 125.238  0.00  0.00    +0.269 C 
BRANCH   8   9
ATOM      9  C   LIG A   1      -8.841  -3.044 124.098  0.00  0.00    +0.380 C 
ATOM     10  O   LIG A   1      -9.747  -3.505 123.430  0.00  0.00    -0.241 OA
BRANCH   9  11
ATOM     11  O   LIG A   1      -7.521  -3.315 124.015  0.00  0.00    -0.462 OA
ATOM     12  C   LIG A   1      -6.764  -2.304 123.350  0.00  0.00    +0.280 C 
ENDBRANCH   9  11
ENDBRANCH   8   9
ENDBRANCH   1   8
BRANCH   4  13
ATOM     13  C   LIG A   1      -7.017  -3.356 130.493  0.00  0.00    +0.269 C 
ATOM     14  O   LIG A   1      -7.556  -2.994 131.532  0.00  0.00    -0.280 OA
BRANCH  13  15
ATOM     15  C   LIG A   1      -5.712  -4.136 130.561  0.00  0.00    +0.380 C 
ATOM     16  O   LIG A   1      -5.677  -5.350 130.644  0.00  0.00    -0.241 OA
BRANCH  15  17
ATOM     17  O   LIG A   1      -4.674  -3.286 130.415  0.00  0.00    -0.462 OA
ATOM     18  C   LIG A   1      -3.792  -3.637 129.349  0.00  0.00    +0.280 C 
ENDBRANCH  15  17
ENDBRANCH  13  15
ENDBRANCH   4  13
TORSDOF 6
ENDMDL
MODEL 4
REMARK VINA RESULT:      -5.9      2.407      3.434
REMARK  Name = NuBBE_346
REMARK  8 active torsions:
REMARK  status: ('A' for Active; 'I' for Inactive)
REMARK    1  A    between atoms: C_2  and  C_3
REMARK    2  A    between atoms: C_2  and  C_7
REMARK    3  A    between atoms: C_3  and  O_4
REMARK    4  A    between atoms: O_4  and  C_5
REMARK    5  A    between atoms: C_10  and  C_11
REMARK    6  A    between atoms: C_11  and  C_12
REMARK    7  A    between atoms: C_12  and  O_13
REMARK    8  A    between atoms: O_13  and  C_14
REMARK                            x       y       z     vdW  Elec       q    Type
REMARK                         _______ _______ _______ _____ _____    ______ ____
ROOT
ATOM      1  C   LIG A   1     -10.922   7.571 129.652  0.00  0.00    +0.029 A 
ATOM      2  C   LIG A   1      -9.522   7.512 129.693  0.00  0.00    +0.012 A 
ATOM      3  C   LIG A   1      -8.869   6.890 130.765  0.00  0.00    +0.012 A 
ATOM      4  C   LIG A   1      -9.611   6.323 131.809  0.00  0.00    +0.029 A 
ATOM      5  C   LIG A   1     -11.010   6.397 131.774  0.00  0.00    +0.012 A 
ATOM      6  C   LIG A   1     -11.663   7.019 130.703  0.00  0.00    +0.012 A 
ENDROOT
BRANCH   1   8
ATOM      7  O   LIG A   1     -10.929   8.642 127.535  0.00  0.00    -0.280 OA
ATOM      8  C   LIG A   1     -11.574   8.213 128.481  0.00  0.00    +0.269 C 
BRANCH   8   9
ATOM      9  C   LIG A   1     -13.089   8.324 128.450  0.00  0.00    +0.380 C 
ATOM     10  O   LIG A   1     -13.820   7.354 128.383  0.00  0.00    -0.241 OA
BRANCH   9  11
ATOM     11  O   LIG A   1     -13.433   9.630 128.458  0.00  0.00    -0.462 OA
ATOM     12  C   LIG A   1     -13.299  10.254 129.735  0.00  0.00    +0.280 C 
ENDBRANCH   9  11
ENDBRANCH   8   9
ENDBRANCH   1   8
BRANCH   4  13
ATOM     13  C   LIG A   1      -8.890   5.646 132.920  0.00  0.00    +0.269 C 
ATOM     14  O   LIG A   1      -8.695   6.192 133.999  0.00  0.00    -0.280 OA
BRANCH  13  15
ATOM     15  C   LIG A   1      -8.366   4.236 132.692  0.00  0.00    +0.380 C 
ATOM     16  O   LIG A   1      -7.312   4.011 132.124  0.00  0.00    -0.241 OA
BRANCH  15  17
ATOM     17  O   LIG A   1      -9.188   3.349 133.293  0.00  0.00    -0.462 OA
ATOM     18  C   LIG A   1      -9.650   2.316 132.423  0.00  0.00    +0.280 C 
ENDBRANCH  15  17
ENDBRANCH  13  15
ENDBRANCH   4  13
TORSDOF 6
ENDMDL
MODEL 5
REMARK VINA RESULT:      -5.7      9.669     11.145
REMARK  Name = NuBBE_346
REMARK  8 active torsions:
REMARK  status: ('A' for Active; 'I' for Inactive)
REMARK    1  A    between atoms: C_2  and  C_3
REMARK    2  A    between atoms: C_2  and  C_7
REMARK    3  A    between atoms: C_3  and  O_4
REMARK    4  A    between atoms: O_4  and  C_5
REMARK    5  A    between atoms: C_10  and  C_11
REMARK    6  A    between atoms: C_11  and  C_12
REMARK    7  A    between atoms: C_12  and  O_13
REMARK    8  A    between atoms: O_13  and  C_14
REMARK                            x       y       z     vdW  Elec       q    Type
REMARK                         _______ _______ _______ _____ _____    ______ ____
ROOT
ATOM      1  C   LIG A   1      -7.027   4.091 120.214  0.00  0.00    +0.029 A 
ATOM      2  C   LIG A   1      -5.940   3.733 121.024  0.00  0.00    +0.012 A 
ATOM      3  C   LIG A   1      -6.151   3.111 122.260  0.00  0.00    +0.012 A 
ATOM      4  C   LIG A   1      -7.454   2.842 122.701  0.00  0.00    +0.029 A 
ATOM      5  C   LIG A   1      -8.539   3.214 121.897  0.00  0.00    +0.012 A 
ATOM      6  C   LIG A   1      -8.328   3.837 120.661  0.00  0.00    +0.012 A 
ENDROOT
BRANCH   1   8
ATOM      7  O   LIG A   1      -7.299   4.337 117.870  0.00  0.00    -0.280 OA
ATOM      8  C   LIG A   1      -6.756   4.722 118.896  0.00  0.00    +0.269 C 
BRANCH   8   9
ATOM      9  C   LIG A   1      -5.789   5.891 118.822  0.00  0.00    +0.380 C 
ATOM     10  O   LIG A   1      -5.095   6.233 119.760  0.00  0.00    -0.241 OA
BRANCH   9  11
ATOM     11  O   LIG A   1      -5.887   6.465 117.604  0.00  0.00    -0.462 OA
ATOM     12  C   LIG A   1      -6.153   7.867 117.645  0.00  0.00    +0.280 C 
ENDBRANCH   9  11
ENDBRANCH   8   9
ENDBRANCH   1   8
BRANCH   4  13
ATOM     13  C   LIG A   1      -7.645   2.155 124.006  0.00  0.00    +0.269 C 
ATOM     14  O   LIG A   1      -6.951   1.205 124.351  0.00  0.00    -0.280 OA
BRANCH  13  15
ATOM     15  C   LIG A   1      -8.753   2.643 124.928  0.00  0.00    +0.380 C 
ATOM     16  O   LIG A   1      -8.880   3.814 125.238  0.00  0.00    -0.241 OA
BRANCH  15  17
ATOM     17  O   LIG A   1      -9.572   1.614 125.229  0.00  0.00    -0.462 OA
ATOM     18  C   LIG A   1     -10.514   1.312 124.200  0.00  0.00    +0.280 C 
ENDBRANCH  15  17
ENDBRANCH  13  15
ENDBRANCH   4  13
TORSDOF 6
ENDMDL
MODEL 6
REMARK VINA RESULT:      -5.6     10.004     10.994
REMARK  Name = NuBBE_346
REMARK  8 active torsions:
REMARK  status: ('A' for Active; 'I' for Inactive)
REMARK    1  A    between atoms: C_2  and  C_3
REMARK    2  A    between atoms: C_2  and  C_7
REMARK    3  A    between atoms: C_3  and  O_4
REMARK    4  A    between atoms: O_4  and  C_5
REMARK    5  A    between atoms: C_10  and  C_11
REMARK    6  A    between atoms: C_11  and  C_12
REMARK    7  A    between atoms: C_12  and  O_13
REMARK    8  A    between atoms: O_13  and  C_14
REMARK                            x       y       z     vdW  Elec       q    Type
REMARK                         _______ _______ _______ _____ _____    ______ ____
ROOT
ATOM      1  C   LIG A   1      -8.401  -2.391 126.543  0.00  0.00    +0.029 A 
ATOM      2  C   LIG A   1      -8.976  -3.445 127.266  0.00  0.00    +0.012 A 
ATOM      3  C   LIG A   1      -8.404  -3.874 128.470  0.00  0.00    +0.012 A 
ATOM      4  C   LIG A   1      -7.248  -3.255 128.962  0.00  0.00    +0.029 A 
ATOM      5  C   LIG A   1      -6.666  -2.212 128.229  0.00  0.00    +0.012 A 
ATOM      6  C   LIG A   1      -7.237  -1.782 127.025  0.00  0.00    +0.012 A 
ENDROOT
BRANCH   1   8
ATOM      7  O   LIG A   1      -9.672  -0.892 125.214  0.00  0.00    -0.280 OA
ATOM      8  C   LIG A   1      -9.058  -1.947 125.285  0.00  0.00    +0.269 C 
BRANCH   8   9
ATOM      9  C   LIG A   1      -8.950  -2.822 124.048  0.00  0.00    +0.380 C 
ATOM     10  O   LIG A   1      -9.921  -3.274 123.473  0.00  0.00    -0.241 OA
BRANCH   9  11
ATOM     11  O   LIG A   1      -7.644  -3.022 123.766  0.00  0.00    -0.462 OA
ATOM     12  C   LIG A   1      -7.044  -1.960 123.025  0.00  0.00    +0.280 C 
ENDBRANCH   9  11
ENDBRANCH   8   9
ENDBRANCH   1   8
BRANCH   4  13
ATOM     13  C   LIG A   1      -6.680  -3.714 130.257  0.00  0.00    +0.269 C 
ATOM     14  O   LIG A   1      -5.986  -4.721 130.344  0.00  0.00    -0.280 OA
BRANCH  13  15
ATOM     15  C   LIG A   1      -6.992  -2.913 131.512  0.00  0.00    +0.380 C 
ATOM     16  O   LIG A   1      -7.774  -1.979 131.517  0.00  0.00    -0.241 OA
BRANCH  15  17
ATOM     17  O   LIG A   1      -6.359  -3.466 132.567  0.00  0.00    -0.462 OA
ATOM     18  C   LIG A   1      -7.183  -3.603 133.724  0.00  0.00    +0.280 C 
ENDBRANCH  15  17
ENDBRANCH  13  15
ENDBRANCH   4  13
TORSDOF 6
ENDMDL
MODEL 7
REMARK VINA RESULT:      -5.5      2.861      3.888
REMARK  Name = NuBBE_346
REMARK  8 active torsions:
REMARK  status: ('A' for Active; 'I' for Inactive)
REMARK    1  A    between atoms: C_2  and  C_3
REMARK    2  A    between atoms: C_2  and  C_7
REMARK    3  A    between atoms: C_3  and  O_4
REMARK    4  A    between atoms: O_4  and  C_5
REMARK    5  A    between atoms: C_10  and  C_11
REMARK    6  A    between atoms: C_11  and  C_12
REMARK    7  A    between atoms: C_12  and  O_13
REMARK    8  A    between atoms: O_13  and  C_14
REMARK                            x       y       z     vdW  Elec       q    Type
REMARK                         _______ _______ _______ _____ _____    ______ ____
ROOT
ATOM      1  C   LIG A   1     -11.290   6.000 130.862  0.00  0.00    +0.029 A 
ATOM      2  C   LIG A   1     -11.389   4.694 130.364  0.00  0.00    +0.012 A 
ATOM      3  C   LIG A   1     -10.340   3.784 130.544  0.00  0.00    +0.012 A 
ATOM      4  C   LIG A   1      -9.178   4.174 131.222  0.00  0.00    +0.029 A 
ATOM      5  C   LIG A   1      -9.074   5.484 131.706  0.00  0.00    +0.012 A 
ATOM      6  C   LIG A   1     -10.123   6.395 131.526  0.00  0.00    +0.012 A 
ENDROOT
BRANCH   1   8
ATOM      7  O   LIG A   1     -13.211   7.189 131.588  0.00  0.00    -0.280 OA
ATOM      8  C   LIG A   1     -12.440   6.923 130.676  0.00  0.00    +0.269 C 
BRANCH   8   9
ATOM      9  C   LIG A   1     -12.655   7.569 129.318  0.00  0.00    +0.380 C 
ATOM     10  O   LIG A   1     -13.467   7.156 128.512  0.00  0.00    -0.241 OA
BRANCH   9  11
ATOM     11  O   LIG A   1     -11.786   8.593 129.177  0.00  0.00    -0.462 OA
ATOM     12  C   LIG A   1     -10.884   8.439 128.082  0.00  0.00    +0.280 C 
ENDBRANCH   9  11
ENDBRANCH   8   9
ENDBRANCH   1   8
BRANCH   4  13
ATOM     13  C   LIG A   1      -8.092   3.177 131.421  0.00  0.00    +0.269 C 
ATOM     14  O   LIG A   1      -7.128   3.104 130.668  0.00  0.00    -0.280 OA
BRANCH  13  15
ATOM     15  C   LIG A   1      -8.200   2.209 132.591  0.00  0.00    +0.380 C 
ATOM     16  O   LIG A   1      -8.569   2.557 133.698  0.00  0.00    -0.241 OA
BRANCH  15  17
ATOM     17  O   LIG A   1      -7.929   0.958 132.164  0.00  0.00    -0.462 OA
ATOM     18  C   LIG A   1      -9.076   0.252 131.690  0.00  0.00    +0.280 C 
ENDBRANCH  15  17
ENDBRANCH  13  15
ENDBRANCH   4  13
TORSDOF 6
ENDMDL
MODEL 8
REMARK VINA RESULT:      -5.4      9.915     11.607
REMARK  Name = NuBBE_346
REMARK  8 active torsions:
REMARK  status: ('A' for Active; 'I' for Inactive)
REMARK    1  A    between atoms: C_2  and  C_3
REMARK    2  A    between atoms: C_2  and  C_7
REMARK    3  A    between atoms: C_3  and  O_4
REMARK    4  A    between atoms: O_4  and  C_5
REMARK    5  A    between atoms: C_10  and  C_11
REMARK    6  A    between atoms: C_11  and  C_12
REMARK    7  A    between atoms: C_12  and  O_13
REMARK    8  A    between atoms: O_13  and  C_14
REMARK                            x       y       z     vdW  Elec       q    Type
REMARK                         _______ _______ _______ _____ _____    ______ ____
ROOT
ATOM      1  C   LIG A   1      -7.081  -3.295 129.096  0.00  0.00    +0.029 A 
ATOM      2  C   LIG A   1      -8.331  -3.819 128.740  0.00  0.00    +0.012 A 
ATOM      3  C   LIG A   1      -8.957  -3.417 127.554  0.00  0.00    +0.012 A 
ATOM      4  C   LIG A   1      -8.340  -2.483 126.712  0.00  0.00    +0.029 A 
ATOM      5  C   LIG A   1      -7.097  -1.949 127.077  0.00  0.00    +0.012 A 
ATOM      6  C   LIG A   1      -6.470  -2.350 128.263  0.00  0.00    +0.012 A 
ENDROOT
BRANCH   1   8
ATOM      7  O   LIG A   1      -5.617  -4.679 130.349  0.00  0.00    -0.280 OA
ATOM      8  C   LIG A   1      -6.437  -3.772 130.348  0.00  0.00    +0.269 C 
BRANCH   8   9
ATOM      9  C   LIG A   1      -6.797  -3.103 131.663  0.00  0.00    +0.380 C 
ATOM     10  O   LIG A   1      -6.807  -3.697 132.724  0.00  0.00    -0.241 OA
BRANCH   9  11
ATOM     11  O   LIG A   1      -7.130  -1.817 131.424  0.00  0.00    -0.462 OA
ATOM     12  C   LIG A   1      -7.937  -1.229 132.444  0.00  0.00    +0.280 C 
ENDBRANCH   9  11
ENDBRANCH   8   9
ENDBRANCH   1   8
BRANCH   4  13
ATOM     13  C   LIG A   1      -9.017  -2.096 125.446  0.00  0.00    +0.269 C 
ATOM     14  O   LIG A   1      -9.668  -1.063 125.344  0.00  0.00    -0.280 OA
BRANCH  13  15
ATOM     15  C   LIG A   1      -8.908  -3.030 124.249  0.00  0.00    +0.380 C 
ATOM     16  O   LIG A   1      -9.879  -3.398 123.613  0.00  0.00    -0.241 OA
BRANCH  15  17
ATOM     17  O   LIG A   1      -7.606  -3.270 123.985  0.00  0.00    -0.462 OA
ATOM     18  C   LIG A   1      -6.977  -2.240 123.224  0.00  0.00    +0.280 C 
ENDBRANCH  15  17
ENDBRANCH  13  15
ENDBRANCH   4  13
TORSDOF 6
ENDMDL
MODEL 9
REMARK VINA RESULT:      -5.4      9.453     11.004
REMARK  Name = NuBBE_346
REMARK  8 active torsions:
REMARK  status: ('A' for Active; 'I' for Inactive)
REMARK    1  A    between atoms: C_2  and  C_3
REMARK    2  A    between atoms: C_2  and  C_7
REMARK    3  A    between atoms: C_3  and  O_4
REMARK    4  A    between atoms: O_4  and  C_5
REMARK    5  A    between atoms: C_10  and  C_11
REMARK    6  A    between atoms: C_11  and  C_12
REMARK    7  A    between atoms: C_12  and  O_13
REMARK    8  A    between atoms: O_13  and  C_14
REMARK                            x       y       z     vdW  Elec       q    Type
REMARK                         _______ _______ _______ _____ _____    ______ ____
ROOT
ATOM      1  C   LIG A   1      -7.707  -2.557 129.123  0.00  0.00    +0.029 A 
ATOM      2  C   LIG A   1      -8.677  -3.454 128.655  0.00  0.00    +0.012 A 
ATOM      3  C   LIG A   1      -8.804  -3.709 127.284  0.00  0.00    +0.012 A 
ATOM      4  C   LIG A   1      -7.963  -3.067 126.366  0.00  0.00    +0.029 A 
ATOM      5  C   LIG A   1      -7.005  -2.159 126.835  0.00  0.00    +0.012 A 
ATOM      6  C   LIG A   1      -6.877  -1.903 128.206  0.00  0.00    +0.012 A 
ENDROOT
BRANCH   1   8
ATOM      7  O   LIG A   1      -7.358  -3.257 131.363  0.00  0.00    -0.280 OA
ATOM      8  C   LIG A   1      -7.586  -2.339 130.588  0.00  0.00    +0.269 C 
BRANCH   8   9
ATOM      9  C   LIG A   1      -7.733  -0.930 131.139  0.00  0.00    +0.380 C 
ATOM     10  O   LIG A   1      -8.797  -0.342 131.168  0.00  0.00    -0.241 OA
BRANCH   9  11
ATOM     11  O   LIG A   1      -6.518  -0.478 131.516  0.00  0.00    -0.462 OA
ATOM     12  C   LIG A   1      -6.180   0.795 130.966  0.00  0.00    +0.280 C 
ENDBRANCH   9  11
ENDBRANCH   8   9
ENDBRANCH   1   8
BRANCH   4  13
ATOM     13  C   LIG A   1      -8.104  -3.380 124.919  0.00  0.00    +0.269 C 
ATOM     14  O   LIG A   1      -7.294  -4.077 124.320  0.00  0.00    -0.280 OA
BRANCH  13  15
ATOM     15  C   LIG A   1      -9.287  -2.794 124.162  0.00  0.00    +0.380 C 
ATOM     16  O   LIG A   1      -9.982  -3.458 123.414  0.00  0.00    -0.241 OA
BRANCH  15  17
ATOM     17  O   LIG A   1      -9.467  -1.509 124.535  0.00  0.00    -0.462 OA
ATOM     18  C   LIG A   1      -8.840  -0.566 123.667  0.00  0.00    +0.280 C 
ENDBRANCH  15  17
ENDBRANCH  13  15
ENDBRANCH   4  13
TORSDOF 6
ENDMDL
