MODEL 1
REMARK VINA RESULT:      -8.9      0.000      0.000
REMARK  Name = NuBBE_379
REMARK  12 active torsions:
REMARK  status: ('A' for Active; 'I' for Inactive)
REMARK    1  A    between atoms: C_3  and  O_4
REMARK    2  A    between atoms: C_5  and  C_6
REMARK    3  A    between atoms: C_11  and  C_29
REMARK    4  A    between atoms: C_14  and  C_15
REMARK    5  A    between atoms: C_19  and  C_20
REMARK    6  A    between atoms: C_19  and  C_21
REMARK    7  A    between atoms: C_21  and  O_22
REMARK    8  A    between atoms: O_22  and  C_23
REMARK    9  A    between atoms: C_26  and  O_27
REMARK   10  A    between atoms: C_26  and  C_28
REMARK   11  A    between atoms: C_30  and  C_31
REMARK   12  A    between atoms: C_34  and  C_35
REMARK                            x       y       z     vdW  Elec       q    Type
REMARK                         _______ _______ _______ _____ _____    ______ ____
ROOT
ATOM      1  O   LIG A   1      -9.342   1.291 122.362  0.00  0.00    -0.284 OA
ATOM      2  C   LIG A   1      -8.501   1.495 123.234  0.00  0.00    +0.221 C 
ATOM      3  C   LIG A   1      -7.848   2.826 123.339  0.00  0.00    +0.167 C 
ATOM      4  C   LIG A   1      -6.899   3.055 124.265  0.00  0.00    +0.002 C 
ATOM      5  C   LIG A   1      -6.281   4.423 124.412  0.00  0.00    +0.048 C 
ATOM      6  C   LIG A   1      -6.492   1.961 125.179  0.00  0.00    -0.014 C 
ATOM      7  C   LIG A   1      -5.493   2.133 126.066  0.00  0.00    +0.008 C 
ATOM      8  C   LIG A   1      -5.161   1.188 127.101  0.00  0.00    +0.001 C 
ATOM      9  C   LIG A   1      -5.748  -0.018 127.212  0.00  0.00    -0.053 C 
ATOM     10  C   LIG A   1      -5.672  -0.880 128.523  0.00  0.00    -0.004 C 
ATOM     11  C   LIG A   1      -4.499  -0.438 129.479  0.00  0.00    +0.012 C 
ATOM     12  C   LIG A   1      -4.754   0.673 130.502  0.00  0.00    +0.010 C 
ATOM     13  C   LIG A   1      -6.040   0.468 131.339  0.00  0.00    -0.000 C 
ATOM     14  C   LIG A   1      -5.884  -0.837 132.164  0.00  0.00    +0.014 C 
ATOM     15  C   LIG A   1      -7.185   0.429 130.251  0.00  0.00    +0.006 C 
ATOM     16  C   LIG A   1      -8.565   0.730 130.888  0.00  0.00    +0.022 C 
ATOM     17  C   LIG A   1      -8.650   2.174 131.476  0.00  0.00    +0.068 C 
ATOM     18  C   LIG A   1      -9.595   2.177 132.701  0.00  0.00    +0.023 C 
ATOM     19  C   LIG A   1      -7.251   2.727 131.850  0.00  0.00    +0.052 C 
ATOM     20  C   LIG A   1      -6.278   1.662 132.382  0.00  0.00    +0.070 C 
ATOM     21  C   LIG A   1      -4.985   2.361 132.832  0.00  0.00    +0.042 C 
ATOM     22  C   LIG A   1      -5.257  -2.341 128.165  0.00  0.00    +0.016 C 
ATOM     23  C   LIG A   1      -7.129  -0.792 129.224  0.00  0.00    -0.019 C 
ATOM     24  C   LIG A   1      -7.555  -2.126 129.891  0.00  0.00    +0.012 C 
ATOM     25  C   LIG A   1      -8.243  -0.531 128.127  0.00  0.00    +0.009 C 
ATOM     26  C   LIG A   1      -7.940  -1.164 126.766  0.00  0.00    +0.016 C 
ATOM     27  C   LIG A   1      -6.711  -0.494 126.088  0.00  0.00    +0.015 C 
ATOM     28  C   LIG A   1      -5.981  -1.491 125.147  0.00  0.00    +0.021 C 
ATOM     29  C   LIG A   1      -7.177   0.657 125.144  0.00  0.00    -0.026 C 
ATOM     30  C   LIG A   1      -8.118   0.452 124.199  0.00  0.00    +0.059 C 
ENDROOT
BRANCH   3  31
ATOM     31  O   LIG A   1      -8.277   3.796 122.448  0.00  0.00    -0.503 OA
ATOM     32  H   LIG A   1      -8.884   4.363 122.970  0.00  0.00    +0.292 HD
ENDBRANCH   3  31
BRANCH  17  33
ATOM     33  C   LIG A   1      -9.244   3.101 130.391  0.00  0.00    +0.313 C 
ATOM     34  O   LIG A   1      -9.439   2.780 129.232  0.00  0.00    -0.250 OA
BRANCH  33  35
ATOM     35  O   LIG A   1      -9.640   4.290 130.930  0.00  0.00    -0.468 OA
ATOM     36  C   LIG A   1     -10.860   4.805 130.402  0.00  0.00    +0.280 C 
ENDBRANCH  33  35
ENDBRANCH  17  33
BRANCH  20  37
ATOM     37  O   LIG A   1      -6.832   1.176 133.617  0.00  0.00    -0.388 OA
ATOM     38  H   LIG A   1      -6.144   1.175 134.300  0.00  0.00    +0.210 HD
ENDBRANCH  20  37
TORSDOF 4
ENDMDL
MODEL 2
REMARK VINA RESULT:      -8.6      2.039      3.225
REMARK  Name = NuBBE_379
REMARK  12 active torsions:
REMARK  status: ('A' for Active; 'I' for Inactive)
REMARK    1  A    between atoms: C_3  and  O_4
REMARK    2  A    between atoms: C_5  and  C_6
REMARK    3  A    between atoms: C_11  and  C_29
REMARK    4  A    between atoms: C_14  and  C_15
REMARK    5  A    between atoms: C_19  and  C_20
REMARK    6  A    between atoms: C_19  and  C_21
REMARK    7  A    between atoms: C_21  and  O_22
REMARK    8  A    between atoms: O_22  and  C_23
REMARK    9  A    between atoms: C_26  and  O_27
REMARK   10  A    between atoms: C_26  and  C_28
REMARK   11  A    between atoms: C_30  and  C_31
REMARK   12  A    between atoms: C_34  and  C_35
REMARK                            x       y       z     vdW  Elec       q    Type
REMARK                         _______ _______ _______ _____ _____    ______ ____
ROOT
ATOM      1  O   LIG A   1      -9.827  -2.021 125.328  0.00  0.00    -0.284 OA
ATOM      2  C   LIG A   1      -9.105  -1.057 125.573  0.00  0.00    +0.221 C 
ATOM      3  C   LIG A   1      -9.086   0.109 124.652  0.00  0.00    +0.167 C 
ATOM      4  C   LIG A   1      -8.274   1.156 124.887  0.00  0.00    +0.002 C 
ATOM      5  C   LIG A   1      -8.300   2.366 123.987  0.00  0.00    +0.048 C 
ATOM      6  C   LIG A   1      -7.380   1.137 126.068  0.00  0.00    -0.014 C 
ATOM      7  C   LIG A   1      -6.501   2.133 126.291  0.00  0.00    +0.008 C 
ATOM      8  C   LIG A   1      -5.731   2.275 127.500  0.00  0.00    +0.001 C 
ATOM      9  C   LIG A   1      -5.732   1.358 128.485  0.00  0.00    -0.053 C 
ATOM     10  C   LIG A   1      -5.211   1.671 129.934  0.00  0.00    -0.004 C 
ATOM     11  C   LIG A   1      -4.288   2.947 129.991  0.00  0.00    +0.012 C 
ATOM     12  C   LIG A   1      -4.935   4.322 130.178  0.00  0.00    +0.010 C 
ATOM     13  C   LIG A   1      -5.953   4.381 131.342  0.00  0.00    -0.000 C 
ATOM     14  C   LIG A   1      -5.199   4.086 132.667  0.00  0.00    +0.014 C 
ATOM     15  C   LIG A   1      -7.033   3.300 130.942  0.00  0.00    +0.006 C 
ATOM     16  C   LIG A   1      -8.366   3.543 131.694  0.00  0.00    +0.022 C 
ATOM     17  C   LIG A   1      -9.030   4.902 131.308  0.00  0.00    +0.068 C 
ATOM     18  C   LIG A   1      -9.807   5.460 132.524  0.00  0.00    +0.023 C 
ATOM     19  C   LIG A   1      -7.986   5.928 130.795  0.00  0.00    +0.052 C 
ATOM     20  C   LIG A   1      -6.619   5.831 131.490  0.00  0.00    +0.070 C 
ATOM     21  C   LIG A   1      -5.730   6.978 130.982  0.00  0.00    +0.042 C 
ATOM     22  C   LIG A   1      -4.229   0.548 130.390  0.00  0.00    +0.016 C 
ATOM     23  C   LIG A   1      -6.518   1.789 130.883  0.00  0.00    -0.019 C 
ATOM     24  C   LIG A   1      -6.284   1.204 132.301  0.00  0.00    +0.012 C 
ATOM     25  C   LIG A   1      -7.700   0.917 130.290  0.00  0.00    +0.009 C 
ATOM     26  C   LIG A   1      -7.236  -0.346 129.556  0.00  0.00    +0.016 C 
ATOM     27  C   LIG A   1      -6.462   0.005 128.254  0.00  0.00    +0.015 C 
ATOM     28  C   LIG A   1      -5.431  -1.103 127.903  0.00  0.00    +0.021 C 
ATOM     29  C   LIG A   1      -7.435   0.027 127.036  0.00  0.00    -0.026 C 
ATOM     30  C   LIG A   1      -8.252  -1.015 126.772  0.00  0.00    +0.059 C 
ENDROOT
BRANCH   3  31
ATOM     31  O   LIG A   1      -9.945   0.053 123.567  0.00  0.00    -0.503 OA
ATOM     32  H   LIG A   1     -10.163   0.990 123.373  0.00  0.00    +0.292 HD
ENDBRANCH   3  31
BRANCH  17  33
ATOM     33  C   LIG A   1     -10.031   4.640 130.160  0.00  0.00    +0.313 C 
ATOM     34  O   LIG A   1     -10.752   3.661 130.075  0.00  0.00    -0.250 OA
BRANCH  33  35
ATOM     35  O   LIG A   1     -10.094   5.709 129.315  0.00  0.00    -0.468 OA
ATOM     36  C   LIG A   1     -11.347   6.390 129.313  0.00  0.00    +0.280 C 
ENDBRANCH  33  35
ENDBRANCH  17  33
BRANCH  20  37
ATOM     37  O   LIG A   1      -6.832   6.172 132.871  0.00  0.00    -0.388 OA
ATOM     38  H   LIG A   1      -6.152   5.749 133.417  0.00  0.00    +0.210 HD
ENDBRANCH  20  37
TORSDOF 4
ENDMDL
MODEL 3
REMARK VINA RESULT:      -8.4      3.991      7.025
REMARK  Name = NuBBE_379
REMARK  12 active torsions:
REMARK  status: ('A' for Active; 'I' for Inactive)
REMARK    1  A    between atoms: C_3  and  O_4
REMARK    2  A    between atoms: C_5  and  C_6
REMARK    3  A    between atoms: C_11  and  C_29
REMARK    4  A    between atoms: C_14  and  C_15
REMARK    5  A    between atoms: C_19  and  C_20
REMARK    6  A    between atoms: C_19  and  C_21
REMARK    7  A    between atoms: C_21  and  O_22
REMARK    8  A    between atoms: O_22  and  C_23
REMARK    9  A    between atoms: C_26  and  O_27
REMARK   10  A    between atoms: C_26  and  C_28
REMARK   11  A    between atoms: C_30  and  C_31
REMARK   12  A    between atoms: C_34  and  C_35
REMARK                            x       y       z     vdW  Elec       q    Type
REMARK                         _______ _______ _______ _____ _____    ______ ____
ROOT
ATOM      1  O   LIG A   1      -6.554  -3.577 129.244  0.00  0.00    -0.284 OA
ATOM      2  C   LIG A   1      -6.266  -2.633 129.975  0.00  0.00    +0.221 C 
ATOM      3  C   LIG A   1      -5.006  -2.659 130.762  0.00  0.00    +0.167 C 
ATOM      4  C   LIG A   1      -4.694  -1.649 131.595  0.00  0.00    +0.002 C 
ATOM      5  C   LIG A   1      -3.386  -1.647 132.346  0.00  0.00    +0.048 C 
ATOM      6  C   LIG A   1      -5.627  -0.507 131.739  0.00  0.00    -0.014 C 
ATOM      7  C   LIG A   1      -5.384   0.483 132.620  0.00  0.00    +0.008 C 
ATOM      8  C   LIG A   1      -6.142   1.704 132.691  0.00  0.00    +0.001 C 
ATOM      9  C   LIG A   1      -7.246   1.930 131.954  0.00  0.00    -0.053 C 
ATOM     10  C   LIG A   1      -7.847   3.367 131.747  0.00  0.00    -0.004 C 
ATOM     11  C   LIG A   1      -7.341   4.403 132.821  0.00  0.00    +0.012 C 
ATOM     12  C   LIG A   1      -6.038   5.164 132.562  0.00  0.00    +0.010 C 
ATOM     13  C   LIG A   1      -5.961   5.812 131.158  0.00  0.00    -0.000 C 
ATOM     14  C   LIG A   1      -7.095   6.865 131.042  0.00  0.00    +0.014 C 
ATOM     15  C   LIG A   1      -6.100   4.581 130.177  0.00  0.00    +0.006 C 
ATOM     16  C   LIG A   1      -5.558   4.932 128.769  0.00  0.00    +0.022 C 
ATOM     17  C   LIG A   1      -4.028   5.239 128.777  0.00  0.00    +0.068 C 
ATOM     18  C   LIG A   1      -3.705   6.281 127.680  0.00  0.00    +0.023 C 
ATOM     19  C   LIG A   1      -3.545   5.727 130.168  0.00  0.00    +0.052 C 
ATOM     20  C   LIG A   1      -4.575   6.581 130.923  0.00  0.00    +0.070 C 
ATOM     21  C   LIG A   1      -3.925   7.100 132.217  0.00  0.00    +0.042 C 
ATOM     22  C   LIG A   1      -9.381   3.337 132.029  0.00  0.00    +0.016 C 
ATOM     23  C   LIG A   1      -7.494   3.803 130.228  0.00  0.00    -0.019 C 
ATOM     24  C   LIG A   1      -8.632   4.617 129.558  0.00  0.00    +0.012 C 
ATOM     25  C   LIG A   1      -7.343   2.517 129.315  0.00  0.00    +0.009 C 
ATOM     26  C   LIG A   1      -8.249   1.351 129.724  0.00  0.00    +0.016 C 
ATOM     27  C   LIG A   1      -7.835   0.768 131.105  0.00  0.00    +0.015 C 
ATOM     28  C   LIG A   1      -9.056   0.142 131.834  0.00  0.00    +0.021 C 
ATOM     29  C   LIG A   1      -6.846  -0.422 130.915  0.00  0.00    -0.026 C 
ATOM     30  C   LIG A   1      -7.139  -1.453 130.094  0.00  0.00    +0.059 C 
ENDROOT
BRANCH   3  31
ATOM     31  O   LIG A   1      -4.187  -3.761 130.578  0.00  0.00    -0.503 OA
ATOM     32  H   LIG A   1      -3.589  -3.508 129.842  0.00  0.00    +0.292 HD
ENDBRANCH   3  31
BRANCH  17  33
ATOM     33  C   LIG A   1      -3.272   3.930 128.452  0.00  0.00    +0.313 C 
ATOM     34  O   LIG A   1      -3.625   2.818 128.803  0.00  0.00    -0.250 OA
BRANCH  33  35
ATOM     35  O   LIG A   1      -2.222   4.169 127.615  0.00  0.00    -0.468 OA
ATOM     36  C   LIG A   1      -1.845   3.058 126.804  0.00  0.00    +0.280 C 
ENDBRANCH  33  35
ENDBRANCH  17  33
BRANCH  20  37
ATOM     37  O   LIG A   1      -4.764   7.780 130.151  0.00  0.00    -0.388 OA
ATOM     38  H   LIG A   1      -5.692   8.056 130.207  0.00  0.00    +0.210 HD
ENDBRANCH  20  37
TORSDOF 4
ENDMDL
MODEL 4
REMARK VINA RESULT:      -8.4      2.755      4.872
REMARK  Name = NuBBE_379
REMARK  12 active torsions:
REMARK  status: ('A' for Active; 'I' for Inactive)
REMARK    1  A    between atoms: C_3  and  O_4
REMARK    2  A    between atoms: C_5  and  C_6
REMARK    3  A    between atoms: C_11  and  C_29
REMARK    4  A    between atoms: C_14  and  C_15
REMARK    5  A    between atoms: C_19  and  C_20
REMARK    6  A    between atoms: C_19  and  C_21
REMARK    7  A    between atoms: C_21  and  O_22
REMARK    8  A    between atoms: O_22  and  C_23
REMARK    9  A    between atoms: C_26  and  O_27
REMARK   10  A    between atoms: C_26  and  C_28
REMARK   11  A    between atoms: C_30  and  C_31
REMARK   12  A    between atoms: C_34  and  C_35
REMARK                            x       y       z     vdW  Elec       q    Type
REMARK                         _______ _______ _______ _____ _____    ______ ____
ROOT
ATOM      1  O   LIG A   1      -8.077   4.963 128.408  0.00  0.00    -0.284 OA
ATOM      2  C   LIG A   1      -7.212   4.141 128.702  0.00  0.00    +0.221 C 
ATOM      3  C   LIG A   1      -6.064   4.545 129.555  0.00  0.00    +0.167 C 
ATOM      4  C   LIG A   1      -5.089   3.667 129.857  0.00  0.00    +0.002 C 
ATOM      5  C   LIG A   1      -3.958   4.058 130.774  0.00  0.00    +0.048 C 
ATOM      6  C   LIG A   1      -5.155   2.289 129.317  0.00  0.00    -0.014 C 
ATOM      7  C   LIG A   1      -4.160   1.408 129.535  0.00  0.00    +0.008 C 
ATOM      8  C   LIG A   1      -4.231   0.010 129.199  0.00  0.00    +0.001 C 
ATOM      9  C   LIG A   1      -5.263  -0.535 128.528  0.00  0.00    -0.053 C 
ATOM     10  C   LIG A   1      -5.526  -2.083 128.491  0.00  0.00    -0.004 C 
ATOM     11  C   LIG A   1      -4.259  -2.930 128.892  0.00  0.00    +0.012 C 
ATOM     12  C   LIG A   1      -4.013  -3.243 130.371  0.00  0.00    +0.010 C 
ATOM     13  C   LIG A   1      -5.253  -3.808 131.105  0.00  0.00    -0.000 C 
ATOM     14  C   LIG A   1      -5.638  -5.160 130.446  0.00  0.00    +0.014 C 
ATOM     15  C   LIG A   1      -6.331  -2.664 130.942  0.00  0.00    +0.006 C 
ATOM     16  C   LIG A   1      -7.451  -2.803 132.003  0.00  0.00    +0.022 C 
ATOM     17  C   LIG A   1      -6.920  -2.618 133.459  0.00  0.00    +0.068 C 
ATOM     18  C   LIG A   1      -7.756  -3.488 134.428  0.00  0.00    +0.023 C 
ATOM     19  C   LIG A   1      -5.411  -2.957 133.570  0.00  0.00    +0.052 C 
ATOM     20  C   LIG A   1      -4.957  -4.103 132.652  0.00  0.00    +0.070 C 
ATOM     21  C   LIG A   1      -3.483  -4.417 132.954  0.00  0.00    +0.042 C 
ATOM     22  C   LIG A   1      -5.760  -2.538 127.018  0.00  0.00    +0.016 C 
ATOM     23  C   LIG A   1      -6.804  -2.361 129.447  0.00  0.00    -0.019 C 
ATOM     24  C   LIG A   1      -7.732  -3.476 128.898  0.00  0.00    +0.012 C 
ATOM     25  C   LIG A   1      -7.728  -1.075 129.503  0.00  0.00    +0.009 C 
ATOM     26  C   LIG A   1      -7.739  -0.257 128.208  0.00  0.00    +0.016 C 
ATOM     27  C   LIG A   1      -6.356   0.400 127.939  0.00  0.00    +0.015 C 
ATOM     28  C   LIG A   1      -6.121   0.603 126.417  0.00  0.00    +0.021 C 
ATOM     29  C   LIG A   1      -6.320   1.843 128.531  0.00  0.00    -0.026 C 
ATOM     30  C   LIG A   1      -7.278   2.746 128.236  0.00  0.00    +0.059 C 
ENDROOT
BRANCH   3  31
ATOM     31  O   LIG A   1      -6.069   5.850 130.019  0.00  0.00    -0.503 OA
ATOM     32  H   LIG A   1      -7.014   6.115 130.009  0.00  0.00    +0.292 HD
ENDBRANCH   3  31
BRANCH  17  33
ATOM     33  C   LIG A   1      -7.096  -1.133 133.852  0.00  0.00    +0.313 C 
ATOM     34  O   LIG A   1      -6.497  -0.577 134.755  0.00  0.00    -0.250 OA
BRANCH  33  35
ATOM     35  O   LIG A   1      -7.919  -0.492 132.972  0.00  0.00    -0.468 OA
ATOM     36  C   LIG A   1      -7.492   0.819 132.608  0.00  0.00    +0.280 C 
ENDBRANCH  33  35
ENDBRANCH  17  33
BRANCH  20  37
ATOM     37  O   LIG A   1      -5.640  -5.287 133.101  0.00  0.00    -0.388 OA
ATOM     38  H   LIG A   1      -6.416  -5.033 133.624  0.00  0.00    +0.210 HD
ENDBRANCH  20  37
TORSDOF 4
ENDMDL
MODEL 5
REMARK VINA RESULT:      -8.4      1.756      2.946
REMARK  Name = NuBBE_379
REMARK  12 active torsions:
REMARK  status: ('A' for Active; 'I' for Inactive)
REMARK    1  A    between atoms: C_3  and  O_4
REMARK    2  A    between atoms: C_5  and  C_6
REMARK    3  A    between atoms: C_11  and  C_29
REMARK    4  A    between atoms: C_14  and  C_15
REMARK    5  A    between atoms: C_19  and  C_20
REMARK    6  A    between atoms: C_19  and  C_21
REMARK    7  A    between atoms: C_21  and  O_22
REMARK    8  A    between atoms: O_22  and  C_23
REMARK    9  A    between atoms: C_26  and  O_27
REMARK   10  A    between atoms: C_26  and  C_28
REMARK   11  A    between atoms: C_30  and  C_31
REMARK   12  A    between atoms: C_34  and  C_35
REMARK                            x       y       z     vdW  Elec       q    Type
REMARK                         _______ _______ _______ _____ _____    ______ ____
ROOT
ATOM      1  O   LIG A   1      -9.884  -2.889 125.488  0.00  0.00    -0.284 OA
ATOM      2  C   LIG A   1      -9.034  -2.115 125.921  0.00  0.00    +0.221 C 
ATOM      3  C   LIG A   1      -8.700  -0.880 125.165  0.00  0.00    +0.167 C 
ATOM      4  C   LIG A   1      -7.746  -0.039 125.608  0.00  0.00    +0.002 C 
ATOM      5  C   LIG A   1      -7.452   1.245 124.874  0.00  0.00    +0.048 C 
ATOM      6  C   LIG A   1      -7.012  -0.360 126.854  0.00  0.00    -0.014 C 
ATOM      7  C   LIG A   1      -6.001   0.419 127.284  0.00  0.00    +0.008 C 
ATOM      8  C   LIG A   1      -5.362   0.276 128.567  0.00  0.00    +0.001 C 
ATOM      9  C   LIG A   1      -5.640  -0.726 129.420  0.00  0.00    -0.053 C 
ATOM     10  C   LIG A   1      -5.241  -0.681 130.940  0.00  0.00    -0.004 C 
ATOM     11  C   LIG A   1      -4.117   0.381 131.246  0.00  0.00    +0.012 C 
ATOM     12  C   LIG A   1      -4.525   1.826 131.550  0.00  0.00    +0.010 C 
ATOM     13  C   LIG A   1      -5.643   1.949 132.613  0.00  0.00    -0.000 C 
ATOM     14  C   LIG A   1      -5.111   1.371 133.952  0.00  0.00    +0.014 C 
ATOM     15  C   LIG A   1      -6.846   1.146 131.978  0.00  0.00    +0.006 C 
ATOM     16  C   LIG A   1      -8.190   1.555 132.629  0.00  0.00    +0.022 C 
ATOM     17  C   LIG A   1      -8.552   3.050 132.363  0.00  0.00    +0.068 C 
ATOM     18  C   LIG A   1      -9.351   3.610 133.564  0.00  0.00    +0.023 C 
ATOM     19  C   LIG A   1      -7.290   3.908 132.086  0.00  0.00    +0.052 C 
ATOM     20  C   LIG A   1      -6.051   3.475 132.886  0.00  0.00    +0.070 C 
ATOM     21  C   LIG A   1      -4.918   4.479 132.615  0.00  0.00    +0.042 C 
ATOM     22  C   LIG A   1      -4.534  -2.014 131.335  0.00  0.00    +0.016 C 
ATOM     23  C   LIG A   1      -6.605  -0.420 131.771  0.00  0.00    -0.019 C 
ATOM     24  C   LIG A   1      -6.645  -1.192 133.117  0.00  0.00    +0.012 C 
ATOM     25  C   LIG A   1      -7.848  -0.979 130.963  0.00  0.00    +0.009 C 
ATOM     26  C   LIG A   1      -7.537  -2.218 130.118  0.00  0.00    +0.016 C 
ATOM     27  C   LIG A   1      -6.568  -1.881 128.950  0.00  0.00    +0.015 C 
ATOM     28  C   LIG A   1      -5.719  -3.120 128.554  0.00  0.00    +0.021 C 
ATOM     29  C   LIG A   1      -7.376  -1.538 127.660  0.00  0.00    -0.026 C 
ATOM     30  C   LIG A   1      -8.329  -2.369 127.189  0.00  0.00    +0.059 C 
ENDROOT
BRANCH   3  31
ATOM     31  O   LIG A   1      -9.425  -0.650 124.008  0.00  0.00    -0.503 OA
ATOM     32  H   LIG A   1      -8.807  -0.868 123.278  0.00  0.00    +0.292 HD
ENDBRANCH   3  31
BRANCH  17  33
ATOM     33  C   LIG A   1      -9.445   3.113 131.103  0.00  0.00    +0.313 C 
ATOM     34  O   LIG A   1     -10.663   3.064 131.111  0.00  0.00    -0.250 OA
BRANCH  33  35
ATOM     35  O   LIG A   1      -8.698   3.357 129.988  0.00  0.00    -0.468 OA
ATOM     36  C   LIG A   1      -8.734   2.318 129.012  0.00  0.00    +0.280 C 
ENDBRANCH  33  35
ENDBRANCH  17  33
BRANCH  20  37
ATOM     37  O   LIG A   1      -6.356   3.696 134.274  0.00  0.00    -0.388 OA
ATOM     38  H   LIG A   1      -5.981   2.978 134.805  0.00  0.00    +0.210 HD
ENDBRANCH  20  37
TORSDOF 4
ENDMDL
MODEL 6
REMARK VINA RESULT:      -8.4      2.866      4.687
REMARK  Name = NuBBE_379
REMARK  12 active torsions:
REMARK  status: ('A' for Active; 'I' for Inactive)
REMARK    1  A    between atoms: C_3  and  O_4
REMARK    2  A    between atoms: C_5  and  C_6
REMARK    3  A    between atoms: C_11  and  C_29
REMARK    4  A    between atoms: C_14  and  C_15
REMARK    5  A    between atoms: C_19  and  C_20
REMARK    6  A    between atoms: C_19  and  C_21
REMARK    7  A    between atoms: C_21  and  O_22
REMARK    8  A    between atoms: O_22  and  C_23
REMARK    9  A    between atoms: C_26  and  O_27
REMARK   10  A    between atoms: C_26  and  C_28
REMARK   11  A    between atoms: C_30  and  C_31
REMARK   12  A    between atoms: C_34  and  C_35
REMARK                            x       y       z     vdW  Elec       q    Type
REMARK                         _______ _______ _______ _____ _____    ______ ____
ROOT
ATOM      1  O   LIG A   1      -9.516  -4.046 127.542  0.00  0.00    -0.284 OA
ATOM      2  C   LIG A   1      -8.498  -3.441 127.871  0.00  0.00    +0.221 C 
ATOM      3  C   LIG A   1      -7.838  -2.520 126.909  0.00  0.00    +0.167 C 
ATOM      4  C   LIG A   1      -6.703  -1.878 127.241  0.00  0.00    +0.002 C 
ATOM      5  C   LIG A   1      -6.068  -0.896 126.288  0.00  0.00    +0.048 C 
ATOM      6  C   LIG A   1      -6.099  -2.105 128.574  0.00  0.00    -0.014 C 
ATOM      7  C   LIG A   1      -4.925  -1.537 128.911  0.00  0.00    +0.008 C 
ATOM      8  C   LIG A   1      -4.366  -1.564 130.238  0.00  0.00    +0.001 C 
ATOM      9  C   LIG A   1      -4.912  -2.259 131.253  0.00  0.00    -0.053 C 
ATOM     10  C   LIG A   1      -4.539  -1.998 132.756  0.00  0.00    -0.004 C 
ATOM     11  C   LIG A   1      -3.180  -1.218 132.923  0.00  0.00    +0.012 C 
ATOM     12  C   LIG A   1      -3.196   0.313 132.903  0.00  0.00    +0.010 C 
ATOM     13  C   LIG A   1      -4.257   0.940 133.839  0.00  0.00    -0.000 C 
ATOM     14  C   LIG A   1      -3.918   0.540 135.300  0.00  0.00    +0.014 C 
ATOM     15  C   LIG A   1      -5.620   0.355 133.294  0.00  0.00    +0.006 C 
ATOM     16  C   LIG A   1      -6.819   1.222 133.754  0.00  0.00    +0.022 C 
ATOM     17  C   LIG A   1      -6.768   2.669 133.170  0.00  0.00    +0.068 C 
ATOM     18  C   LIG A   1      -7.409   3.654 134.176  0.00  0.00    +0.023 C 
ATOM     19  C   LIG A   1      -5.320   3.097 132.817  0.00  0.00    +0.052 C 
ATOM     20  C   LIG A   1      -4.252   2.541 133.772  0.00  0.00    +0.070 C 
ATOM     21  C   LIG A   1      -2.890   3.143 133.387  0.00  0.00    +0.042 C 
ATOM     22  C   LIG A   1      -4.217  -3.353 133.458  0.00  0.00    +0.016 C 
ATOM     23  C   LIG A   1      -5.799  -1.228 133.421  0.00  0.00    -0.019 C 
ATOM     24  C   LIG A   1      -6.062  -1.662 134.887  0.00  0.00    +0.012 C 
ATOM     25  C   LIG A   1      -7.133  -1.608 132.655  0.00  0.00    +0.009 C 
ATOM     26  C   LIG A   1      -7.148  -3.035 132.098  0.00  0.00    +0.016 C 
ATOM     27  C   LIG A   1      -6.106  -3.211 130.957  0.00  0.00    +0.015 C 
ATOM     28  C   LIG A   1      -5.609  -4.681 130.878  0.00  0.00    +0.021 C 
ATOM     29  C   LIG A   1      -6.774  -2.954 129.572  0.00  0.00    -0.026 C 
ATOM     30  C   LIG A   1      -7.906  -3.593 129.210  0.00  0.00    +0.059 C 
ENDROOT
BRANCH   3  31
ATOM     31  O   LIG A   1      -8.459  -2.363 125.681  0.00  0.00    -0.503 OA
ATOM     32  H   LIG A   1      -9.256  -2.933 125.728  0.00  0.00    +0.292 HD
ENDBRANCH   3  31
BRANCH  17  33
ATOM     33  C   LIG A   1      -7.593   2.690 131.863  0.00  0.00    +0.313 C 
ATOM     34  O   LIG A   1      -7.174   2.353 130.770  0.00  0.00    -0.250 OA
BRANCH  33  35
ATOM     35  O   LIG A   1      -8.894   3.017 132.114  0.00  0.00    -0.468 OA
ATOM     36  C   LIG A   1      -9.828   1.971 131.861  0.00  0.00    +0.280 C 
ENDBRANCH  33  35
ENDBRANCH  17  33
BRANCH  20  37
ATOM     37  O   LIG A   1      -4.510   3.121 135.063  0.00  0.00    -0.388 OA
ATOM     38  H   LIG A   1      -3.794   3.733 135.291  0.00  0.00    +0.210 HD
ENDBRANCH  20  37
TORSDOF 4
ENDMDL
MODEL 7
REMARK VINA RESULT:      -8.3      2.433      4.721
REMARK  Name = NuBBE_379
REMARK  12 active torsions:
REMARK  status: ('A' for Active; 'I' for Inactive)
REMARK    1  A    between atoms: C_3  and  O_4
REMARK    2  A    between atoms: C_5  and  C_6
REMARK    3  A    between atoms: C_11  and  C_29
REMARK    4  A    between atoms: C_14  and  C_15
REMARK    5  A    between atoms: C_19  and  C_20
REMARK    6  A    between atoms: C_19  and  C_21
REMARK    7  A    between atoms: C_21  and  O_22
REMARK    8  A    between atoms: O_22  and  C_23
REMARK    9  A    between atoms: C_26  and  O_27
REMARK   10  A    between atoms: C_26  and  C_28
REMARK   11  A    between atoms: C_30  and  C_31
REMARK   12  A    between atoms: C_34  and  C_35
REMARK                            x       y       z     vdW  Elec       q    Type
REMARK                         _______ _______ _______ _____ _____    ______ ____
ROOT
ATOM      1  O   LIG A   1      -5.062  -2.899 123.786  0.00  0.00    -0.284 OA
ATOM      2  C   LIG A   1      -5.894  -2.284 124.449  0.00  0.00    +0.221 C 
ATOM      3  C   LIG A   1      -7.196  -2.919 124.781  0.00  0.00    +0.167 C 
ATOM      4  C   LIG A   1      -8.132  -2.246 125.476  0.00  0.00    +0.002 C 
ATOM      5  C   LIG A   1      -9.428  -2.912 125.866  0.00  0.00    +0.048 C 
ATOM      6  C   LIG A   1      -7.865  -0.852 125.899  0.00  0.00    -0.014 C 
ATOM      7  C   LIG A   1      -8.807  -0.124 126.529  0.00  0.00    +0.008 C 
ATOM      8  C   LIG A   1      -8.567   1.164 127.126  0.00  0.00    +0.001 C 
ATOM      9  C   LIG A   1      -7.398   1.820 127.015  0.00  0.00    -0.053 C 
ATOM     10  C   LIG A   1      -7.005   3.017 127.955  0.00  0.00    -0.004 C 
ATOM     11  C   LIG A   1      -8.248   3.655 128.686  0.00  0.00    +0.012 C 
ATOM     12  C   LIG A   1      -8.708   3.062 130.021  0.00  0.00    +0.010 C 
ATOM     13  C   LIG A   1      -7.565   2.865 131.044  0.00  0.00    -0.000 C 
ATOM     14  C   LIG A   1      -6.967   4.257 131.385  0.00  0.00    +0.014 C 
ATOM     15  C   LIG A   1      -6.572   1.883 130.304  0.00  0.00    +0.006 C 
ATOM     16  C   LIG A   1      -5.636   1.176 131.315  0.00  0.00    +0.022 C 
ATOM     17  C   LIG A   1      -6.413   0.252 132.305  0.00  0.00    +0.068 C 
ATOM     18  C   LIG A   1      -5.680   0.222 133.667  0.00  0.00    +0.023 C 
ATOM     19  C   LIG A   1      -7.888   0.703 132.476  0.00  0.00    +0.052 C 
ATOM     20  C   LIG A   1      -8.087   2.225 132.418  0.00  0.00    +0.070 C 
ATOM     21  C   LIG A   1      -9.561   2.538 132.728  0.00  0.00    +0.042 C 
ATOM     22  C   LIG A   1      -6.495   4.213 127.093  0.00  0.00    +0.016 C 
ATOM     23  C   LIG A   1      -5.885   2.455 128.981  0.00  0.00    -0.019 C 
ATOM     24  C   LIG A   1      -4.791   3.505 129.307  0.00  0.00    +0.012 C 
ATOM     25  C   LIG A   1      -5.091   1.257 128.313  0.00  0.00    +0.009 C 
ATOM     26  C   LIG A   1      -4.934   1.382 126.795  0.00  0.00    +0.016 C 
ATOM     27  C   LIG A   1      -6.303   1.254 126.069  0.00  0.00    +0.015 C 
ATOM     28  C   LIG A   1      -6.298   2.039 124.728  0.00  0.00    +0.021 C 
ATOM     29  C   LIG A   1      -6.554  -0.227 125.648  0.00  0.00    -0.026 C 
ATOM     30  C   LIG A   1      -5.638  -0.921 124.942  0.00  0.00    +0.059 C 
ENDROOT
BRANCH   3  31
ATOM     31  O   LIG A   1      -7.375  -4.223 124.348  0.00  0.00    -0.503 OA
ATOM     32  H   LIG A   1      -8.184  -4.531 124.810  0.00  0.00    +0.292 HD
ENDBRANCH   3  31
BRANCH  17  33
ATOM     33  C   LIG A   1      -6.427  -1.179 131.719  0.00  0.00    +0.313 C 
ATOM     34  O   LIG A   1      -5.558  -2.013 131.901  0.00  0.00    -0.250 OA
BRANCH  33  35
ATOM     35  O   LIG A   1      -7.602  -1.428 131.072  0.00  0.00    -0.468 OA
ATOM     36  C   LIG A   1      -7.463  -1.726 129.685  0.00  0.00    +0.280 C 
ENDBRANCH  33  35
ENDBRANCH  17  33
BRANCH  20  37
ATOM     37  O   LIG A   1      -7.393   2.777 133.551  0.00  0.00    -0.388 OA
ATOM     38  H   LIG A   1      -6.588   2.264 133.717  0.00  0.00    +0.210 HD
ENDBRANCH  20  37
TORSDOF 4
ENDMDL
MODEL 8
REMARK VINA RESULT:      -8.3      2.455      7.157
REMARK  Name = NuBBE_379
REMARK  12 active torsions:
REMARK  status: ('A' for Active; 'I' for Inactive)
REMARK    1  A    between atoms: C_3  and  O_4
REMARK    2  A    between atoms: C_5  and  C_6
REMARK    3  A    between atoms: C_11  and  C_29
REMARK    4  A    between atoms: C_14  and  C_15
REMARK    5  A    between atoms: C_19  and  C_20
REMARK    6  A    between atoms: C_19  and  C_21
REMARK    7  A    between atoms: C_21  and  O_22
REMARK    8  A    between atoms: O_22  and  C_23
REMARK    9  A    between atoms: C_26  and  O_27
REMARK   10  A    between atoms: C_26  and  C_28
REMARK   11  A    between atoms: C_30  and  C_31
REMARK   12  A    between atoms: C_34  and  C_35
REMARK                            x       y       z     vdW  Elec       q    Type
REMARK                         _______ _______ _______ _____ _____    ______ ____
ROOT
ATOM      1  O   LIG A   1      -5.381  -2.867 133.516  0.00  0.00    -0.284 OA
ATOM      2  C   LIG A   1      -5.973  -2.024 132.846  0.00  0.00    +0.221 C 
ATOM      3  C   LIG A   1      -6.445  -0.767 133.483  0.00  0.00    +0.167 C 
ATOM      4  C   LIG A   1      -7.127   0.150 132.771  0.00  0.00    +0.002 C 
ATOM      5  C   LIG A   1      -7.551   1.453 133.402  0.00  0.00    +0.048 C 
ATOM      6  C   LIG A   1      -7.422  -0.106 131.342  0.00  0.00    -0.014 C 
ATOM      7  C   LIG A   1      -8.166   0.755 130.621  0.00  0.00    +0.008 C 
ATOM      8  C   LIG A   1      -8.345   0.668 129.195  0.00  0.00    +0.001 C 
ATOM      9  C   LIG A   1      -7.875  -0.353 128.455  0.00  0.00    -0.053 C 
ATOM     10  C   LIG A   1      -7.735  -0.272 126.892  0.00  0.00    -0.004 C 
ATOM     11  C   LIG A   1      -8.604   0.881 126.258  0.00  0.00    +0.012 C 
ATOM     12  C   LIG A   1      -8.008   2.287 126.151  0.00  0.00    +0.010 C 
ATOM     13  C   LIG A   1      -6.592   2.320 125.528  0.00  0.00    -0.000 C 
ATOM     14  C   LIG A   1      -6.686   1.790 124.072  0.00  0.00    +0.014 C 
ATOM     15  C   LIG A   1      -5.738   1.418 126.505  0.00  0.00    +0.006 C 
ATOM     16  C   LIG A   1      -4.225   1.717 126.354  0.00  0.00    +0.022 C 
ATOM     17  C   LIG A   1      -3.860   3.176 126.771  0.00  0.00    +0.068 C 
ATOM     18  C   LIG A   1      -2.664   3.670 125.923  0.00  0.00    +0.023 C 
ATOM     19  C   LIG A   1      -5.072   4.135 126.634  0.00  0.00    +0.052 C 
ATOM     20  C   LIG A   1      -5.999   3.807 125.453  0.00  0.00    +0.070 C 
ATOM     21  C   LIG A   1      -7.076   4.901 125.358  0.00  0.00    +0.042 C 
ATOM     22  C   LIG A   1      -8.368  -1.541 126.244  0.00  0.00    +0.016 C 
ATOM     23  C   LIG A   1      -6.154  -0.123 126.573  0.00  0.00    -0.019 C 
ATOM     24  C   LIG A   1      -5.725  -0.892 125.296  0.00  0.00    +0.012 C 
ATOM     25  C   LIG A   1      -5.302  -0.784 127.734  0.00  0.00    +0.009 C 
ATOM     26  C   LIG A   1      -5.974  -1.995 128.389  0.00  0.00    +0.016 C 
ATOM     27  C   LIG A   1      -7.251  -1.581 129.175  0.00  0.00    +0.015 C 
ATOM     28  C   LIG A   1      -8.276  -2.747 129.226  0.00  0.00    +0.021 C 
ATOM     29  C   LIG A   1      -6.900  -1.309 130.670  0.00  0.00    -0.026 C 
ATOM     30  C   LIG A   1      -6.228  -2.216 131.409  0.00  0.00    +0.059 C 
ENDROOT
BRANCH   3  31
ATOM     31  O   LIG A   1      -6.136  -0.600 134.822  0.00  0.00    -0.503 OA
ATOM     32  H   LIG A   1      -5.263  -1.035 134.934  0.00  0.00    +0.292 HD
ENDBRANCH   3  31
BRANCH  17  33
ATOM     33  C   LIG A   1      -3.440   3.162 128.259  0.00  0.00    +0.313 C 
ATOM     34  O   LIG A   1      -3.696   2.267 129.045  0.00  0.00    -0.250 OA
BRANCH  33  35
ATOM     35  O   LIG A   1      -2.638   4.227 128.548  0.00  0.00    -0.468 OA
ATOM     36  C   LIG A   1      -3.018   4.958 129.710  0.00  0.00    +0.280 C 
ENDBRANCH  33  35
ENDBRANCH  17  33
BRANCH  20  37
ATOM     37  O   LIG A   1      -5.229   4.005 124.255  0.00  0.00    -0.388 OA
ATOM     38  H   LIG A   1      -4.500   4.618 124.437  0.00  0.00    +0.210 HD
ENDBRANCH  20  37
TORSDOF 4
ENDMDL
MODEL 9
REMARK VINA RESULT:      -8.2      2.005      6.467
REMARK  Name = NuBBE_379
REMARK  12 active torsions:
REMARK  status: ('A' for Active; 'I' for Inactive)
REMARK    1  A    between atoms: C_3  and  O_4
REMARK    2  A    between atoms: C_5  and  C_6
REMARK    3  A    between atoms: C_11  and  C_29
REMARK    4  A    between atoms: C_14  and  C_15
REMARK    5  A    between atoms: C_19  and  C_20
REMARK    6  A    between atoms: C_19  and  C_21
REMARK    7  A    between atoms: C_21  and  O_22
REMARK    8  A    between atoms: O_22  and  C_23
REMARK    9  A    between atoms: C_26  and  O_27
REMARK   10  A    between atoms: C_26  and  C_28
REMARK   11  A    between atoms: C_30  and  C_31
REMARK   12  A    between atoms: C_34  and  C_35
REMARK                            x       y       z     vdW  Elec       q    Type
REMARK                         _______ _______ _______ _____ _____    ______ ____
ROOT
ATOM      1  O   LIG A   1      -7.840   7.584 130.703  0.00  0.00    -0.284 OA
ATOM      2  C   LIG A   1      -8.243   6.423 130.715  0.00  0.00    +0.221 C 
ATOM      3  C   LIG A   1      -9.685   6.136 130.500  0.00  0.00    +0.167 C 
ATOM      4  C   LIG A   1     -10.149   4.873 130.547  0.00  0.00    +0.002 C 
ATOM      5  C   LIG A   1     -11.602   4.577 130.266  0.00  0.00    +0.048 C 
ATOM      6  C   LIG A   1      -9.213   3.761 130.831  0.00  0.00    -0.014 C 
ATOM      7  C   LIG A   1      -9.655   2.496 130.960  0.00  0.00    +0.008 C 
ATOM      8  C   LIG A   1      -8.795   1.345 131.057  0.00  0.00    +0.001 C 
ATOM      9  C   LIG A   1      -7.454   1.434 131.142  0.00  0.00    -0.053 C 
ATOM     10  C   LIG A   1      -6.505   0.211 130.871  0.00  0.00    -0.004 C 
ATOM     11  C   LIG A   1      -7.252  -1.174 130.959  0.00  0.00    +0.012 C 
ATOM     12  C   LIG A   1      -7.938  -1.727 129.707  0.00  0.00    +0.010 C 
ATOM     13  C   LIG A   1      -7.043  -1.714 128.445  0.00  0.00    -0.000 C 
ATOM     14  C   LIG A   1      -5.823  -2.639 128.701  0.00  0.00    +0.014 C 
ATOM     15  C   LIG A   1      -6.686  -0.185 128.263  0.00  0.00    +0.006 C 
ATOM     16  C   LIG A   1      -6.226   0.108 126.813  0.00  0.00    +0.022 C 
ATOM     17  C   LIG A   1      -7.356  -0.144 125.766  0.00  0.00    +0.068 C 
ATOM     18  C   LIG A   1      -6.729  -0.614 124.432  0.00  0.00    +0.023 C 
ATOM     19  C   LIG A   1      -8.401  -1.169 126.280  0.00  0.00    +0.052 C 
ATOM     20  C   LIG A   1      -7.807  -2.283 127.156  0.00  0.00    +0.070 C 
ATOM     21  C   LIG A   1      -8.920  -3.291 127.487  0.00  0.00    +0.042 C 
ATOM     22  C   LIG A   1      -5.468   0.088 132.029  0.00  0.00    +0.016 C 
ATOM     23  C   LIG A   1      -5.814   0.470 129.430  0.00  0.00    -0.019 C 
ATOM     24  C   LIG A   1      -4.337  -0.003 129.380  0.00  0.00    +0.012 C 
ATOM     25  C   LIG A   1      -5.737   2.025 129.136  0.00  0.00    +0.009 C 
ATOM     26  C   LIG A   1      -5.549   2.888 130.388  0.00  0.00    +0.016 C 
ATOM     27  C   LIG A   1      -6.801   2.835 131.309  0.00  0.00    +0.015 C 
ATOM     28  C   LIG A   1      -6.411   3.068 132.794  0.00  0.00    +0.021 C 
ATOM     29  C   LIG A   1      -7.768   4.012 130.973  0.00  0.00    -0.026 C 
ATOM     30  C   LIG A   1      -7.331   5.288 130.931  0.00  0.00    +0.059 C 
ENDROOT
BRANCH   3  31
ATOM     31  O   LIG A   1     -10.500   7.227 130.244  0.00  0.00    -0.503 OA
ATOM     32  H   LIG A   1     -10.007   7.757 129.582  0.00  0.00    +0.292 HD
ENDBRANCH   3  31
BRANCH  17  33
ATOM     33  C   LIG A   1      -8.094   1.193 125.522  0.00  0.00    +0.313 C 
ATOM     34  O   LIG A   1      -8.944   1.663 126.257  0.00  0.00    -0.250 OA
BRANCH  33  35
ATOM     35  O   LIG A   1      -7.578   1.842 124.438  0.00  0.00    -0.468 OA
ATOM     36  C   LIG A   1      -8.505   2.682 123.754  0.00  0.00    +0.280 C 
ENDBRANCH  33  35
ENDBRANCH  17  33
BRANCH  20  37
ATOM     37  O   LIG A   1      -6.921  -3.042 126.314  0.00  0.00    -0.388 OA
ATOM     38  H   LIG A   1      -7.296  -3.102 125.422  0.00  0.00    +0.210 HD
ENDBRANCH  20  37
TORSDOF 4
ENDMDL
