MODEL 1
REMARK VINA RESULT:      -5.6      0.000      0.000
REMARK  Name = NuBBE_1756
REMARK  4 active torsions:
REMARK  status: ('A' for Active; 'I' for Inactive)
REMARK    1  A    between atoms: C_1  and  O_2
REMARK    2  A    between atoms: O_2  and  C_3
REMARK    3  A    between atoms: C_6  and  C_7
REMARK    4  A    between atoms: C_7  and  C_8
REMARK                            x       y       z     vdW  Elec       q    Type
REMARK                         _______ _______ _______ _____ _____    ______ ____
ROOT
ATOM      1  C   LIG A   1      -9.011  -1.226 123.121  0.00  0.00    +0.120 A 
ATOM      2  C   LIG A   1      -8.999  -2.605 123.335  0.00  0.00    +0.046 A 
ATOM      3  C   LIG A   1      -7.857  -3.238 123.836  0.00  0.00    +0.007 A 
ATOM      4  C   LIG A   1      -6.705  -2.496 124.124  0.00  0.00    -0.043 A 
ATOM      5  C   LIG A   1      -6.726  -1.111 123.916  0.00  0.00    +0.007 A 
ATOM      6  C   LIG A   1      -7.869  -0.481 123.413  0.00  0.00    +0.046 A 
ENDROOT
BRANCH   1   8
ATOM      7  C   LIG A   1     -10.282   0.688 122.524  0.00  0.00    +0.277 C 
ATOM      8  O   LIG A   1     -10.188  -0.727 122.628  0.00  0.00    -0.495 OA
ENDBRANCH   1   8
BRANCH   4   9
ATOM      9  C   LIG A   1      -5.464  -3.170 124.658  0.00  0.00    +0.061 C 
BRANCH   9  10
ATOM     10  C   LIG A   1      -4.555  -3.672 123.571  0.00  0.00    -0.030 C 
ATOM     11  C   LIG A   1      -4.223  -4.956 123.395  0.00  0.00    +0.004 C 
ENDBRANCH   9  10
ENDBRANCH   4   9
TORSDOF 3
ENDMDL
MODEL 2
REMARK VINA RESULT:      -5.5     10.812     13.736
REMARK  Name = NuBBE_1756
REMARK  4 active torsions:
REMARK  status: ('A' for Active; 'I' for Inactive)
REMARK    1  A    between atoms: C_1  and  O_2
REMARK    2  A    between atoms: O_2  and  C_3
REMARK    3  A    between atoms: C_6  and  C_7
REMARK    4  A    between atoms: C_7  and  C_8
REMARK                            x       y       z     vdW  Elec       q    Type
REMARK                         _______ _______ _______ _____ _____    ______ ____
ROOT
ATOM      1  C   LIG A   1     -11.139   6.514 129.423  0.00  0.00    +0.120 A 
ATOM      2  C   LIG A   1     -10.971   7.309 128.287  0.00  0.00    +0.046 A 
ATOM      3  C   LIG A   1     -11.699   8.492 128.131  0.00  0.00    +0.007 A 
ATOM      4  C   LIG A   1     -12.614   8.895 129.111  0.00  0.00    -0.043 A 
ATOM      5  C   LIG A   1     -12.773   8.099 130.253  0.00  0.00    +0.007 A 
ATOM      6  C   LIG A   1     -12.045   6.915 130.406  0.00  0.00    +0.046 A 
ENDROOT
BRANCH   1   8
ATOM      7  C   LIG A   1     -10.204   4.767 130.728  0.00  0.00    +0.277 C 
ATOM      8  O   LIG A   1     -10.370   5.383 129.457  0.00  0.00    -0.495 OA
ENDBRANCH   1   8
BRANCH   4   9
ATOM      9  C   LIG A   1     -13.411  10.167 128.950  0.00  0.00    +0.061 C 
BRANCH   9  10
ATOM     10  C   LIG A   1     -13.456  10.994 130.206  0.00  0.00    -0.030 C 
ATOM     11  C   LIG A   1     -13.795  12.287 130.248  0.00  0.00    +0.004 C 
ENDBRANCH   9  10
ENDBRANCH   4   9
TORSDOF 3
ENDMDL
MODEL 3
REMARK VINA RESULT:      -5.1     11.357     12.522
REMARK  Name = NuBBE_1756
REMARK  4 active torsions:
REMARK  status: ('A' for Active; 'I' for Inactive)
REMARK    1  A    between atoms: C_1  and  O_2
REMARK    2  A    between atoms: O_2  and  C_3
REMARK    3  A    between atoms: C_6  and  C_7
REMARK    4  A    between atoms: C_7  and  C_8
REMARK                            x       y       z     vdW  Elec       q    Type
REMARK                         _______ _______ _______ _____ _____    ______ ____
ROOT
ATOM      1  C   LIG A   1     -12.459   8.893 129.140  0.00  0.00    +0.120 A 
ATOM      2  C   LIG A   1     -12.698   8.119 130.276  0.00  0.00    +0.046 A 
ATOM      3  C   LIG A   1     -11.762   7.170 130.702  0.00  0.00    +0.007 A 
ATOM      4  C   LIG A   1     -10.573   6.980 129.989  0.00  0.00    -0.043 A 
ATOM      5  C   LIG A   1     -10.334   7.766 128.854  0.00  0.00    +0.007 A 
ATOM      6  C   LIG A   1     -11.272   8.712 128.430  0.00  0.00    +0.046 A 
ENDROOT
BRANCH   1   8
ATOM      7  C   LIG A   1     -13.582  10.911 129.686  0.00  0.00    +0.277 C 
ATOM      8  O   LIG A   1     -13.450   9.784 128.828  0.00  0.00    -0.495 OA
ENDBRANCH   1   8
BRANCH   4   9
ATOM      9  C   LIG A   1      -9.559   5.954 130.435  0.00  0.00    +0.061 C 
BRANCH   9  10
ATOM     10  C   LIG A   1      -8.566   6.503 131.422  0.00  0.00    -0.030 C 
ATOM     11  C   LIG A   1      -7.320   6.877 131.113  0.00  0.00    +0.004 C 
ENDBRANCH   9  10
ENDBRANCH   4   9
TORSDOF 3
ENDMDL
MODEL 4
REMARK VINA RESULT:      -5.1     11.052     12.789
REMARK  Name = NuBBE_1756
REMARK  4 active torsions:
REMARK  status: ('A' for Active; 'I' for Inactive)
REMARK    1  A    between atoms: C_1  and  O_2
REMARK    2  A    between atoms: O_2  and  C_3
REMARK    3  A    between atoms: C_6  and  C_7
REMARK    4  A    between atoms: C_7  and  C_8
REMARK                            x       y       z     vdW  Elec       q    Type
REMARK                         _______ _______ _______ _____ _____    ______ ____
ROOT
ATOM      1  C   LIG A   1     -10.356   6.343 131.598  0.00  0.00    +0.120 A 
ATOM      2  C   LIG A   1     -11.722   6.565 131.783  0.00  0.00    +0.046 A 
ATOM      3  C   LIG A   1     -12.446   7.349 130.879  0.00  0.00    +0.007 A 
ATOM      4  C   LIG A   1     -11.808   7.930 129.777  0.00  0.00    -0.043 A 
ATOM      5  C   LIG A   1     -10.439   7.697 129.591  0.00  0.00    +0.007 A 
ATOM      6  C   LIG A   1      -9.717   6.914 130.498  0.00  0.00    +0.046 A 
ENDROOT
BRANCH   1   8
ATOM      7  C   LIG A   1      -9.173   4.348 132.097  0.00  0.00    +0.277 C 
ATOM      8  O   LIG A   1      -9.763   5.560 132.551  0.00  0.00    -0.495 OA
ENDBRANCH   1   8
BRANCH   4   9
ATOM      9  C   LIG A   1     -12.578   8.783 128.798  0.00  0.00    +0.061 C 
BRANCH   9  10
ATOM     10  C   LIG A   1     -13.472   7.979 127.895  0.00  0.00    -0.030 C 
ATOM     11  C   LIG A   1     -13.042   7.040 127.046  0.00  0.00    +0.004 C 
ENDBRANCH   9  10
ENDBRANCH   4   9
TORSDOF 3
ENDMDL
MODEL 5
REMARK VINA RESULT:      -4.9      3.261      4.384
REMARK  Name = NuBBE_1756
REMARK  4 active torsions:
REMARK  status: ('A' for Active; 'I' for Inactive)
REMARK    1  A    between atoms: C_1  and  O_2
REMARK    2  A    between atoms: O_2  and  C_3
REMARK    3  A    between atoms: C_6  and  C_7
REMARK    4  A    between atoms: C_7  and  C_8
REMARK                            x       y       z     vdW  Elec       q    Type
REMARK                         _______ _______ _______ _____ _____    ______ ____
ROOT
ATOM      1  C   LIG A   1      -7.850  -2.785 127.623  0.00  0.00    +0.120 A 
ATOM      2  C   LIG A   1      -6.577  -2.261 127.398  0.00  0.00    +0.046 A 
ATOM      3  C   LIG A   1      -6.017  -2.274 126.116  0.00  0.00    +0.007 A 
ATOM      4  C   LIG A   1      -6.726  -2.822 125.040  0.00  0.00    -0.043 A 
ATOM      5  C   LIG A   1      -8.007  -3.339 125.270  0.00  0.00    +0.007 A 
ATOM      6  C   LIG A   1      -8.563  -3.326 126.553  0.00  0.00    +0.046 A 
ENDROOT
BRANCH   1   8
ATOM      7  C   LIG A   1      -7.474  -3.353 129.897  0.00  0.00    +0.277 C 
ATOM      8  O   LIG A   1      -8.285  -2.712 128.920  0.00  0.00    -0.495 OA
ENDBRANCH   1   8
BRANCH   4   9
ATOM      9  C   LIG A   1      -6.128  -2.848 123.654  0.00  0.00    +0.061 C 
BRANCH   9  10
ATOM     10  C   LIG A   1      -4.713  -3.355 123.635  0.00  0.00    -0.030 C 
ATOM     11  C   LIG A   1      -4.373  -4.648 123.580  0.00  0.00    +0.004 C 
ENDBRANCH   9  10
ENDBRANCH   4   9
TORSDOF 3
ENDMDL
MODEL 6
REMARK VINA RESULT:      -4.9      5.279      6.876
REMARK  Name = NuBBE_1756
REMARK  4 active torsions:
REMARK  status: ('A' for Active; 'I' for Inactive)
REMARK    1  A    between atoms: C_1  and  O_2
REMARK    2  A    between atoms: O_2  and  C_3
REMARK    3  A    between atoms: C_6  and  C_7
REMARK    4  A    between atoms: C_7  and  C_8
REMARK                            x       y       z     vdW  Elec       q    Type
REMARK                         _______ _______ _______ _____ _____    ______ ____
ROOT
ATOM      1  C   LIG A   1      -7.279   4.180 119.896  0.00  0.00    +0.120 A 
ATOM      2  C   LIG A   1      -6.148   3.891 120.662  0.00  0.00    +0.046 A 
ATOM      3  C   LIG A   1      -6.272   3.295 121.920  0.00  0.00    +0.007 A 
ATOM      4  C   LIG A   1      -7.537   2.985 122.435  0.00  0.00    -0.043 A 
ATOM      5  C   LIG A   1      -8.668   3.269 121.660  0.00  0.00    +0.007 A 
ATOM      6  C   LIG A   1      -8.541   3.867 120.402  0.00  0.00    +0.046 A 
ENDROOT
BRANCH   1   8
ATOM      7  C   LIG A   1      -5.910   5.643 118.626  0.00  0.00    +0.277 C 
ATOM      8  O   LIG A   1      -7.025   4.762 118.684  0.00  0.00    -0.495 OA
ENDBRANCH   1   8
BRANCH   4   9
ATOM      9  C   LIG A   1      -7.683   2.348 123.796  0.00  0.00    +0.061 C 
BRANCH   9  10
ATOM     10  C   LIG A   1      -9.092   2.402 124.321  0.00  0.00    -0.030 C 
ATOM     11  C   LIG A   1      -9.831   1.327 124.616  0.00  0.00    +0.004 C 
ENDBRANCH   9  10
ENDBRANCH   4   9
TORSDOF 3
ENDMDL
MODEL 7
REMARK VINA RESULT:      -4.9      4.280      4.859
REMARK  Name = NuBBE_1756
REMARK  4 active torsions:
REMARK  status: ('A' for Active; 'I' for Inactive)
REMARK    1  A    between atoms: C_1  and  O_2
REMARK    2  A    between atoms: O_2  and  C_3
REMARK    3  A    between atoms: C_6  and  C_7
REMARK    4  A    between atoms: C_7  and  C_8
REMARK                            x       y       z     vdW  Elec       q    Type
REMARK                         _______ _______ _______ _____ _____    ______ ____
ROOT
ATOM      1  C   LIG A   1      -8.917  -2.311 126.092  0.00  0.00    +0.120 A 
ATOM      2  C   LIG A   1      -9.278  -3.514 126.699  0.00  0.00    +0.046 A 
ATOM      3  C   LIG A   1      -8.824  -3.829 127.984  0.00  0.00    +0.007 A 
ATOM      4  C   LIG A   1      -7.993  -2.942 128.677  0.00  0.00    -0.043 A 
ATOM      5  C   LIG A   1      -7.640  -1.732 128.067  0.00  0.00    +0.007 A 
ATOM      6  C   LIG A   1      -8.094  -1.420 126.781  0.00  0.00    +0.046 A 
ENDROOT
BRANCH   1   8
ATOM      7  C   LIG A   1      -9.218  -3.174 123.902  0.00  0.00    +0.277 C 
ATOM      8  O   LIG A   1      -9.425  -2.121 124.835  0.00  0.00    -0.495 OA
ENDBRANCH   1   8
BRANCH   4   9
ATOM      9  C   LIG A   1      -7.491  -3.275 130.062  0.00  0.00    +0.061 C 
BRANCH   9  10
ATOM     10  C   LIG A   1      -6.226  -4.088 130.047  0.00  0.00    -0.030 C 
ATOM     11  C   LIG A   1      -5.629  -4.578 131.140  0.00  0.00    +0.004 C 
ENDBRANCH   9  10
ENDBRANCH   4   9
TORSDOF 3
ENDMDL
MODEL 8
REMARK VINA RESULT:      -4.8     11.568     12.236
REMARK  Name = NuBBE_1756
REMARK  4 active torsions:
REMARK  status: ('A' for Active; 'I' for Inactive)
REMARK    1  A    between atoms: C_1  and  O_2
REMARK    2  A    between atoms: O_2  and  C_3
REMARK    3  A    between atoms: C_6  and  C_7
REMARK    4  A    between atoms: C_7  and  C_8
REMARK                            x       y       z     vdW  Elec       q    Type
REMARK                         _______ _______ _______ _____ _____    ______ ____
ROOT
ATOM      1  C   LIG A   1     -12.076   7.549 129.964  0.00  0.00    +0.120 A 
ATOM      2  C   LIG A   1     -10.744   7.637 129.556  0.00  0.00    +0.046 A 
ATOM      3  C   LIG A   1      -9.720   7.098 130.342  0.00  0.00    +0.007 A 
ATOM      4  C   LIG A   1     -10.018   6.468 131.556  0.00  0.00    -0.043 A 
ATOM      5  C   LIG A   1     -11.357   6.375 131.957  0.00  0.00    +0.007 A 
ATOM      6  C   LIG A   1     -12.378   6.916 131.170  0.00  0.00    +0.046 A 
ENDROOT
BRANCH   1   8
ATOM      7  C   LIG A   1     -12.990   9.535 129.041  0.00  0.00    +0.277 C 
ATOM      8  O   LIG A   1     -12.982   8.114 129.107  0.00  0.00    -0.495 OA
ENDBRANCH   1   8
BRANCH   4   9
ATOM      9  C   LIG A   1      -8.921   5.889 132.417  0.00  0.00    +0.061 C 
BRANCH   9  10
ATOM     10  C   LIG A   1      -9.090   4.417 132.671  0.00  0.00    -0.030 C 
ATOM     11  C   LIG A   1      -9.101   3.855 133.885  0.00  0.00    +0.004 C 
ENDBRANCH   9  10
ENDBRANCH   4   9
TORSDOF 3
ENDMDL
MODEL 9
REMARK VINA RESULT:      -4.5      4.734      6.094
REMARK  Name = NuBBE_1756
REMARK  4 active torsions:
REMARK  status: ('A' for Active; 'I' for Inactive)
REMARK    1  A    between atoms: C_1  and  O_2
REMARK    2  A    between atoms: O_2  and  C_3
REMARK    3  A    between atoms: C_6  and  C_7
REMARK    4  A    between atoms: C_7  and  C_8
REMARK                            x       y       z     vdW  Elec       q    Type
REMARK                         _______ _______ _______ _____ _____    ______ ____
ROOT
ATOM      1  C   LIG A   1      -6.862  -2.860 129.243  0.00  0.00    +0.120 A 
ATOM      2  C   LIG A   1      -8.069  -3.541 129.405  0.00  0.00    +0.046 A 
ATOM      3  C   LIG A   1      -8.940  -3.716 128.325  0.00  0.00    +0.007 A 
ATOM      4  C   LIG A   1      -8.616  -3.201 127.064  0.00  0.00    -0.043 A 
ATOM      5  C   LIG A   1      -7.399  -2.526 126.905  0.00  0.00    +0.007 A 
ATOM      6  C   LIG A   1      -6.531  -2.351 127.987  0.00  0.00    +0.046 A 
ENDROOT
BRANCH   1   8
ATOM      7  C   LIG A   1      -6.787  -2.425 131.575  0.00  0.00    +0.277 C 
ATOM      8  O   LIG A   1      -6.099  -2.757 130.375  0.00  0.00    -0.495 OA
ENDBRANCH   1   8
BRANCH   4   9
ATOM      9  C   LIG A   1      -9.552  -3.377 125.892  0.00  0.00    +0.061 C 
BRANCH   9  10
ATOM     10  C   LIG A   1      -8.858  -3.249 124.564  0.00  0.00    -0.030 C 
ATOM     11  C   LIG A   1      -9.484  -3.241 123.382  0.00  0.00    +0.004 C 
ENDBRANCH   9  10
ENDBRANCH   4   9
TORSDOF 3
ENDMDL
