MODEL 1
REMARK VINA RESULT:      -9.0      0.000      0.000
REMARK  Name = NuBBE_1554
REMARK  13 active torsions:
REMARK  status: ('A' for Active; 'I' for Inactive)
REMARK    1  A    between atoms: C_1  and  C_2
REMARK    2  A    between atoms: C_7  and  C_23
REMARK    3  A    between atoms: C_8  and  C_9
REMARK    4  A    between atoms: C_9  and  C_11
REMARK    5  A    between atoms: C_9  and  C_14
REMARK    6  A    between atoms: C_11  and  O_12
REMARK    7  A    between atoms: C_14  and  C_15
REMARK    8  A    between atoms: C_15  and  C_16
REMARK    9  A    between atoms: C_17  and  C_18
REMARK   10  A    between atoms: C_17  and  C_19
REMARK   11  A    between atoms: C_24  and  C_36
REMARK   12  A    between atoms: C_26  and  C_27
REMARK   13  A    between atoms: C_26  and  C_32
REMARK                            x       y       z     vdW  Elec       q    Type
REMARK                         _______ _______ _______ _____ _____    ______ ____
ROOT
ATOM      1  C   LIG A   1      -7.753   3.558 128.700  0.00  0.00    +0.016 C 
ATOM      2  C   LIG A   1      -7.510   3.365 130.221  0.00  0.00    -0.005 C 
ATOM      3  C   LIG A   1      -6.841   1.995 130.463  0.00  0.00    -0.063 C 
ATOM      4  C   LIG A   1      -7.312   1.085 131.354  0.00  0.00    -0.064 C 
ATOM      5  C   LIG A   1      -8.472   1.409 132.278  0.00  0.00    +0.032 C 
ATOM      6  C   LIG A   1      -8.732   2.900 132.407  0.00  0.00    +0.012 C 
ATOM      7  C   LIG A   1      -8.847   3.592 131.026  0.00  0.00    -0.019 C 
ATOM      8  C   LIG A   1      -8.903   5.158 131.296  0.00  0.00    +0.009 C 
ATOM      9  C   LIG A   1      -7.539   5.707 130.838  0.00  0.00    +0.006 C 
ATOM     10  C   LIG A   1      -6.614   4.502 130.749  0.00  0.00    +0.012 C 
ATOM     11  C   LIG A   1     -10.064   2.970 130.297  0.00  0.00    +0.012 C 
ATOM     12  C   LIG A   1      -6.687  -0.322 131.523  0.00  0.00    -0.007 C 
ATOM     13  C   LIG A   1      -5.841  -0.683 130.249  0.00  0.00    +0.012 C 
ATOM     14  C   LIG A   1      -5.234  -2.121 130.189  0.00  0.00    +0.027 C 
ATOM     15  C   LIG A   1      -4.790  -2.423 128.734  0.00  0.00    +0.019 C 
ATOM     16  C   LIG A   1      -6.321  -3.145 130.562  0.00  0.00    +0.139 C 
ATOM     17  C   LIG A   1      -7.252  -2.816 131.705  0.00  0.00    +0.076 C 
ATOM     18  C   LIG A   1      -7.795  -1.399 131.623  0.00  0.00    +0.019 C 
ATOM     19  O   LIG A   1      -6.368  -4.264 130.045  0.00  0.00    -0.297 OA
ATOM     20  C   LIG A   1      -4.013  -2.355 131.090  0.00  0.00    +0.019 C 
ATOM     21  C   LIG A   1      -4.844   0.445 129.958  0.00  0.00    +0.009 C 
ATOM     22  C   LIG A   1      -5.603   1.725 129.623  0.00  0.00    +0.031 C 
ATOM     23  C   LIG A   1      -5.868  -0.260 132.834  0.00  0.00    +0.016 C 
ENDROOT
BRANCH   8  24
ATOM     24  C   LIG A   1     -10.129   5.950 130.747  0.00  0.00    +0.102 C 
BRANCH  24  25
ATOM     25  C   LIG A   1     -11.001   6.321 131.926  0.00  0.00    +0.308 C 
ATOM     26  O   LIG A   1     -12.199   6.509 131.918  0.00  0.00    -0.251 OA
BRANCH  25  27
ATOM     27  O   LIG A   1     -10.302   6.453 133.071  0.00  0.00    -0.480 OA
ATOM     28  H   LIG A   1     -10.962   6.241 133.763  0.00  0.00    +0.295 HD
ENDBRANCH  25  27
ENDBRANCH  24  25
BRANCH  24  29
ATOM     29  C   LIG A   1      -9.723   7.259 130.025  0.00  0.00    +0.019 C 
BRANCH  29  30
ATOM     30  C   LIG A   1     -10.368   7.513 128.647  0.00  0.00    +0.028 C 
BRANCH  30  31
ATOM     31  C   LIG A   1     -11.378   8.636 128.618  0.00  0.00    -0.028 C 
ATOM     32  C   LIG A   1     -12.722   8.501 128.588  0.00  0.00    -0.080 C 
ATOM     33  C   LIG A   1     -13.435   7.179 128.638  0.00  0.00    +0.038 C 
ATOM     34  C   LIG A   1     -13.658   9.680 128.529  0.00  0.00    +0.038 C 
ENDBRANCH  30  31
ENDBRANCH  29  30
ENDBRANCH  24  29
ENDBRANCH   8  24
TORSDOF 6
ENDMDL
MODEL 2
REMARK VINA RESULT:      -8.9      2.098      4.161
REMARK  Name = NuBBE_1554
REMARK  13 active torsions:
REMARK  status: ('A' for Active; 'I' for Inactive)
REMARK    1  A    between atoms: C_1  and  C_2
REMARK    2  A    between atoms: C_7  and  C_23
REMARK    3  A    between atoms: C_8  and  C_9
REMARK    4  A    between atoms: C_9  and  C_11
REMARK    5  A    between atoms: C_9  and  C_14
REMARK    6  A    between atoms: C_11  and  O_12
REMARK    7  A    between atoms: C_14  and  C_15
REMARK    8  A    between atoms: C_15  and  C_16
REMARK    9  A    between atoms: C_17  and  C_18
REMARK   10  A    between atoms: C_17  and  C_19
REMARK   11  A    between atoms: C_24  and  C_36
REMARK   12  A    between atoms: C_26  and  C_27
REMARK   13  A    between atoms: C_26  and  C_32
REMARK                            x       y       z     vdW  Elec       q    Type
REMARK                         _______ _______ _______ _____ _____    ______ ____
ROOT
ATOM      1  C   LIG A   1      -7.204   2.561 132.080  0.00  0.00    +0.016 C 
ATOM      2  C   LIG A   1      -8.100   1.842 131.035  0.00  0.00    -0.005 C 
ATOM      3  C   LIG A   1      -7.547   0.425 130.774  0.00  0.00    -0.063 C 
ATOM      4  C   LIG A   1      -7.292  -0.054 129.530  0.00  0.00    -0.064 C 
ATOM      5  C   LIG A   1      -7.661   0.734 128.286  0.00  0.00    +0.032 C 
ATOM      6  C   LIG A   1      -8.679   1.829 128.555  0.00  0.00    +0.012 C 
ATOM      7  C   LIG A   1      -8.262   2.731 129.743  0.00  0.00    -0.019 C 
ATOM      8  C   LIG A   1      -9.495   3.687 130.053  0.00  0.00    +0.009 C 
ATOM      9  C   LIG A   1     -10.096   3.172 131.374  0.00  0.00    +0.006 C 
ATOM     10  C   LIG A   1      -9.546   1.766 131.562  0.00  0.00    +0.012 C 
ATOM     11  C   LIG A   1      -6.931   3.421 129.355  0.00  0.00    +0.012 C 
ATOM     12  C   LIG A   1      -6.652  -1.443 129.283  0.00  0.00    -0.007 C 
ATOM     13  C   LIG A   1      -5.926  -1.931 130.588  0.00  0.00    +0.012 C 
ATOM     14  C   LIG A   1      -5.115  -3.263 130.489  0.00  0.00    +0.027 C 
ATOM     15  C   LIG A   1      -4.169  -3.373 131.713  0.00  0.00    +0.019 C 
ATOM     16  C   LIG A   1      -4.234  -3.226 129.227  0.00  0.00    +0.139 C 
ATOM     17  C   LIG A   1      -4.825  -2.660 127.957  0.00  0.00    +0.076 C 
ATOM     18  C   LIG A   1      -5.557  -1.349 128.192  0.00  0.00    +0.019 C 
ATOM     19  O   LIG A   1      -3.120  -3.755 129.193  0.00  0.00    -0.297 OA
ATOM     20  C   LIG A   1      -5.960  -4.544 130.456  0.00  0.00    +0.019 C 
ATOM     21  C   LIG A   1      -6.896  -1.860 131.773  0.00  0.00    +0.009 C 
ATOM     22  C   LIG A   1      -7.297  -0.409 132.020  0.00  0.00    +0.031 C 
ATOM     23  C   LIG A   1      -7.808  -2.359 128.817  0.00  0.00    +0.016 C 
ENDROOT
BRANCH   8  24
ATOM     24  C   LIG A   1      -9.252   5.227 130.017  0.00  0.00    +0.102 C 
BRANCH  24  25
ATOM     25  C   LIG A   1     -10.324   5.840 129.143  0.00  0.00    +0.308 C 
ATOM     26  O   LIG A   1     -11.520   5.847 129.349  0.00  0.00    -0.251 OA
BRANCH  25  27
ATOM     27  O   LIG A   1      -9.825   6.408 128.026  0.00  0.00    -0.480 OA
ATOM     28  H   LIG A   1      -8.976   5.937 127.895  0.00  0.00    +0.295 HD
ENDBRANCH  25  27
ENDBRANCH  24  25
BRANCH  24  29
ATOM     29  C   LIG A   1      -9.348   5.883 131.417  0.00  0.00    +0.019 C 
BRANCH  29  30
ATOM     30  C   LIG A   1      -8.013   6.235 132.104  0.00  0.00    +0.028 C 
BRANCH  30  31
ATOM     31  C   LIG A   1      -6.976   6.850 131.194  0.00  0.00    -0.028 C 
ATOM     32  C   LIG A   1      -5.635   6.766 131.339  0.00  0.00    -0.080 C 
ATOM     33  C   LIG A   1      -4.955   5.980 132.426  0.00  0.00    +0.038 C 
ATOM     34  C   LIG A   1      -4.669   7.438 130.398  0.00  0.00    +0.038 C 
ENDBRANCH  30  31
ENDBRANCH  29  30
ENDBRANCH  24  29
ENDBRANCH   8  24
TORSDOF 6
ENDMDL
MODEL 3
REMARK VINA RESULT:      -8.9      5.362      7.052
REMARK  Name = NuBBE_1554
REMARK  13 active torsions:
REMARK  status: ('A' for Active; 'I' for Inactive)
REMARK    1  A    between atoms: C_1  and  C_2
REMARK    2  A    between atoms: C_7  and  C_23
REMARK    3  A    between atoms: C_8  and  C_9
REMARK    4  A    between atoms: C_9  and  C_11
REMARK    5  A    between atoms: C_9  and  C_14
REMARK    6  A    between atoms: C_11  and  O_12
REMARK    7  A    between atoms: C_14  and  C_15
REMARK    8  A    between atoms: C_15  and  C_16
REMARK    9  A    between atoms: C_17  and  C_18
REMARK   10  A    between atoms: C_17  and  C_19
REMARK   11  A    between atoms: C_24  and  C_36
REMARK   12  A    between atoms: C_26  and  C_27
REMARK   13  A    between atoms: C_26  and  C_32
REMARK                            x       y       z     vdW  Elec       q    Type
REMARK                         _______ _______ _______ _____ _____    ______ ____
ROOT
ATOM      1  C   LIG A   1      -6.147   1.242 126.563  0.00  0.00    +0.016 C 
ATOM      2  C   LIG A   1      -7.311   0.370 127.106  0.00  0.00    -0.005 C 
ATOM      3  C   LIG A   1      -6.865  -0.327 128.409  0.00  0.00    -0.063 C 
ATOM      4  C   LIG A   1      -6.985  -1.663 128.615  0.00  0.00    -0.064 C 
ATOM      5  C   LIG A   1      -7.693  -2.558 127.615  0.00  0.00    +0.032 C 
ATOM      6  C   LIG A   1      -8.583  -1.790 126.653  0.00  0.00    +0.012 C 
ATOM      7  C   LIG A   1      -7.835  -0.609 125.986  0.00  0.00    -0.019 C 
ATOM      8  C   LIG A   1      -8.920   0.230 125.181  0.00  0.00    +0.009 C 
ATOM      9  C   LIG A   1      -9.116   1.531 125.982  0.00  0.00    +0.006 C 
ATOM     10  C   LIG A   1      -8.543   1.258 127.365  0.00  0.00    +0.012 C 
ATOM     11  C   LIG A   1      -6.669  -1.207 125.161  0.00  0.00    +0.012 C 
ATOM     12  C   LIG A   1      -6.451  -2.364 129.889  0.00  0.00    -0.007 C 
ATOM     13  C   LIG A   1      -5.381  -1.450 130.588  0.00  0.00    +0.012 C 
ATOM     14  C   LIG A   1      -4.641  -2.050 131.827  0.00  0.00    +0.027 C 
ATOM     15  C   LIG A   1      -3.382  -1.196 132.128  0.00  0.00    +0.019 C 
ATOM     16  C   LIG A   1      -4.163  -3.474 131.490  0.00  0.00    +0.139 C 
ATOM     17  C   LIG A   1      -5.093  -4.377 130.714  0.00  0.00    +0.076 C 
ATOM     18  C   LIG A   1      -5.719  -3.677 129.518  0.00  0.00    +0.019 C 
ATOM     19  O   LIG A   1      -3.110  -3.932 131.940  0.00  0.00    -0.297 OA
ATOM     20  C   LIG A   1      -5.467  -2.106 133.119  0.00  0.00    +0.019 C 
ATOM     21  C   LIG A   1      -5.966  -0.050 130.809  0.00  0.00    +0.009 C 
ATOM     22  C   LIG A   1      -6.270   0.596 129.461  0.00  0.00    +0.031 C 
ATOM     23  C   LIG A   1      -7.697  -2.662 130.755  0.00  0.00    +0.016 C 
ENDROOT
BRANCH   8  24
ATOM     24  C   LIG A   1      -8.689   0.447 123.654  0.00  0.00    +0.102 C 
BRANCH  24  25
ATOM     25  C   LIG A   1      -9.673  -0.431 122.912  0.00  0.00    +0.308 C 
ATOM     26  O   LIG A   1      -9.725  -1.643 122.925  0.00  0.00    -0.251 OA
BRANCH  25  27
ATOM     27  O   LIG A   1     -10.546   0.277 122.168  0.00  0.00    -0.480 OA
ATOM     28  H   LIG A   1     -10.581  -0.223 121.326  0.00  0.00    +0.295 HD
ENDBRANCH  25  27
ENDBRANCH  24  25
BRANCH  24  29
ATOM     29  C   LIG A   1      -8.932   1.911 123.212  0.00  0.00    +0.019 C 
BRANCH  29  30
ATOM     30  C   LIG A   1      -7.691   2.709 122.762  0.00  0.00    +0.028 C 
BRANCH  30  31
ATOM     31  C   LIG A   1      -7.821   3.373 121.411  0.00  0.00    -0.028 C 
ATOM     32  C   LIG A   1      -6.804   3.771 120.616  0.00  0.00    -0.080 C 
ATOM     33  C   LIG A   1      -5.351   3.559 120.939  0.00  0.00    +0.038 C 
ATOM     34  C   LIG A   1      -7.025   4.456 119.292  0.00  0.00    +0.038 C 
ENDBRANCH  30  31
ENDBRANCH  29  30
ENDBRANCH  24  29
ENDBRANCH   8  24
TORSDOF 6
ENDMDL
MODEL 4
REMARK VINA RESULT:      -8.7      2.447      3.302
REMARK  Name = NuBBE_1554
REMARK  13 active torsions:
REMARK  status: ('A' for Active; 'I' for Inactive)
REMARK    1  A    between atoms: C_1  and  C_2
REMARK    2  A    between atoms: C_7  and  C_23
REMARK    3  A    between atoms: C_8  and  C_9
REMARK    4  A    between atoms: C_9  and  C_11
REMARK    5  A    between atoms: C_9  and  C_14
REMARK    6  A    between atoms: C_11  and  O_12
REMARK    7  A    between atoms: C_14  and  C_15
REMARK    8  A    between atoms: C_15  and  C_16
REMARK    9  A    between atoms: C_17  and  C_18
REMARK   10  A    between atoms: C_17  and  C_19
REMARK   11  A    between atoms: C_24  and  C_36
REMARK   12  A    between atoms: C_26  and  C_27
REMARK   13  A    between atoms: C_26  and  C_32
REMARK                            x       y       z     vdW  Elec       q    Type
REMARK                         _______ _______ _______ _____ _____    ______ ____
ROOT
ATOM      1  C   LIG A   1      -9.404   3.394 129.997  0.00  0.00    +0.016 C 
ATOM      2  C   LIG A   1      -8.054   2.763 130.434  0.00  0.00    -0.005 C 
ATOM      3  C   LIG A   1      -7.767   1.517 129.569  0.00  0.00    -0.063 C 
ATOM      4  C   LIG A   1      -7.454   0.305 130.093  0.00  0.00    -0.064 C 
ATOM      5  C   LIG A   1      -7.236   0.119 131.584  0.00  0.00    +0.032 C 
ATOM      6  C   LIG A   1      -6.977   1.425 132.315  0.00  0.00    +0.012 C 
ATOM      7  C   LIG A   1      -8.047   2.497 131.988  0.00  0.00    -0.019 C 
ATOM      8  C   LIG A   1      -7.550   3.861 132.637  0.00  0.00    +0.009 C 
ATOM      9  C   LIG A   1      -7.104   4.743 131.455  0.00  0.00    +0.006 C 
ATOM     10  C   LIG A   1      -6.925   3.800 130.275  0.00  0.00    +0.012 C 
ATOM     11  C   LIG A   1      -9.411   1.952 132.479  0.00  0.00    +0.012 C 
ATOM     12  C   LIG A   1      -7.258  -0.959 129.220  0.00  0.00    -0.007 C 
ATOM     13  C   LIG A   1      -7.937  -0.747 127.819  0.00  0.00    +0.012 C 
ATOM     14  C   LIG A   1      -7.947  -1.969 126.846  0.00  0.00    +0.027 C 
ATOM     15  C   LIG A   1      -8.977  -1.710 125.716  0.00  0.00    +0.019 C 
ATOM     16  C   LIG A   1      -8.408  -3.222 127.612  0.00  0.00    +0.139 C 
ATOM     17  C   LIG A   1      -7.888  -3.436 129.014  0.00  0.00    +0.076 C 
ATOM     18  C   LIG A   1      -7.967  -2.177 129.862  0.00  0.00    +0.019 C 
ATOM     19  O   LIG A   1      -9.078  -4.107 127.073  0.00  0.00    -0.297 OA
ATOM     20  C   LIG A   1      -6.603  -2.278 126.170  0.00  0.00    +0.019 C 
ATOM     21  C   LIG A   1      -7.435   0.562 127.197  0.00  0.00    +0.009 C 
ATOM     22  C   LIG A   1      -7.864   1.739 128.068  0.00  0.00    +0.031 C 
ATOM     23  C   LIG A   1      -5.730  -1.190 129.157  0.00  0.00    +0.016 C 
ENDROOT
BRANCH   8  24
ATOM     24  C   LIG A   1      -8.496   4.576 133.649  0.00  0.00    +0.102 C 
BRANCH  24  25
ATOM     25  C   LIG A   1      -7.722   4.783 134.932  0.00  0.00    +0.308 C 
ATOM     26  O   LIG A   1      -7.947   5.604 135.797  0.00  0.00    -0.251 OA
BRANCH  25  27
ATOM     27  O   LIG A   1      -6.677   3.940 135.053  0.00  0.00    -0.480 OA
ATOM     28  H   LIG A   1      -6.332   3.878 134.138  0.00  0.00    +0.295 HD
ENDBRANCH  25  27
ENDBRANCH  24  25
BRANCH  24  29
ATOM     29  C   LIG A   1      -8.971   5.963 133.150  0.00  0.00    +0.019 C 
BRANCH  29  30
ATOM     30  C   LIG A   1     -10.342   6.009 132.445  0.00  0.00    +0.028 C 
BRANCH  30  31
ATOM     31  C   LIG A   1     -10.336   6.681 131.093  0.00  0.00    -0.028 C 
ATOM     32  C   LIG A   1     -11.396   7.253 130.481  0.00  0.00    -0.080 C 
ATOM     33  C   LIG A   1     -12.765   7.359 131.094  0.00  0.00    +0.038 C 
ATOM     34  C   LIG A   1     -11.308   7.876 129.112  0.00  0.00    +0.038 C 
ENDBRANCH  30  31
ENDBRANCH  29  30
ENDBRANCH  24  29
ENDBRANCH   8  24
TORSDOF 6
ENDMDL
MODEL 5
REMARK VINA RESULT:      -8.7      6.800      9.867
REMARK  Name = NuBBE_1554
REMARK  13 active torsions:
REMARK  status: ('A' for Active; 'I' for Inactive)
REMARK    1  A    between atoms: C_1  and  C_2
REMARK    2  A    between atoms: C_7  and  C_23
REMARK    3  A    between atoms: C_8  and  C_9
REMARK    4  A    between atoms: C_9  and  C_11
REMARK    5  A    between atoms: C_9  and  C_14
REMARK    6  A    between atoms: C_11  and  O_12
REMARK    7  A    between atoms: C_14  and  C_15
REMARK    8  A    between atoms: C_15  and  C_16
REMARK    9  A    between atoms: C_17  and  C_18
REMARK   10  A    between atoms: C_17  and  C_19
REMARK   11  A    between atoms: C_24  and  C_36
REMARK   12  A    between atoms: C_26  and  C_27
REMARK   13  A    between atoms: C_26  and  C_32
REMARK                            x       y       z     vdW  Elec       q    Type
REMARK                         _______ _______ _______ _____ _____    ______ ____
ROOT
ATOM      1  C   LIG A   1      -2.745   8.836 132.581  0.00  0.00    +0.016 C 
ATOM      2  C   LIG A   1      -2.778   7.314 132.886  0.00  0.00    -0.005 C 
ATOM      3  C   LIG A   1      -4.150   6.739 132.476  0.00  0.00    -0.063 C 
ATOM      4  C   LIG A   1      -4.920   5.992 133.306  0.00  0.00    -0.064 C 
ATOM      5  C   LIG A   1      -4.421   5.557 134.672  0.00  0.00    +0.032 C 
ATOM      6  C   LIG A   1      -2.912   5.654 134.813  0.00  0.00    +0.012 C 
ATOM      7  C   LIG A   1      -2.377   7.044 134.387  0.00  0.00    -0.019 C 
ATOM      8  C   LIG A   1      -0.790   6.946 134.378  0.00  0.00    +0.009 C 
ATOM      9  C   LIG A   1      -0.383   6.949 132.892  0.00  0.00    +0.006 C 
ATOM     10  C   LIG A   1      -1.646   6.609 132.114  0.00  0.00    +0.012 C 
ATOM     11  C   LIG A   1      -3.001   8.092 135.341  0.00  0.00    +0.012 C 
ATOM     12  C   LIG A   1      -6.335   5.496 132.916  0.00  0.00    -0.007 C 
ATOM     13  C   LIG A   1      -6.891   6.363 131.729  0.00  0.00    +0.012 C 
ATOM     14  C   LIG A   1      -8.362   6.086 131.281  0.00  0.00    +0.027 C 
ATOM     15  C   LIG A   1      -8.856   7.266 130.404  0.00  0.00    +0.019 C 
ATOM     16  C   LIG A   1      -9.267   6.025 132.525  0.00  0.00    +0.139 C 
ATOM     17  C   LIG A   1      -8.752   5.307 133.750  0.00  0.00    +0.076 C 
ATOM     18  C   LIG A   1      -7.322   5.694 134.092  0.00  0.00    +0.019 C 
ATOM     19  O   LIG A   1     -10.433   6.429 132.504  0.00  0.00    -0.297 OA
ATOM     20  C   LIG A   1      -8.567   4.802 130.465  0.00  0.00    +0.019 C 
ATOM     21  C   LIG A   1      -5.869   6.388 130.587  0.00  0.00    +0.009 C 
ATOM     22  C   LIG A   1      -4.590   7.073 131.059  0.00  0.00    +0.031 C 
ATOM     23  C   LIG A   1      -6.175   3.994 132.586  0.00  0.00    +0.016 C 
ENDROOT
BRANCH   8  24
ATOM     24  C   LIG A   1       0.010   7.951 135.263  0.00  0.00    +0.102 C 
BRANCH  24  25
ATOM     25  C   LIG A   1       0.999   7.154 136.084  0.00  0.00    +0.308 C 
ATOM     26  O   LIG A   1       2.206   7.150 135.972  0.00  0.00    -0.251 OA
BRANCH  25  27
ATOM     27  O   LIG A   1       0.401   6.378 137.011  0.00  0.00    -0.480 OA
ATOM     28  H   LIG A   1       1.144   5.853 137.376  0.00  0.00    +0.295 HD
ENDBRANCH  25  27
ENDBRANCH  24  25
BRANCH  24  29
ATOM     29  C   LIG A   1       0.807   8.983 134.428  0.00  0.00    +0.019 C 
BRANCH  29  30
ATOM     30  C   LIG A   1       0.233  10.413 134.370  0.00  0.00    +0.028 C 
BRANCH  30  31
ATOM     31  C   LIG A   1       0.211  11.032 132.992  0.00  0.00    -0.028 C 
ATOM     32  C   LIG A   1       0.796  12.194 132.629  0.00  0.00    -0.080 C 
ATOM     33  C   LIG A   1       1.629  13.040 133.551  0.00  0.00    +0.038 C 
ATOM     34  C   LIG A   1       0.698  12.755 131.234  0.00  0.00    +0.038 C 
ENDBRANCH  30  31
ENDBRANCH  29  30
ENDBRANCH  24  29
ENDBRANCH   8  24
TORSDOF 6
ENDMDL
MODEL 6
REMARK VINA RESULT:      -8.2      4.410      7.502
REMARK  Name = NuBBE_1554
REMARK  13 active torsions:
REMARK  status: ('A' for Active; 'I' for Inactive)
REMARK    1  A    between atoms: C_1  and  C_2
REMARK    2  A    between atoms: C_7  and  C_23
REMARK    3  A    between atoms: C_8  and  C_9
REMARK    4  A    between atoms: C_9  and  C_11
REMARK    5  A    between atoms: C_9  and  C_14
REMARK    6  A    between atoms: C_11  and  O_12
REMARK    7  A    between atoms: C_14  and  C_15
REMARK    8  A    between atoms: C_15  and  C_16
REMARK    9  A    between atoms: C_17  and  C_18
REMARK   10  A    between atoms: C_17  and  C_19
REMARK   11  A    between atoms: C_24  and  C_36
REMARK   12  A    between atoms: C_26  and  C_27
REMARK   13  A    between atoms: C_26  and  C_32
REMARK                            x       y       z     vdW  Elec       q    Type
REMARK                         _______ _______ _______ _____ _____    ______ ____
ROOT
ATOM      1  C   LIG A   1      -6.202   0.556 129.646  0.00  0.00    +0.016 C 
ATOM      2  C   LIG A   1      -6.092  -0.963 129.342  0.00  0.00    -0.005 C 
ATOM      3  C   LIG A   1      -6.329  -1.202 127.835  0.00  0.00    -0.063 C 
ATOM      4  C   LIG A   1      -7.225  -2.104 127.359  0.00  0.00    -0.064 C 
ATOM      5  C   LIG A   1      -7.973  -3.043 128.286  0.00  0.00    +0.032 C 
ATOM      6  C   LIG A   1      -7.327  -3.168 129.655  0.00  0.00    +0.012 C 
ATOM      7  C   LIG A   1      -7.044  -1.785 130.293  0.00  0.00    -0.019 C 
ATOM      8  C   LIG A   1      -6.185  -2.048 131.605  0.00  0.00    +0.009 C 
ATOM      9  C   LIG A   1      -4.760  -1.568 131.272  0.00  0.00    +0.006 C 
ATOM     10  C   LIG A   1      -4.698  -1.472 129.755  0.00  0.00    +0.012 C 
ATOM     11  C   LIG A   1      -8.407  -1.077 130.486  0.00  0.00    +0.012 C 
ATOM     12  C   LIG A   1      -7.520  -2.272 125.847  0.00  0.00    -0.007 C 
ATOM     13  C   LIG A   1      -7.054  -0.987 125.070  0.00  0.00    +0.012 C 
ATOM     14  C   LIG A   1      -7.385  -0.925 123.545  0.00  0.00    +0.027 C 
ATOM     15  C   LIG A   1      -7.217   0.534 123.048  0.00  0.00    +0.019 C 
ATOM     16  C   LIG A   1      -8.858  -1.320 123.331  0.00  0.00    +0.139 C 
ATOM     17  C   LIG A   1      -9.414  -2.474 124.130  0.00  0.00    +0.076 C 
ATOM     18  C   LIG A   1      -9.044  -2.392 125.603  0.00  0.00    +0.019 C 
ATOM     19  O   LIG A   1      -9.548  -0.808 122.445  0.00  0.00    -0.297 OA
ATOM     20  C   LIG A   1      -6.508  -1.810 122.648  0.00  0.00    +0.019 C 
ATOM     21  C   LIG A   1      -5.594  -0.676 125.421  0.00  0.00    +0.009 C 
ATOM     22  C   LIG A   1      -5.484  -0.345 126.907  0.00  0.00    +0.031 C 
ATOM     23  C   LIG A   1      -6.795  -3.570 125.422  0.00  0.00    +0.016 C 
ENDROOT
BRANCH   8  24
ATOM     24  C   LIG A   1      -6.740  -1.512 132.961  0.00  0.00    +0.102 C 
BRANCH  24  25
ATOM     25  C   LIG A   1      -6.930  -2.699 133.880  0.00  0.00    +0.308 C 
ATOM     26  O   LIG A   1      -6.696  -3.862 133.630  0.00  0.00    -0.251 OA
BRANCH  25  27
ATOM     27  O   LIG A   1      -7.427  -2.351 135.084  0.00  0.00    -0.480 OA
ATOM     28  H   LIG A   1      -6.849  -2.831 135.713  0.00  0.00    +0.295 HD
ENDBRANCH  25  27
ENDBRANCH  24  25
BRANCH  24  29
ATOM     29  C   LIG A   1      -5.774  -0.522 133.656  0.00  0.00    +0.019 C 
BRANCH  29  30
ATOM     30  C   LIG A   1      -6.270   0.931 133.807  0.00  0.00    +0.028 C 
BRANCH  30  31
ATOM     31  C   LIG A   1      -7.504   1.266 133.004  0.00  0.00    -0.028 C 
ATOM     32  C   LIG A   1      -8.250   2.387 133.115  0.00  0.00    -0.080 C 
ATOM     33  C   LIG A   1      -7.923   3.525 134.041  0.00  0.00    +0.038 C 
ATOM     34  C   LIG A   1      -9.489   2.627 132.292  0.00  0.00    +0.038 C 
ENDBRANCH  30  31
ENDBRANCH  29  30
ENDBRANCH  24  29
ENDBRANCH   8  24
TORSDOF 6
ENDMDL
MODEL 7
REMARK VINA RESULT:      -8.0      6.018      7.794
REMARK  Name = NuBBE_1554
REMARK  13 active torsions:
REMARK  status: ('A' for Active; 'I' for Inactive)
REMARK    1  A    between atoms: C_1  and  C_2
REMARK    2  A    between atoms: C_7  and  C_23
REMARK    3  A    between atoms: C_8  and  C_9
REMARK    4  A    between atoms: C_9  and  C_11
REMARK    5  A    between atoms: C_9  and  C_14
REMARK    6  A    between atoms: C_11  and  O_12
REMARK    7  A    between atoms: C_14  and  C_15
REMARK    8  A    between atoms: C_15  and  C_16
REMARK    9  A    between atoms: C_17  and  C_18
REMARK   10  A    between atoms: C_17  and  C_19
REMARK   11  A    between atoms: C_24  and  C_36
REMARK   12  A    between atoms: C_26  and  C_27
REMARK   13  A    between atoms: C_26  and  C_32
REMARK                            x       y       z     vdW  Elec       q    Type
REMARK                         _______ _______ _______ _____ _____    ______ ____
ROOT
ATOM      1  C   LIG A   1      -7.987  -0.191 127.770  0.00  0.00    +0.016 C 
ATOM      2  C   LIG A   1      -7.369  -1.613 127.691  0.00  0.00    -0.005 C 
ATOM      3  C   LIG A   1      -6.897  -2.046 129.096  0.00  0.00    -0.063 C 
ATOM      4  C   LIG A   1      -5.648  -2.512 129.348  0.00  0.00    -0.064 C 
ATOM      5  C   LIG A   1      -4.656  -2.765 128.229  0.00  0.00    +0.032 C 
ATOM      6  C   LIG A   1      -5.312  -2.866 126.862  0.00  0.00    +0.012 C 
ATOM      7  C   LIG A   1      -6.252  -1.667 126.579  0.00  0.00    -0.019 C 
ATOM      8  C   LIG A   1      -7.029  -1.997 125.231  0.00  0.00    +0.009 C 
ATOM      9  C   LIG A   1      -8.475  -2.317 125.654  0.00  0.00    +0.006 C 
ATOM     10  C   LIG A   1      -8.418  -2.602 127.148  0.00  0.00    +0.012 C 
ATOM     11  C   LIG A   1      -5.382  -0.387 126.583  0.00  0.00    +0.012 C 
ATOM     12  C   LIG A   1      -5.157  -2.857 130.776  0.00  0.00    -0.007 C 
ATOM     13  C   LIG A   1      -6.069  -2.144 131.838  0.00  0.00    +0.012 C 
ATOM     14  C   LIG A   1      -5.648  -2.278 133.336  0.00  0.00    +0.027 C 
ATOM     15  C   LIG A   1      -6.404  -1.214 134.173  0.00  0.00    +0.019 C 
ATOM     16  C   LIG A   1      -4.142  -1.984 133.467  0.00  0.00    +0.139 C 
ATOM     17  C   LIG A   1      -3.210  -2.539 132.415  0.00  0.00    +0.076 C 
ATOM     18  C   LIG A   1      -3.725  -2.311 131.003  0.00  0.00    +0.019 C 
ATOM     19  O   LIG A   1      -3.670  -1.424 134.460  0.00  0.00    -0.297 OA
ATOM     20  C   LIG A   1      -5.935  -3.643 133.977  0.00  0.00    +0.019 C 
ATOM     21  C   LIG A   1      -7.540  -2.473 131.555  0.00  0.00    +0.009 C 
ATOM     22  C   LIG A   1      -7.939  -1.908 130.195  0.00  0.00    +0.031 C 
ATOM     23  C   LIG A   1      -5.170  -4.402 130.861  0.00  0.00    +0.016 C 
ENDROOT
BRANCH   8  24
ATOM     24  C   LIG A   1      -6.916  -0.978 124.056  0.00  0.00    +0.102 C 
BRANCH  24  25
ATOM     25  C   LIG A   1      -6.978  -1.760 122.763  0.00  0.00    +0.308 C 
ATOM     26  O   LIG A   1      -7.971  -2.049 122.130  0.00  0.00    -0.251 OA
BRANCH  25  27
ATOM     27  O   LIG A   1      -5.762  -2.158 122.336  0.00  0.00    -0.480 OA
ATOM     28  H   LIG A   1      -5.543  -1.504 121.640  0.00  0.00    +0.295 HD
ENDBRANCH  25  27
ENDBRANCH  24  25
BRANCH  24  29
ATOM     29  C   LIG A   1      -8.072   0.053 124.043  0.00  0.00    +0.019 C 
BRANCH  29  30
ATOM     30  C   LIG A   1      -7.720   1.487 124.491  0.00  0.00    +0.028 C 
BRANCH  30  31
ATOM     31  C   LIG A   1      -6.771   2.222 123.574  0.00  0.00    -0.028 C 
ATOM     32  C   LIG A   1      -7.110   2.931 122.476  0.00  0.00    -0.080 C 
ATOM     33  C   LIG A   1      -8.526   3.148 122.020  0.00  0.00    +0.038 C 
ATOM     34  C   LIG A   1      -6.091   3.610 121.596  0.00  0.00    +0.038 C 
ENDBRANCH  30  31
ENDBRANCH  29  30
ENDBRANCH  24  29
ENDBRANCH   8  24
TORSDOF 6
ENDMDL
MODEL 8
REMARK VINA RESULT:      -7.8      5.603      7.505
REMARK  Name = NuBBE_1554
REMARK  13 active torsions:
REMARK  status: ('A' for Active; 'I' for Inactive)
REMARK    1  A    between atoms: C_1  and  C_2
REMARK    2  A    between atoms: C_7  and  C_23
REMARK    3  A    between atoms: C_8  and  C_9
REMARK    4  A    between atoms: C_9  and  C_11
REMARK    5  A    between atoms: C_9  and  C_14
REMARK    6  A    between atoms: C_11  and  O_12
REMARK    7  A    between atoms: C_14  and  C_15
REMARK    8  A    between atoms: C_15  and  C_16
REMARK    9  A    between atoms: C_17  and  C_18
REMARK   10  A    between atoms: C_17  and  C_19
REMARK   11  A    between atoms: C_24  and  C_36
REMARK   12  A    between atoms: C_26  and  C_27
REMARK   13  A    between atoms: C_26  and  C_32
REMARK                            x       y       z     vdW  Elec       q    Type
REMARK                         _______ _______ _______ _____ _____    ______ ____
ROOT
ATOM      1  C   LIG A   1      -7.523  -2.596 129.138  0.00  0.00    +0.016 C 
ATOM      2  C   LIG A   1      -6.045  -2.249 129.463  0.00  0.00    -0.005 C 
ATOM      3  C   LIG A   1      -5.653  -2.888 130.812  0.00  0.00    -0.063 C 
ATOM      4  C   LIG A   1      -5.081  -2.190 131.826  0.00  0.00    -0.064 C 
ATOM      5  C   LIG A   1      -4.666  -0.740 131.654  0.00  0.00    +0.032 C 
ATOM      6  C   LIG A   1      -4.549  -0.323 130.198  0.00  0.00    +0.012 C 
ATOM      7  C   LIG A   1      -5.815  -0.691 129.385  0.00  0.00    -0.019 C 
ATOM      8  C   LIG A   1      -5.484  -0.400 127.857  0.00  0.00    +0.009 C 
ATOM      9  C   LIG A   1      -5.332  -1.782 127.195  0.00  0.00    +0.006 C 
ATOM     10  C   LIG A   1      -5.133  -2.770 128.335  0.00  0.00    +0.012 C 
ATOM     11  C   LIG A   1      -7.002   0.092 129.998  0.00  0.00    +0.012 C 
ATOM     12  C   LIG A   1      -4.775  -2.820 133.207  0.00  0.00    -0.007 C 
ATOM     13  C   LIG A   1      -5.637  -4.120 133.400  0.00  0.00    +0.012 C 
ATOM     14  C   LIG A   1      -5.551  -4.825 134.792  0.00  0.00    +0.027 C 
ATOM     15  C   LIG A   1      -6.733  -5.820 134.930  0.00  0.00    +0.019 C 
ATOM     16  C   LIG A   1      -5.703  -3.770 135.903  0.00  0.00    +0.139 C 
ATOM     17  C   LIG A   1      -4.998  -2.445 135.735  0.00  0.00    +0.076 C 
ATOM     18  C   LIG A   1      -5.191  -1.856 134.347  0.00  0.00    +0.019 C 
ATOM     19  O   LIG A   1      -6.272  -4.023 136.968  0.00  0.00    -0.297 OA
ATOM     20  C   LIG A   1      -4.262  -5.618 135.045  0.00  0.00    +0.019 C 
ATOM     21  C   LIG A   1      -5.438  -5.051 132.198  0.00  0.00    +0.009 C 
ATOM     22  C   LIG A   1      -5.957  -4.372 130.934  0.00  0.00    +0.031 C 
ATOM     23  C   LIG A   1      -3.248  -3.061 133.228  0.00  0.00    +0.016 C 
ENDROOT
BRANCH   8  24
ATOM     24  C   LIG A   1      -6.415   0.582 127.082  0.00  0.00    +0.102 C 
BRANCH  24  25
ATOM     25  C   LIG A   1      -5.569   1.747 126.618  0.00  0.00    +0.308 C 
ATOM     26  O   LIG A   1      -5.942   2.879 126.395  0.00  0.00    -0.251 OA
BRANCH  25  27
ATOM     27  O   LIG A   1      -4.274   1.414 126.442  0.00  0.00    -0.480 OA
ATOM     28  H   LIG A   1      -4.151   0.658 127.053  0.00  0.00    +0.295 HD
ENDBRANCH  25  27
ENDBRANCH  24  25
BRANCH  24  29
ATOM     29  C   LIG A   1      -7.062  -0.064 125.832  0.00  0.00    +0.019 C 
BRANCH  29  30
ATOM     30  C   LIG A   1      -8.538  -0.490 125.963  0.00  0.00    +0.028 C 
BRANCH  30  31
ATOM     31  C   LIG A   1      -9.071  -1.293 124.800  0.00  0.00    -0.028 C 
ATOM     32  C   LIG A   1      -9.006  -2.635 124.660  0.00  0.00    -0.080 C 
ATOM     33  C   LIG A   1      -8.428  -3.561 125.694  0.00  0.00    +0.038 C 
ATOM     34  C   LIG A   1      -9.538  -3.355 123.448  0.00  0.00    +0.038 C 
ENDBRANCH  30  31
ENDBRANCH  29  30
ENDBRANCH  24  29
ENDBRANCH   8  24
TORSDOF 6
ENDMDL
MODEL 9
REMARK VINA RESULT:      -7.6      5.435      7.740
REMARK  Name = NuBBE_1554
REMARK  13 active torsions:
REMARK  status: ('A' for Active; 'I' for Inactive)
REMARK    1  A    between atoms: C_1  and  C_2
REMARK    2  A    between atoms: C_7  and  C_23
REMARK    3  A    between atoms: C_8  and  C_9
REMARK    4  A    between atoms: C_9  and  C_11
REMARK    5  A    between atoms: C_9  and  C_14
REMARK    6  A    between atoms: C_11  and  O_12
REMARK    7  A    between atoms: C_14  and  C_15
REMARK    8  A    between atoms: C_15  and  C_16
REMARK    9  A    between atoms: C_17  and  C_18
REMARK   10  A    between atoms: C_17  and  C_19
REMARK   11  A    between atoms: C_24  and  C_36
REMARK   12  A    between atoms: C_26  and  C_27
REMARK   13  A    between atoms: C_26  and  C_32
REMARK                            x       y       z     vdW  Elec       q    Type
REMARK                         _______ _______ _______ _____ _____    ______ ____
ROOT
ATOM      1  C   LIG A   1      -3.788   7.563 129.313  0.00  0.00    +0.016 C 
ATOM      2  C   LIG A   1      -3.539   6.120 129.828  0.00  0.00    -0.005 C 
ATOM      3  C   LIG A   1      -4.198   5.111 128.864  0.00  0.00    -0.063 C 
ATOM      4  C   LIG A   1      -5.042   4.132 129.277  0.00  0.00    -0.064 C 
ATOM      5  C   LIG A   1      -5.300   3.878 130.751  0.00  0.00    +0.032 C 
ATOM      6  C   LIG A   1      -4.243   4.490 131.655  0.00  0.00    +0.012 C 
ATOM      7  C   LIG A   1      -3.998   5.985 131.331  0.00  0.00    -0.019 C 
ATOM      8  C   LIG A   1      -2.739   6.443 132.188  0.00  0.00    +0.009 C 
ATOM      9  C   LIG A   1      -1.588   6.608 131.178  0.00  0.00    +0.006 C 
ATOM     10  C   LIG A   1      -2.023   5.862 129.925  0.00  0.00    +0.012 C 
ATOM     11  C   LIG A   1      -5.325   6.738 131.592  0.00  0.00    +0.012 C 
ATOM     12  C   LIG A   1      -5.767   3.182 128.292  0.00  0.00    -0.007 C 
ATOM     13  C   LIG A   1      -5.781   3.818 126.855  0.00  0.00    +0.012 C 
ATOM     14  C   LIG A   1      -6.583   3.054 125.752  0.00  0.00    +0.027 C 
ATOM     15  C   LIG A   1      -6.815   4.002 124.547  0.00  0.00    +0.019 C 
ATOM     16  C   LIG A   1      -7.965   2.666 126.308  0.00  0.00    +0.139 C 
ATOM     17  C   LIG A   1      -8.049   2.155 127.727  0.00  0.00    +0.076 C 
ATOM     18  C   LIG A   1      -7.251   3.008 128.700  0.00  0.00    +0.019 C 
ATOM     19  O   LIG A   1      -8.971   2.641 125.595  0.00  0.00    -0.297 OA
ATOM     20  C   LIG A   1      -5.904   1.790 125.207  0.00  0.00    +0.019 C 
ATOM     21  C   LIG A   1      -4.355   4.211 126.453  0.00  0.00    +0.009 C 
ATOM     22  C   LIG A   1      -3.836   5.291 127.398  0.00  0.00    +0.031 C 
ATOM     23  C   LIG A   1      -5.017   1.833 128.383  0.00  0.00    +0.016 C 
ENDROOT
BRANCH   8  24
ATOM     24  C   LIG A   1      -2.916   7.651 133.158  0.00  0.00    +0.102 C 
BRANCH  24  25
ATOM     25  C   LIG A   1      -2.791   7.126 134.572  0.00  0.00    +0.308 C 
ATOM     26  O   LIG A   1      -3.278   7.604 135.575  0.00  0.00    -0.251 OA
BRANCH  25  27
ATOM     27  O   LIG A   1      -2.033   6.014 134.650  0.00  0.00    -0.480 OA
ATOM     28  H   LIG A   1      -1.146   6.326 134.372  0.00  0.00    +0.295 HD
ENDBRANCH  25  27
ENDBRANCH  24  25
BRANCH  24  29
ATOM     29  C   LIG A   1      -1.838   8.744 132.960  0.00  0.00    +0.019 C 
BRANCH  29  30
ATOM     30  C   LIG A   1      -2.161  10.141 133.528  0.00  0.00    +0.028 C 
BRANCH  30  31
ATOM     31  C   LIG A   1      -1.904  11.286 132.577  0.00  0.00    -0.028 C 
ATOM     32  C   LIG A   1      -0.729  11.928 132.399  0.00  0.00    -0.080 C 
ATOM     33  C   LIG A   1       0.548  11.553 133.098  0.00  0.00    +0.038 C 
ATOM     34  C   LIG A   1      -0.568  13.086 131.448  0.00  0.00    +0.038 C 
ENDBRANCH  30  31
ENDBRANCH  29  30
ENDBRANCH  24  29
ENDBRANCH   8  24
TORSDOF 6
ENDMDL
