MODEL 1
REMARK VINA RESULT:      -8.4      0.000      0.000
REMARK  Name = NuBBE_1508
REMARK  7 active torsions:
REMARK  status: ('A' for Active; 'I' for Inactive)
REMARK    1  A    between atoms: O_1  and  C_2
REMARK    2  A    between atoms: O_1  and  C_5
REMARK    3  A    between atoms: C_2  and  C_4
REMARK    4  A    between atoms: C_16  and  C_19
REMARK    5  A    between atoms: C_29  and  O_31
REMARK    6  A    between atoms: O_31  and  C_32
REMARK    7  A    between atoms: C_32  and  C_34
REMARK                            x       y       z     vdW  Elec       q    Type
REMARK                         _______ _______ _______ _____ _____    ______ ____
ROOT
ATOM      1  C   LIG A   1      -6.892   5.208 132.856  0.00  0.00    +0.253 C 
ATOM      2  C   LIG A   1      -7.452   6.227 131.838  0.00  0.00    +0.092 C 
ATOM      3  C   LIG A   1      -8.932   5.826 131.846  0.00  0.00    +0.006 C 
ATOM      4  C   LIG A   1      -9.105   5.698 133.379  0.00  0.00    +0.172 C 
ATOM      5  O   LIG A   1      -7.837   5.337 133.944  0.00  0.00    -0.336 OA
ATOM      6  C   LIG A   1      -9.927   6.876 131.281  0.00  0.00    +0.001 C 
ATOM      7  C   LIG A   1      -9.687   7.152 129.781  0.00  0.00    -0.003 C 
ATOM      8  C   LIG A   1     -10.754   8.133 129.181  0.00  0.00    +0.006 C 
ATOM      9  C   LIG A   1     -12.229   7.878 129.591  0.00  0.00    -0.022 C 
ATOM     10  C   LIG A   1     -12.389   7.499 131.066  0.00  0.00    +0.007 C 
ATOM     11  C   LIG A   1     -11.389   6.479 131.576  0.00  0.00    +0.005 C 
ATOM     12  C   LIG A   1     -13.106   9.138 129.367  0.00  0.00    +0.012 C 
ATOM     13  C   LIG A   1     -12.682   6.785 128.607  0.00  0.00    +0.081 C 
ATOM     14  C   LIG A   1     -11.901   7.148 127.362  0.00  0.00    +0.134 C 
ATOM     15  O   LIG A   1     -12.130   6.681 126.254  0.00  0.00    -0.297 OA
ATOM     16  C   LIG A   1     -10.802   8.148 127.644  0.00  0.00    +0.078 C 
ATOM     17  C   LIG A   1      -9.331   5.871 128.988  0.00  0.00    +0.004 C 
ATOM     18  C   LIG A   1      -9.642   4.553 129.685  0.00  0.00    +0.004 C 
ATOM     19  C   LIG A   1      -9.084   4.444 131.118  0.00  0.00    +0.002 C 
ATOM     20  C   LIG A   1      -7.763   3.647 131.052  0.00  0.00    +0.055 C 
ATOM     21  C   LIG A   1      -6.963   3.728 132.348  0.00  0.00    +0.248 C 
ENDROOT
BRANCH   1  22
ATOM     22  O   LIG A   1      -5.591   5.586 133.321  0.00  0.00    -0.429 OA
BRANCH  22  23
ATOM     23  C   LIG A   1      -4.539   5.266 132.524  0.00  0.00    +0.306 C 
ATOM     24  O   LIG A   1      -4.396   5.614 131.359  0.00  0.00    -0.251 OA
ATOM     25  C   LIG A   1      -3.535   4.456 133.279  0.00  0.00    +0.136 C 
ENDBRANCH  22  23
ENDBRANCH   1  22
BRANCH  21  26
ATOM     26  O   LIG A   1      -7.649   2.839 133.259  0.00  0.00    -0.455 OA
BRANCH  26  27
ATOM     27  C   LIG A   1      -7.005   1.678 133.551  0.00  0.00    +0.304 C 
ATOM     28  O   LIG A   1      -7.373   0.559 133.255  0.00  0.00    -0.251 OA
ATOM     29  C   LIG A   1      -5.866   1.986 134.478  0.00  0.00    +0.136 C 
ENDBRANCH  26  27
ENDBRANCH  21  26
TORSDOF 4
ENDMDL
MODEL 2
REMARK VINA RESULT:      -7.9      7.316     10.770
REMARK  Name = NuBBE_1508
REMARK  7 active torsions:
REMARK  status: ('A' for Active; 'I' for Inactive)
REMARK    1  A    between atoms: O_1  and  C_2
REMARK    2  A    between atoms: O_1  and  C_5
REMARK    3  A    between atoms: C_2  and  C_4
REMARK    4  A    between atoms: C_16  and  C_19
REMARK    5  A    between atoms: C_29  and  O_31
REMARK    6  A    between atoms: O_31  and  C_32
REMARK    7  A    between atoms: C_32  and  C_34
REMARK                            x       y       z     vdW  Elec       q    Type
REMARK                         _______ _______ _______ _____ _____    ______ ____
ROOT
ATOM      1  C   LIG A   1      -8.574  -0.487 124.745  0.00  0.00    +0.253 C 
ATOM      2  C   LIG A   1      -8.270  -1.597 125.776  0.00  0.00    +0.092 C 
ATOM      3  C   LIG A   1      -7.834  -0.739 126.970  0.00  0.00    +0.006 C 
ATOM      4  C   LIG A   1      -8.964   0.316 126.893  0.00  0.00    +0.172 C 
ATOM      5  O   LIG A   1      -9.388   0.419 125.526  0.00  0.00    -0.336 OA
ATOM      6  C   LIG A   1      -7.849  -1.439 128.356  0.00  0.00    +0.001 C 
ATOM      7  C   LIG A   1      -6.841  -2.607 128.426  0.00  0.00    -0.003 C 
ATOM      8  C   LIG A   1      -6.778  -3.250 129.855  0.00  0.00    +0.006 C 
ATOM      9  C   LIG A   1      -6.749  -2.264 131.052  0.00  0.00    -0.022 C 
ATOM     10  C   LIG A   1      -7.689  -1.068 130.872  0.00  0.00    +0.007 C 
ATOM     11  C   LIG A   1      -7.647  -0.423 129.500  0.00  0.00    +0.005 C 
ATOM     12  C   LIG A   1      -7.176  -2.960 132.371  0.00  0.00    +0.012 C 
ATOM     13  C   LIG A   1      -5.260  -1.885 131.158  0.00  0.00    +0.081 C 
ATOM     14  C   LIG A   1      -4.584  -3.171 130.737  0.00  0.00    +0.134 C 
ATOM     15  O   LIG A   1      -3.392  -3.399 130.897  0.00  0.00    -0.297 OA
ATOM     16  C   LIG A   1      -5.548  -4.142 130.090  0.00  0.00    +0.078 C 
ATOM     17  C   LIG A   1      -5.512  -2.292 127.697  0.00  0.00    +0.004 C 
ATOM     18  C   LIG A   1      -5.261  -0.822 127.382  0.00  0.00    +0.004 C 
ATOM     19  C   LIG A   1      -6.426  -0.119 126.658  0.00  0.00    +0.002 C 
ATOM     20  C   LIG A   1      -6.098  -0.094 125.148  0.00  0.00    +0.055 C 
ATOM     21  C   LIG A   1      -7.298   0.300 124.294  0.00  0.00    +0.248 C 
ENDROOT
BRANCH   1  22
ATOM     22  O   LIG A   1      -9.352  -0.983 123.648  0.00  0.00    -0.429 OA
BRANCH  22  23
ATOM     23  C   LIG A   1      -8.872  -2.077 123.003  0.00  0.00    +0.306 C 
ATOM     24  O   LIG A   1      -7.898  -2.097 122.262  0.00  0.00    -0.251 OA
ATOM     25  C   LIG A   1      -9.673  -3.289 123.355  0.00  0.00    +0.136 C 
ENDBRANCH  22  23
ENDBRANCH   1  22
BRANCH  21  26
ATOM     26  O   LIG A   1      -7.414   1.731 124.463  0.00  0.00    -0.455 OA
BRANCH  26  27
ATOM     27  C   LIG A   1      -7.729   2.437 123.344  0.00  0.00    +0.304 C 
ATOM     28  O   LIG A   1      -8.833   2.541 122.849  0.00  0.00    -0.251 OA
ATOM     29  C   LIG A   1      -6.456   2.903 122.701  0.00  0.00    +0.136 C 
ENDBRANCH  26  27
ENDBRANCH  21  26
TORSDOF 4
ENDMDL
MODEL 3
REMARK VINA RESULT:      -7.9      7.618     10.980
REMARK  Name = NuBBE_1508
REMARK  7 active torsions:
REMARK  status: ('A' for Active; 'I' for Inactive)
REMARK    1  A    between atoms: O_1  and  C_2
REMARK    2  A    between atoms: O_1  and  C_5
REMARK    3  A    between atoms: C_2  and  C_4
REMARK    4  A    between atoms: C_16  and  C_19
REMARK    5  A    between atoms: C_29  and  O_31
REMARK    6  A    between atoms: O_31  and  C_32
REMARK    7  A    between atoms: C_32  and  C_34
REMARK                            x       y       z     vdW  Elec       q    Type
REMARK                         _______ _______ _______ _____ _____    ______ ____
ROOT
ATOM      1  C   LIG A   1      -7.652  -0.591 125.815  0.00  0.00    +0.253 C 
ATOM      2  C   LIG A   1      -7.369  -0.376 127.319  0.00  0.00    +0.092 C 
ATOM      3  C   LIG A   1      -6.490  -1.599 127.603  0.00  0.00    +0.006 C 
ATOM      4  C   LIG A   1      -5.577  -1.494 126.356  0.00  0.00    +0.172 C 
ATOM      5  O   LIG A   1      -6.324  -0.862 125.307  0.00  0.00    -0.336 OA
ATOM      6  C   LIG A   1      -5.635  -1.540 128.898  0.00  0.00    +0.001 C 
ATOM      7  C   LIG A   1      -6.512  -1.486 130.168  0.00  0.00    -0.003 C 
ATOM      8  C   LIG A   1      -5.656  -1.531 131.481  0.00  0.00    +0.006 C 
ATOM      9  C   LIG A   1      -4.494  -2.560 131.510  0.00  0.00    -0.022 C 
ATOM     10  C   LIG A   1      -3.733  -2.647 130.183  0.00  0.00    +0.007 C 
ATOM     11  C   LIG A   1      -4.608  -2.692 128.946  0.00  0.00    +0.005 C 
ATOM     12  C   LIG A   1      -3.444  -2.199 132.593  0.00  0.00    +0.012 C 
ATOM     13  C   LIG A   1      -5.195  -3.867 131.922  0.00  0.00    +0.081 C 
ATOM     14  C   LIG A   1      -6.276  -3.359 132.850  0.00  0.00    +0.134 C 
ATOM     15  O   LIG A   1      -6.930  -4.078 133.593  0.00  0.00    -0.297 OA
ATOM     16  C   LIG A   1      -6.463  -1.861 132.748  0.00  0.00    +0.078 C 
ATOM     17  C   LIG A   1      -7.763  -2.392 130.069  0.00  0.00    +0.004 C 
ATOM     18  C   LIG A   1      -7.735  -3.441 128.963  0.00  0.00    +0.004 C 
ATOM     19  C   LIG A   1      -7.388  -2.885 127.568  0.00  0.00    +0.002 C 
ATOM     20  C   LIG A   1      -8.712  -2.678 126.800  0.00  0.00    +0.055 C 
ATOM     21  C   LIG A   1      -8.530  -1.856 125.529  0.00  0.00    +0.248 C 
ENDROOT
BRANCH   1  22
ATOM     22  O   LIG A   1      -8.154   0.600 125.196  0.00  0.00    -0.429 OA
BRANCH  22  23
ATOM     23  C   LIG A   1      -9.469   0.606 124.858  0.00  0.00    +0.306 C 
ATOM     24  O   LIG A   1     -10.405   0.481 125.636  0.00  0.00    -0.251 OA
ATOM     25  C   LIG A   1      -9.633   0.836 123.390  0.00  0.00    +0.136 C 
ENDBRANCH  22  23
ENDBRANCH   1  22
BRANCH  21  26
ATOM     26  O   LIG A   1      -7.929  -2.771 124.583  0.00  0.00    -0.455 OA
BRANCH  26  27
ATOM     27  C   LIG A   1      -8.407  -2.707 123.311  0.00  0.00    +0.304 C 
ATOM     28  O   LIG A   1      -7.919  -2.079 122.393  0.00  0.00    -0.251 OA
ATOM     29  C   LIG A   1      -9.750  -3.374 123.272  0.00  0.00    +0.136 C 
ENDBRANCH  26  27
ENDBRANCH  21  26
TORSDOF 4
ENDMDL
MODEL 4
REMARK VINA RESULT:      -7.9      5.869      8.127
REMARK  Name = NuBBE_1508
REMARK  7 active torsions:
REMARK  status: ('A' for Active; 'I' for Inactive)
REMARK    1  A    between atoms: O_1  and  C_2
REMARK    2  A    between atoms: O_1  and  C_5
REMARK    3  A    between atoms: C_2  and  C_4
REMARK    4  A    between atoms: C_16  and  C_19
REMARK    5  A    between atoms: C_29  and  O_31
REMARK    6  A    between atoms: O_31  and  C_32
REMARK    7  A    between atoms: C_32  and  C_34
REMARK                            x       y       z     vdW  Elec       q    Type
REMARK                         _______ _______ _______ _____ _____    ______ ____
ROOT
ATOM      1  C   LIG A   1      -5.766   4.083 128.182  0.00  0.00    +0.253 C 
ATOM      2  C   LIG A   1      -5.354   2.710 127.605  0.00  0.00    +0.092 C 
ATOM      3  C   LIG A   1      -6.490   2.492 126.598  0.00  0.00    +0.006 C 
ATOM      4  C   LIG A   1      -6.494   3.912 125.979  0.00  0.00    +0.172 C 
ATOM      5  O   LIG A   1      -6.033   4.836 126.974  0.00  0.00    -0.336 OA
ATOM      6  C   LIG A   1      -6.231   1.429 125.496  0.00  0.00    +0.001 C 
ATOM      7  C   LIG A   1      -6.063   0.013 126.087  0.00  0.00    -0.003 C 
ATOM      8  C   LIG A   1      -5.906  -1.080 124.972  0.00  0.00    +0.006 C 
ATOM      9  C   LIG A   1      -6.867  -0.967 123.759  0.00  0.00    -0.022 C 
ATOM     10  C   LIG A   1      -7.080   0.476 123.290  0.00  0.00    +0.007 C 
ATOM     11  C   LIG A   1      -7.318   1.480 124.401  0.00  0.00    +0.005 C 
ATOM     12  C   LIG A   1      -6.326  -1.749 122.533  0.00  0.00    +0.012 C 
ATOM     13  C   LIG A   1      -8.146  -1.662 124.259  0.00  0.00    +0.081 C 
ATOM     14  C   LIG A   1      -7.579  -2.742 125.155  0.00  0.00    +0.134 C 
ATOM     15  O   LIG A   1      -8.232  -3.685 125.583  0.00  0.00    -0.297 OA
ATOM     16  C   LIG A   1      -6.115  -2.520 125.468  0.00  0.00    +0.078 C 
ATOM     17  C   LIG A   1      -7.033  -0.264 127.262  0.00  0.00    +0.004 C 
ATOM     18  C   LIG A   1      -8.208   0.699 127.391  0.00  0.00    +0.004 C 
ATOM     19  C   LIG A   1      -7.812   2.189 127.387  0.00  0.00    +0.002 C 
ATOM     20  C   LIG A   1      -7.764   2.668 128.855  0.00  0.00    +0.055 C 
ATOM     21  C   LIG A   1      -7.096   4.031 129.005  0.00  0.00    +0.248 C 
ENDROOT
BRANCH   1  22
ATOM     22  O   LIG A   1      -4.685   4.705 128.888  0.00  0.00    -0.429 OA
BRANCH  22  23
ATOM     23  C   LIG A   1      -3.914   5.574 128.185  0.00  0.00    +0.306 C 
ATOM     24  O   LIG A   1      -4.185   6.747 127.961  0.00  0.00    -0.251 OA
ATOM     25  C   LIG A   1      -2.645   4.916 127.748  0.00  0.00    +0.136 C 
ENDBRANCH  22  23
ENDBRANCH   1  22
BRANCH  21  26
ATOM     26  O   LIG A   1      -8.090   4.978 128.552  0.00  0.00    -0.455 OA
BRANCH  26  27
ATOM     27  C   LIG A   1      -9.032   5.332 129.468  0.00  0.00    +0.304 C 
ATOM     28  O   LIG A   1     -10.235   5.234 129.334  0.00  0.00    -0.251 OA
ATOM     29  C   LIG A   1      -8.353   6.055 130.594  0.00  0.00    +0.136 C 
ENDBRANCH  26  27
ENDBRANCH  21  26
TORSDOF 4
ENDMDL
MODEL 5
REMARK VINA RESULT:      -7.8      7.095     11.010
REMARK  Name = NuBBE_1508
REMARK  7 active torsions:
REMARK  status: ('A' for Active; 'I' for Inactive)
REMARK    1  A    between atoms: O_1  and  C_2
REMARK    2  A    between atoms: O_1  and  C_5
REMARK    3  A    between atoms: C_2  and  C_4
REMARK    4  A    between atoms: C_16  and  C_19
REMARK    5  A    between atoms: C_29  and  O_31
REMARK    6  A    between atoms: O_31  and  C_32
REMARK    7  A    between atoms: C_32  and  C_34
REMARK                            x       y       z     vdW  Elec       q    Type
REMARK                         _______ _______ _______ _____ _____    ______ ____
ROOT
ATOM      1  C   LIG A   1      -7.788  -1.227 125.022  0.00  0.00    +0.253 C 
ATOM      2  C   LIG A   1      -6.896  -2.136 125.896  0.00  0.00    +0.092 C 
ATOM      3  C   LIG A   1      -7.319  -1.663 127.292  0.00  0.00    +0.006 C 
ATOM      4  C   LIG A   1      -8.848  -1.643 127.051  0.00  0.00    +0.172 C 
ATOM      5  O   LIG A   1      -9.078  -1.390 125.657  0.00  0.00    -0.336 OA
ATOM      6  C   LIG A   1      -6.975  -2.615 128.469  0.00  0.00    +0.001 C 
ATOM      7  C   LIG A   1      -5.451  -2.789 128.647  0.00  0.00    -0.003 C 
ATOM      8  C   LIG A   1      -5.098  -3.665 129.899  0.00  0.00    +0.006 C 
ATOM      9  C   LIG A   1      -5.897  -3.369 131.195  0.00  0.00    -0.022 C 
ATOM     10  C   LIG A   1      -7.382  -3.095 130.939  0.00  0.00    +0.007 C 
ATOM     11  C   LIG A   1      -7.669  -2.168 129.773  0.00  0.00    +0.005 C 
ATOM     12  C   LIG A   1      -5.837  -4.562 132.184  0.00  0.00    +0.012 C 
ATOM     13  C   LIG A   1      -5.135  -2.182 131.812  0.00  0.00    +0.081 C 
ATOM     14  C   LIG A   1      -3.709  -2.488 131.410  0.00  0.00    +0.134 C 
ATOM     15  O   LIG A   1      -2.730  -1.928 131.886  0.00  0.00    -0.297 OA
ATOM     16  C   LIG A   1      -3.630  -3.562 130.346  0.00  0.00    +0.078 C 
ATOM     17  C   LIG A   1      -4.670  -1.471 128.423  0.00  0.00    +0.004 C 
ATOM     18  C   LIG A   1      -5.503  -0.195 128.450  0.00  0.00    +0.004 C 
ATOM     19  C   LIG A   1      -6.741  -0.224 127.533  0.00  0.00    +0.002 C 
ATOM     20  C   LIG A   1      -6.376   0.509 126.223  0.00  0.00    +0.055 C 
ATOM     21  C   LIG A   1      -7.407   0.289 125.121  0.00  0.00    +0.248 C 
ENDROOT
BRANCH   1  22
ATOM     22  O   LIG A   1      -7.870  -1.704 123.673  0.00  0.00    -0.429 OA
BRANCH  22  23
ATOM     23  C   LIG A   1      -9.115  -1.899 123.168  0.00  0.00    +0.306 C 
ATOM     24  O   LIG A   1      -9.821  -1.037 122.662  0.00  0.00    -0.251 OA
ATOM     25  C   LIG A   1      -9.504  -3.339 123.268  0.00  0.00    +0.136 C 
ENDBRANCH  22  23
ENDBRANCH   1  22
BRANCH  21  26
ATOM     26  O   LIG A   1      -8.518   1.139 125.483  0.00  0.00    -0.455 OA
BRANCH  26  27
ATOM     27  C   LIG A   1      -8.588   2.332 124.833  0.00  0.00    +0.304 C 
ATOM     28  O   LIG A   1      -8.951   3.389 125.310  0.00  0.00    -0.251 OA
ATOM     29  C   LIG A   1      -8.338   2.094 123.373  0.00  0.00    +0.136 C 
ENDBRANCH  26  27
ENDBRANCH  21  26
TORSDOF 4
ENDMDL
MODEL 6
REMARK VINA RESULT:      -7.8      7.593     11.133
REMARK  Name = NuBBE_1508
REMARK  7 active torsions:
REMARK  status: ('A' for Active; 'I' for Inactive)
REMARK    1  A    between atoms: O_1  and  C_2
REMARK    2  A    between atoms: O_1  and  C_5
REMARK    3  A    between atoms: C_2  and  C_4
REMARK    4  A    between atoms: C_16  and  C_19
REMARK    5  A    between atoms: C_29  and  O_31
REMARK    6  A    between atoms: O_31  and  C_32
REMARK    7  A    between atoms: C_32  and  C_34
REMARK                            x       y       z     vdW  Elec       q    Type
REMARK                         _______ _______ _______ _____ _____    ______ ____
ROOT
ATOM      1  C   LIG A   1      -8.147  -1.956 126.338  0.00  0.00    +0.253 C 
ATOM      2  C   LIG A   1      -7.990  -2.716 127.675  0.00  0.00    +0.092 C 
ATOM      3  C   LIG A   1      -7.114  -1.722 128.445  0.00  0.00    +0.006 C 
ATOM      4  C   LIG A   1      -7.889  -0.433 128.078  0.00  0.00    +0.172 C 
ATOM      5  O   LIG A   1      -8.509  -0.632 126.800  0.00  0.00    -0.336 OA
ATOM      6  C   LIG A   1      -7.075  -1.900 129.988  0.00  0.00    +0.001 C 
ATOM      7  C   LIG A   1      -6.448  -3.250 130.398  0.00  0.00    -0.003 C 
ATOM      8  C   LIG A   1      -6.310  -3.390 131.954  0.00  0.00    +0.006 C 
ATOM      9  C   LIG A   1      -5.780  -2.145 132.713  0.00  0.00    -0.022 C 
ATOM     10  C   LIG A   1      -6.354  -0.827 132.185  0.00  0.00    +0.007 C 
ATOM     11  C   LIG A   1      -6.383  -0.703 130.674  0.00  0.00    +0.005 C 
ATOM     12  C   LIG A   1      -6.139  -2.204 134.221  0.00  0.00    +0.012 C 
ATOM     13  C   LIG A   1      -4.253  -2.270 132.567  0.00  0.00    +0.081 C 
ATOM     14  C   LIG A   1      -4.063  -3.771 132.588  0.00  0.00    +0.134 C 
ATOM     15  O   LIG A   1      -2.978  -4.320 132.732  0.00  0.00    -0.297 OA
ATOM     16  C   LIG A   1      -5.366  -4.518 132.404  0.00  0.00    +0.078 C 
ATOM     17  C   LIG A   1      -5.242  -3.644 129.511  0.00  0.00    +0.004 C 
ATOM     18  C   LIG A   1      -4.644  -2.521 128.672  0.00  0.00    +0.004 C 
ATOM     19  C   LIG A   1      -5.671  -1.738 127.830  0.00  0.00    +0.002 C 
ATOM     20  C   LIG A   1      -5.632  -2.303 126.393  0.00  0.00    +0.055 C 
ATOM     21  C   LIG A   1      -6.805  -1.824 125.544  0.00  0.00    +0.248 C 
ENDROOT
BRANCH   1  22
ATOM     22  O   LIG A   1      -9.223  -2.485 125.552  0.00  0.00    -0.429 OA
BRANCH  22  23
ATOM     23  C   LIG A   1      -8.900  -3.428 124.631  0.00  0.00    +0.306 C 
ATOM     24  O   LIG A   1      -8.207  -4.416 124.835  0.00  0.00    -0.251 OA
ATOM     25  C   LIG A   1      -9.550  -3.126 123.319  0.00  0.00    +0.136 C 
ENDBRANCH  22  23
ENDBRANCH   1  22
BRANCH  21  26
ATOM     26  O   LIG A   1      -6.473  -0.460 125.196  0.00  0.00    -0.455 OA
BRANCH  26  27
ATOM     27  C   LIG A   1      -6.852  -0.056 123.954  0.00  0.00    +0.304 C 
ATOM     28  O   LIG A   1      -7.495   0.939 123.689  0.00  0.00    -0.251 OA
ATOM     29  C   LIG A   1      -6.519  -1.145 122.977  0.00  0.00    +0.136 C 
ENDBRANCH  26  27
ENDBRANCH  21  26
TORSDOF 4
ENDMDL
MODEL 7
REMARK VINA RESULT:      -7.8      6.699      9.243
REMARK  Name = NuBBE_1508
REMARK  7 active torsions:
REMARK  status: ('A' for Active; 'I' for Inactive)
REMARK    1  A    between atoms: O_1  and  C_2
REMARK    2  A    between atoms: O_1  and  C_5
REMARK    3  A    between atoms: C_2  and  C_4
REMARK    4  A    between atoms: C_16  and  C_19
REMARK    5  A    between atoms: C_29  and  O_31
REMARK    6  A    between atoms: O_31  and  C_32
REMARK    7  A    between atoms: C_32  and  C_34
REMARK                            x       y       z     vdW  Elec       q    Type
REMARK                         _______ _______ _______ _____ _____    ______ ____
ROOT
ATOM      1  C   LIG A   1      -6.631  -2.741 130.463  0.00  0.00    +0.253 C 
ATOM      2  C   LIG A   1      -7.076  -3.206 129.058  0.00  0.00    +0.092 C 
ATOM      3  C   LIG A   1      -6.474  -2.084 128.204  0.00  0.00    +0.006 C 
ATOM      4  C   LIG A   1      -5.081  -2.032 128.880  0.00  0.00    +0.172 C 
ATOM      5  O   LIG A   1      -5.230  -2.454 130.242  0.00  0.00    -0.336 OA
ATOM      6  C   LIG A   1      -6.321  -2.388 126.688  0.00  0.00    +0.001 C 
ATOM      7  C   LIG A   1      -7.687  -2.603 126.001  0.00  0.00    -0.003 C 
ATOM      8  C   LIG A   1      -7.545  -2.806 124.452  0.00  0.00    +0.006 C 
ATOM      9  C   LIG A   1      -6.567  -1.849 123.720  0.00  0.00    -0.022 C 
ATOM     10  C   LIG A   1      -5.278  -1.587 124.504  0.00  0.00    +0.007 C 
ATOM     11  C   LIG A   1      -5.476  -1.306 125.982  0.00  0.00    +0.005 C 
ATOM     12  C   LIG A   1      -6.132  -2.425 122.346  0.00  0.00    +0.012 C 
ATOM     13  C   LIG A   1      -7.424  -0.593 123.476  0.00  0.00    +0.081 C 
ATOM     14  C   LIG A   1      -8.795  -1.193 123.255  0.00  0.00    +0.134 C 
ATOM     15  O   LIG A   1      -9.745  -0.572 122.796  0.00  0.00    -0.297 OA
ATOM     16  C   LIG A   1      -8.861  -2.646 123.673  0.00  0.00    +0.078 C 
ATOM     17  C   LIG A   1      -8.777  -1.637 126.523  0.00  0.00    +0.004 C 
ATOM     18  C   LIG A   1      -8.273  -0.428 127.302  0.00  0.00    +0.004 C 
ATOM     19  C   LIG A   1      -7.295  -0.770 128.444  0.00  0.00    +0.002 C 
ATOM     20  C   LIG A   1      -8.100  -0.791 129.763  0.00  0.00    +0.055 C 
ATOM     21  C   LIG A   1      -7.316  -1.409 130.917  0.00  0.00    +0.248 C 
ENDROOT
BRANCH   1  22
ATOM     22  O   LIG A   1      -6.744  -3.795 131.428  0.00  0.00    -0.429 OA
BRANCH  22  23
ATOM     23  C   LIG A   1      -5.783  -3.852 132.386  0.00  0.00    +0.306 C 
ATOM     24  O   LIG A   1      -5.607  -3.023 133.269  0.00  0.00    -0.251 OA
ATOM     25  C   LIG A   1      -4.979  -5.105 132.250  0.00  0.00    +0.136 C 
ENDBRANCH  22  23
ENDBRANCH   1  22
BRANCH  21  26
ATOM     26  O   LIG A   1      -6.376  -0.383 131.311  0.00  0.00    -0.455 OA
BRANCH  26  27
ATOM     27  C   LIG A   1      -6.729   0.359 132.395  0.00  0.00    +0.304 C 
ATOM     28  O   LIG A   1      -7.308  -0.044 133.383  0.00  0.00    -0.251 OA
ATOM     29  C   LIG A   1      -6.469   1.804 132.086  0.00  0.00    +0.136 C 
ENDBRANCH  26  27
ENDBRANCH  21  26
TORSDOF 4
ENDMDL
MODEL 8
REMARK VINA RESULT:      -7.8      6.502      8.750
REMARK  Name = NuBBE_1508
REMARK  7 active torsions:
REMARK  status: ('A' for Active; 'I' for Inactive)
REMARK    1  A    between atoms: O_1  and  C_2
REMARK    2  A    between atoms: O_1  and  C_5
REMARK    3  A    between atoms: C_2  and  C_4
REMARK    4  A    between atoms: C_16  and  C_19
REMARK    5  A    between atoms: C_29  and  O_31
REMARK    6  A    between atoms: O_31  and  C_32
REMARK    7  A    between atoms: C_32  and  C_34
REMARK                            x       y       z     vdW  Elec       q    Type
REMARK                         _______ _______ _______ _____ _____    ______ ____
ROOT
ATOM      1  C   LIG A   1      -6.615  -0.040 130.745  0.00  0.00    +0.253 C 
ATOM      2  C   LIG A   1      -7.005   0.122 129.259  0.00  0.00    +0.092 C 
ATOM      3  C   LIG A   1      -7.092  -1.351 128.844  0.00  0.00    +0.006 C 
ATOM      4  C   LIG A   1      -7.887  -1.866 130.068  0.00  0.00    +0.172 C 
ATOM      5  O   LIG A   1      -7.575  -1.028 131.189  0.00  0.00    -0.336 OA
ATOM      6  C   LIG A   1      -7.874  -1.646 127.535  0.00  0.00    +0.001 C 
ATOM      7  C   LIG A   1      -7.196  -1.014 126.300  0.00  0.00    -0.003 C 
ATOM      8  C   LIG A   1      -7.923  -1.397 124.964  0.00  0.00    +0.006 C 
ATOM      9  C   LIG A   1      -8.347  -2.882 124.812  0.00  0.00    -0.022 C 
ATOM     10  C   LIG A   1      -8.909  -3.484 126.103  0.00  0.00    +0.007 C 
ATOM     11  C   LIG A   1      -8.118  -3.160 127.357  0.00  0.00    +0.005 C 
ATOM     12  C   LIG A   1      -9.451  -3.049 123.736  0.00  0.00    +0.012 C 
ATOM     13  C   LIG A   1      -7.061  -3.562 124.307  0.00  0.00    +0.081 C 
ATOM     14  C   LIG A   1      -6.447  -2.470 123.458  0.00  0.00    +0.134 C 
ATOM     15  O   LIG A   1      -5.527  -2.653 122.673  0.00  0.00    -0.297 OA
ATOM     16  C   LIG A   1      -7.096  -1.124 123.697  0.00  0.00    +0.078 C 
ATOM     17  C   LIG A   1      -5.651  -1.108 126.354  0.00  0.00    +0.004 C 
ATOM     18  C   LIG A   1      -5.083  -2.100 127.362  0.00  0.00    +0.004 C 
ATOM     19  C   LIG A   1      -5.641  -1.947 128.790  0.00  0.00    +0.002 C 
ATOM     20  C   LIG A   1      -4.620  -1.128 129.611  0.00  0.00    +0.055 C 
ATOM     21  C   LIG A   1      -5.187  -0.651 130.944  0.00  0.00    +0.248 C 
ENDROOT
BRANCH   1  22
ATOM     22  O   LIG A   1      -6.821   1.172 131.481  0.00  0.00    -0.429 OA
BRANCH  22  23
ATOM     23  C   LIG A   1      -7.576   1.084 132.606  0.00  0.00    +0.306 C 
ATOM     24  O   LIG A   1      -7.203   0.636 133.682  0.00  0.00    -0.251 OA
ATOM     25  C   LIG A   1      -8.937   1.658 132.371  0.00  0.00    +0.136 C 
ENDBRANCH  22  23
ENDBRANCH   1  22
BRANCH  21  26
ATOM     26  O   LIG A   1      -5.177  -1.826 131.788  0.00  0.00    -0.455 OA
BRANCH  26  27
ATOM     27  C   LIG A   1      -3.953  -2.234 132.219  0.00  0.00    +0.304 C 
ATOM     28  O   LIG A   1      -3.463  -3.332 132.049  0.00  0.00    -0.251 OA
ATOM     29  C   LIG A   1      -3.387  -1.174 133.117  0.00  0.00    +0.136 C 
ENDBRANCH  26  27
ENDBRANCH  21  26
TORSDOF 4
ENDMDL
MODEL 9
REMARK VINA RESULT:      -7.4      7.235      8.695
REMARK  Name = NuBBE_1508
REMARK  7 active torsions:
REMARK  status: ('A' for Active; 'I' for Inactive)
REMARK    1  A    between atoms: O_1  and  C_2
REMARK    2  A    between atoms: O_1  and  C_5
REMARK    3  A    between atoms: C_2  and  C_4
REMARK    4  A    between atoms: C_16  and  C_19
REMARK    5  A    between atoms: C_29  and  O_31
REMARK    6  A    between atoms: O_31  and  C_32
REMARK    7  A    between atoms: C_32  and  C_34
REMARK                            x       y       z     vdW  Elec       q    Type
REMARK                         _______ _______ _______ _____ _____    ______ ____
ROOT
ATOM      1  C   LIG A   1      -5.471  -2.881 129.869  0.00  0.00    +0.253 C 
ATOM      2  C   LIG A   1      -5.393  -2.569 128.358  0.00  0.00    +0.092 C 
ATOM      3  C   LIG A   1      -6.534  -1.553 128.236  0.00  0.00    +0.006 C 
ATOM      4  C   LIG A   1      -6.190  -0.703 129.484  0.00  0.00    +0.172 C 
ATOM      5  O   LIG A   1      -5.533  -1.551 130.436  0.00  0.00    -0.336 OA
ATOM      6  C   LIG A   1      -6.523  -0.663 126.964  0.00  0.00    +0.001 C 
ATOM      7  C   LIG A   1      -6.708  -1.494 125.675  0.00  0.00    -0.003 C 
ATOM      8  C   LIG A   1      -6.802  -0.590 124.396  0.00  0.00    +0.006 C 
ATOM      9  C   LIG A   1      -7.691   0.676 124.513  0.00  0.00    -0.022 C 
ATOM     10  C   LIG A   1      -7.546   1.394 125.858  0.00  0.00    +0.007 C 
ATOM     11  C   LIG A   1      -7.551   0.484 127.072  0.00  0.00    +0.005 C 
ATOM     12  C   LIG A   1      -7.338   1.720 123.421  0.00  0.00    +0.012 C 
ATOM     13  C   LIG A   1      -9.106   0.137 124.236  0.00  0.00    +0.081 C 
ATOM     14  C   LIG A   1      -8.828  -0.959 123.230  0.00  0.00    +0.134 C 
ATOM     15  O   LIG A   1      -9.693  -1.503 122.558  0.00  0.00    -0.297 OA
ATOM     16  C   LIG A   1      -7.358  -1.311 123.156  0.00  0.00    +0.078 C 
ATOM     17  C   LIG A   1      -7.732  -2.642 125.847  0.00  0.00    +0.004 C 
ATOM     18  C   LIG A   1      -8.642  -2.541 127.064  0.00  0.00    +0.004 C 
ATOM     19  C   LIG A   1      -7.901  -2.307 128.395  0.00  0.00    +0.002 C 
ATOM     20  C   LIG A   1      -7.759  -3.673 129.103  0.00  0.00    +0.055 C 
ATOM     21  C   LIG A   1      -6.786  -3.627 130.277  0.00  0.00    +0.248 C 
ENDROOT
BRANCH   1  22
ATOM     22  O   LIG A   1      -4.282  -3.531 130.337  0.00  0.00    -0.429 OA
BRANCH  22  23
ATOM     23  C   LIG A   1      -3.112  -3.159 129.756  0.00  0.00    +0.306 C 
ATOM     24  O   LIG A   1      -2.456  -2.168 130.046  0.00  0.00    -0.251 OA
ATOM     25  C   LIG A   1      -2.696  -4.159 128.725  0.00  0.00    +0.136 C 
ENDBRANCH  22  23
ENDBRANCH   1  22
BRANCH  21  26
ATOM     26  O   LIG A   1      -7.518  -2.966 131.334  0.00  0.00    -0.455 OA
BRANCH  26  27
ATOM     27  C   LIG A   1      -7.135  -3.275 132.602  0.00  0.00    +0.304 C 
ATOM     28  O   LIG A   1      -6.409  -4.191 132.929  0.00  0.00    -0.251 OA
ATOM     29  C   LIG A   1      -7.919  -2.423 133.557  0.00  0.00    +0.136 C 
ENDBRANCH  26  27
ENDBRANCH  21  26
TORSDOF 4
ENDMDL
