MODEL 1
REMARK VINA RESULT:      -5.9      0.000      0.000
REMARK  Name = NuBBE_1952
REMARK  7 active torsions:
REMARK  status: ('A' for Active; 'I' for Inactive)
REMARK    1  A    between atoms: O_1  and  C_2
REMARK    2  A    between atoms: O_1  and  C_3
REMARK    3  A    between atoms: C_4  and  O_5
REMARK    4  A    between atoms: O_5  and  C_6
REMARK    5  A    between atoms: C_9  and  C_11
REMARK    6  A    between atoms: C_12  and  C_13
REMARK    7  A    between atoms: C_13  and  O_15
REMARK                            x       y       z     vdW  Elec       q    Type
REMARK                         _______ _______ _______ _____ _____    ______ ____
ROOT
ATOM      1  C   LIG A   1     -11.450   8.325 128.864  0.00  0.00    +0.162 A 
ATOM      2  C   LIG A   1     -12.557   8.860 129.538  0.00  0.00    +0.162 A 
ATOM      3  C   LIG A   1     -12.940   8.298 130.764  0.00  0.00    +0.050 A 
ATOM      4  C   LIG A   1     -12.210   7.252 131.341  0.00  0.00    +0.012 A 
ATOM      5  C   LIG A   1     -11.078   6.744 130.703  0.00  0.00    -0.021 A 
ATOM      6  C   LIG A   1     -10.730   7.272 129.453  0.00  0.00    +0.057 A 
ENDROOT
BRANCH   1   7
ATOM      7  O   LIG A   1     -10.919   8.692 127.654  0.00  0.00    -0.491 OA
ATOM      8  C   LIG A   1     -10.914   7.742 126.600  0.00  0.00    +0.277 C 
ENDBRANCH   1   7
BRANCH   2   9
ATOM      9  O   LIG A   1     -13.279   9.862 128.949  0.00  0.00    -0.491 OA
ATOM     10  C   LIG A   1     -13.561  10.997 129.761  0.00  0.00    +0.277 C 
ENDBRANCH   2   9
BRANCH   5  11
ATOM     11  C   LIG A   1     -10.316   5.653 131.327  0.00  0.00    +0.015 C 
ATOM     12  C   LIG A   1      -9.879   5.703 132.595  0.00  0.00    +0.092 C 
BRANCH  12  13
ATOM     13  C   LIG A   1      -9.115   4.577 133.165  0.00  0.00    +0.330 C 
ATOM     14  O   LIG A   1      -7.968   4.300 132.876  0.00  0.00    -0.246 OA
BRANCH  13  15
ATOM     15  O   LIG A   1      -9.844   3.882 134.064  0.00  0.00    -0.477 OA
ATOM     16  H   LIG A   1      -9.787   4.193 134.981  0.00  0.00    +0.295 HD
ENDBRANCH  13  15
ENDBRANCH  12  13
ENDBRANCH   5  11
TORSDOF 5
ENDMDL
MODEL 2
REMARK VINA RESULT:      -5.4     11.309     12.636
REMARK  Name = NuBBE_1952
REMARK  7 active torsions:
REMARK  status: ('A' for Active; 'I' for Inactive)
REMARK    1  A    between atoms: O_1  and  C_2
REMARK    2  A    between atoms: O_1  and  C_3
REMARK    3  A    between atoms: C_4  and  O_5
REMARK    4  A    between atoms: O_5  and  C_6
REMARK    5  A    between atoms: C_9  and  C_11
REMARK    6  A    between atoms: C_12  and  C_13
REMARK    7  A    between atoms: C_13  and  O_15
REMARK                            x       y       z     vdW  Elec       q    Type
REMARK                         _______ _______ _______ _____ _____    ______ ____
ROOT
ATOM      1  C   LIG A   1      -8.780  -1.986 124.955  0.00  0.00    +0.162 A 
ATOM      2  C   LIG A   1      -8.792  -0.661 124.498  0.00  0.00    +0.162 A 
ATOM      3  C   LIG A   1      -7.761  -0.227 123.653  0.00  0.00    +0.050 A 
ATOM      4  C   LIG A   1      -6.757  -1.105 123.225  0.00  0.00    +0.012 A 
ATOM      5  C   LIG A   1      -6.763  -2.438 123.635  0.00  0.00    -0.021 A 
ATOM      6  C   LIG A   1      -7.765  -2.854 124.521  0.00  0.00    +0.057 A 
ENDROOT
BRANCH   1   7
ATOM      7  O   LIG A   1      -9.660  -2.613 125.800  0.00  0.00    -0.491 OA
ATOM      8  C   LIG A   1      -9.139  -3.459 126.813  0.00  0.00    +0.277 C 
ENDBRANCH   1   7
BRANCH   2   9
ATOM      9  O   LIG A   1      -9.762   0.194 124.947  0.00  0.00    -0.491 OA
ATOM     10  C   LIG A   1      -9.385   1.079 125.997  0.00  0.00    +0.277 C 
ENDBRANCH   2   9
BRANCH   5  11
ATOM     11  C   LIG A   1      -5.709  -3.350 123.168  0.00  0.00    +0.015 C 
ATOM     12  C   LIG A   1      -4.803  -3.899 123.992  0.00  0.00    +0.092 C 
BRANCH  12  13
ATOM     13  C   LIG A   1      -3.766  -4.804 123.464  0.00  0.00    +0.330 C 
ATOM     14  O   LIG A   1      -2.569  -4.630 123.578  0.00  0.00    -0.246 OA
BRANCH  13  15
ATOM     15  O   LIG A   1      -4.304  -5.871 122.835  0.00  0.00    -0.477 OA
ATOM     16  H   LIG A   1      -5.054  -6.290 123.288  0.00  0.00    +0.295 HD
ENDBRANCH  13  15
ENDBRANCH  12  13
ENDBRANCH   5  11
TORSDOF 5
ENDMDL
MODEL 3
REMARK VINA RESULT:      -5.3      8.881     11.168
REMARK  Name = NuBBE_1952
REMARK  7 active torsions:
REMARK  status: ('A' for Active; 'I' for Inactive)
REMARK    1  A    between atoms: O_1  and  C_2
REMARK    2  A    between atoms: O_1  and  C_3
REMARK    3  A    between atoms: C_4  and  O_5
REMARK    4  A    between atoms: O_5  and  C_6
REMARK    5  A    between atoms: C_9  and  C_11
REMARK    6  A    between atoms: C_12  and  C_13
REMARK    7  A    between atoms: C_13  and  O_15
REMARK                            x       y       z     vdW  Elec       q    Type
REMARK                         _______ _______ _______ _____ _____    ______ ____
ROOT
ATOM      1  C   LIG A   1      -7.259   1.337 124.037  0.00  0.00    +0.162 A 
ATOM      2  C   LIG A   1      -8.645   1.128 123.999  0.00  0.00    +0.162 A 
ATOM      3  C   LIG A   1      -9.418   1.872 123.096  0.00  0.00    +0.050 A 
ATOM      4  C   LIG A   1      -8.822   2.776 122.208  0.00  0.00    +0.012 A 
ATOM      5  C   LIG A   1      -7.439   2.955 122.203  0.00  0.00    -0.021 A 
ATOM      6  C   LIG A   1      -6.677   2.250 123.142  0.00  0.00    +0.057 A 
ENDROOT
BRANCH   1   7
ATOM      7  O   LIG A   1      -6.322   0.750 124.848  0.00  0.00    -0.491 OA
ATOM      8  C   LIG A   1      -5.687   1.546 125.836  0.00  0.00    +0.277 C 
ENDBRANCH   1   7
BRANCH   2   9
ATOM      9  O   LIG A   1      -9.217   0.264 124.894  0.00  0.00    -0.491 OA
ATOM     10  C   LIG A   1      -9.373   0.746 126.224  0.00  0.00    +0.277 C 
ENDBRANCH   2   9
BRANCH   5  11
ATOM     11  C   LIG A   1      -6.829   3.900 121.256  0.00  0.00    +0.015 C 
ATOM     12  C   LIG A   1      -5.563   4.331 121.371  0.00  0.00    +0.092 C 
BRANCH  12  13
ATOM     13  C   LIG A   1      -5.007   5.282 120.391  0.00  0.00    +0.330 C 
ATOM     14  O   LIG A   1      -5.299   5.313 119.212  0.00  0.00    -0.246 OA
BRANCH  13  15
ATOM     15  O   LIG A   1      -4.128   6.133 120.961  0.00  0.00    -0.477 OA
ATOM     16  H   LIG A   1      -4.487   6.700 121.662  0.00  0.00    +0.295 HD
ENDBRANCH  13  15
ENDBRANCH  12  13
ENDBRANCH   5  11
TORSDOF 5
ENDMDL
MODEL 4
REMARK VINA RESULT:      -5.2      9.443     11.339
REMARK  Name = NuBBE_1952
REMARK  7 active torsions:
REMARK  status: ('A' for Active; 'I' for Inactive)
REMARK    1  A    between atoms: O_1  and  C_2
REMARK    2  A    between atoms: O_1  and  C_3
REMARK    3  A    between atoms: C_4  and  O_5
REMARK    4  A    between atoms: O_5  and  C_6
REMARK    5  A    between atoms: C_9  and  C_11
REMARK    6  A    between atoms: C_12  and  C_13
REMARK    7  A    between atoms: C_13  and  O_15
REMARK                            x       y       z     vdW  Elec       q    Type
REMARK                         _______ _______ _______ _____ _____    ______ ____
ROOT
ATOM      1  C   LIG A   1      -7.658   1.208 123.699  0.00  0.00    +0.162 A 
ATOM      2  C   LIG A   1      -7.164   1.099 125.006  0.00  0.00    +0.162 A 
ATOM      3  C   LIG A   1      -6.193   2.012 125.442  0.00  0.00    +0.050 A 
ATOM      4  C   LIG A   1      -5.751   3.049 124.612  0.00  0.00    +0.012 A 
ATOM      5  C   LIG A   1      -6.271   3.197 123.326  0.00  0.00    -0.021 A 
ATOM      6  C   LIG A   1      -7.201   2.251 122.877  0.00  0.00    +0.057 A 
ENDROOT
BRANCH   1   7
ATOM      7  O   LIG A   1      -8.578   0.419 123.058  0.00  0.00    -0.491 OA
ATOM      8  C   LIG A   1      -9.895   0.917 122.886  0.00  0.00    +0.277 C 
ENDBRANCH   1   7
BRANCH   2   9
ATOM      9  O   LIG A   1      -7.583   0.063 125.796  0.00  0.00    -0.491 OA
ATOM     10  C   LIG A   1      -6.828  -1.141 125.710  0.00  0.00    +0.277 C 
ENDBRANCH   2   9
BRANCH   5  11
ATOM     11  C   LIG A   1      -5.804   4.298 122.472  0.00  0.00    +0.015 C 
ATOM     12  C   LIG A   1      -5.444   4.123 121.191  0.00  0.00    +0.092 C 
BRANCH  12  13
ATOM     13  C   LIG A   1      -4.980   5.267 120.383  0.00  0.00    +0.330 C 
ATOM     14  O   LIG A   1      -5.308   5.482 119.234  0.00  0.00    -0.246 OA
BRANCH  13  15
ATOM     15  O   LIG A   1      -4.143   6.065 121.079  0.00  0.00    -0.477 OA
ATOM     16  H   LIG A   1      -3.457   6.511 120.557  0.00  0.00    +0.295 HD
ENDBRANCH  13  15
ENDBRANCH  12  13
ENDBRANCH   5  11
TORSDOF 5
ENDMDL
MODEL 5
REMARK VINA RESULT:      -5.2      1.831      6.452
REMARK  Name = NuBBE_1952
REMARK  7 active torsions:
REMARK  status: ('A' for Active; 'I' for Inactive)
REMARK    1  A    between atoms: O_1  and  C_2
REMARK    2  A    between atoms: O_1  and  C_3
REMARK    3  A    between atoms: C_4  and  O_5
REMARK    4  A    between atoms: O_5  and  C_6
REMARK    5  A    between atoms: C_9  and  C_11
REMARK    6  A    between atoms: C_12  and  C_13
REMARK    7  A    between atoms: C_13  and  O_15
REMARK                            x       y       z     vdW  Elec       q    Type
REMARK                         _______ _______ _______ _____ _____    ______ ____
ROOT
ATOM      1  C   LIG A   1      -8.968   5.578 132.650  0.00  0.00    +0.162 A 
ATOM      2  C   LIG A   1      -7.760   6.094 132.161  0.00  0.00    +0.162 A 
ATOM      3  C   LIG A   1      -7.782   6.903 131.016  0.00  0.00    +0.050 A 
ATOM      4  C   LIG A   1      -8.989   7.238 130.390  0.00  0.00    +0.012 A 
ATOM      5  C   LIG A   1     -10.201   6.770 130.896  0.00  0.00    -0.021 A 
ATOM      6  C   LIG A   1     -10.170   5.919 132.008  0.00  0.00    +0.057 A 
ENDROOT
BRANCH   1   7
ATOM      7  O   LIG A   1      -9.180   4.752 133.724  0.00  0.00    -0.491 OA
ATOM      8  C   LIG A   1      -9.134   3.349 133.519  0.00  0.00    +0.277 C 
ENDBRANCH   1   7
BRANCH   2   9
ATOM      9  O   LIG A   1      -6.585   5.734 132.765  0.00  0.00    -0.491 OA
ATOM     10  C   LIG A   1      -5.390   6.208 132.153  0.00  0.00    +0.277 C 
ENDBRANCH   2   9
BRANCH   5  11
ATOM     11  C   LIG A   1     -11.460   7.140 130.234  0.00  0.00    +0.015 C 
ATOM     12  C   LIG A   1     -11.571   8.203 129.421  0.00  0.00    +0.092 C 
BRANCH  12  13
ATOM     13  C   LIG A   1     -12.863   8.526 128.787  0.00  0.00    +0.330 C 
ATOM     14  O   LIG A   1     -13.682   7.705 128.426  0.00  0.00    -0.246 OA
BRANCH  13  15
ATOM     15  O   LIG A   1     -13.038   9.858 128.657  0.00  0.00    -0.477 OA
ATOM     16  H   LIG A   1     -13.319  10.325 129.460  0.00  0.00    +0.295 HD
ENDBRANCH  13  15
ENDBRANCH  12  13
ENDBRANCH   5  11
TORSDOF 5
ENDMDL
MODEL 6
REMARK VINA RESULT:      -5.2     10.921     12.638
REMARK  Name = NuBBE_1952
REMARK  7 active torsions:
REMARK  status: ('A' for Active; 'I' for Inactive)
REMARK    1  A    between atoms: O_1  and  C_2
REMARK    2  A    between atoms: O_1  and  C_3
REMARK    3  A    between atoms: C_4  and  O_5
REMARK    4  A    between atoms: O_5  and  C_6
REMARK    5  A    between atoms: C_9  and  C_11
REMARK    6  A    between atoms: C_12  and  C_13
REMARK    7  A    between atoms: C_13  and  O_15
REMARK                            x       y       z     vdW  Elec       q    Type
REMARK                         _______ _______ _______ _____ _____    ______ ____
ROOT
ATOM      1  C   LIG A   1      -6.117  -2.528 128.722  0.00  0.00    +0.162 A 
ATOM      2  C   LIG A   1      -6.840  -3.309 129.635  0.00  0.00    +0.162 A 
ATOM      3  C   LIG A   1      -8.120  -3.757 129.278  0.00  0.00    +0.050 A 
ATOM      4  C   LIG A   1      -8.658  -3.478 128.015  0.00  0.00    +0.012 A 
ATOM      5  C   LIG A   1      -7.928  -2.744 127.081  0.00  0.00    -0.021 A 
ATOM      6  C   LIG A   1      -6.672  -2.253 127.462  0.00  0.00    +0.057 A 
ENDROOT
BRANCH   1   7
ATOM      7  O   LIG A   1      -4.875  -1.964 128.866  0.00  0.00    -0.491 OA
ATOM      8  C   LIG A   1      -4.770  -0.722 129.543  0.00  0.00    +0.277 C 
ENDBRANCH   1   7
BRANCH   2   9
ATOM      9  O   LIG A   1      -6.314  -3.549 130.875  0.00  0.00    -0.491 OA
ATOM     10  C   LIG A   1      -5.502  -4.711 131.002  0.00  0.00    +0.277 C 
ENDBRANCH   2   9
BRANCH   5  11
ATOM     11  C   LIG A   1      -8.503  -2.469 125.757  0.00  0.00    +0.015 C 
ATOM     12  C   LIG A   1      -8.432  -3.339 124.737  0.00  0.00    +0.092 C 
BRANCH  12  13
ATOM     13  C   LIG A   1      -9.026  -3.006 123.430  0.00  0.00    +0.330 C 
ATOM     14  O   LIG A   1      -8.488  -2.332 122.575  0.00  0.00    -0.246 OA
BRANCH  13  15
ATOM     15  O   LIG A   1     -10.254  -3.549 123.284  0.00  0.00    -0.477 OA
ATOM     16  H   LIG A   1     -10.501  -4.213 123.947  0.00  0.00    +0.295 HD
ENDBRANCH  13  15
ENDBRANCH  12  13
ENDBRANCH   5  11
TORSDOF 5
ENDMDL
MODEL 7
REMARK VINA RESULT:      -5.1      9.246     10.907
REMARK  Name = NuBBE_1952
REMARK  7 active torsions:
REMARK  status: ('A' for Active; 'I' for Inactive)
REMARK    1  A    between atoms: O_1  and  C_2
REMARK    2  A    between atoms: O_1  and  C_3
REMARK    3  A    between atoms: C_4  and  O_5
REMARK    4  A    between atoms: O_5  and  C_6
REMARK    5  A    between atoms: C_9  and  C_11
REMARK    6  A    between atoms: C_12  and  C_13
REMARK    7  A    between atoms: C_13  and  O_15
REMARK                            x       y       z     vdW  Elec       q    Type
REMARK                         _______ _______ _______ _____ _____    ______ ____
ROOT
ATOM      1  C   LIG A   1      -8.257  -1.266 126.542  0.00  0.00    +0.162 A 
ATOM      2  C   LIG A   1      -9.055  -2.161 125.815  0.00  0.00    +0.162 A 
ATOM      3  C   LIG A   1      -9.316  -3.428 126.355  0.00  0.00    +0.050 A 
ATOM      4  C   LIG A   1      -8.835  -3.790 127.620  0.00  0.00    +0.012 A 
ATOM      5  C   LIG A   1      -8.081  -2.890 128.373  0.00  0.00    -0.021 A 
ATOM      6  C   LIG A   1      -7.778  -1.645 127.808  0.00  0.00    +0.057 A 
ENDROOT
BRANCH   1   7
ATOM      7  O   LIG A   1      -7.853  -0.001 126.202  0.00  0.00    -0.491 OA
ATOM      8  C   LIG A   1      -8.675   1.095 126.570  0.00  0.00    +0.277 C 
ENDBRANCH   1   7
BRANCH   2   9
ATOM      9  O   LIG A   1      -9.493  -1.806 124.568  0.00  0.00    -0.491 OA
ATOM     10  C   LIG A   1      -9.167  -2.698 123.508  0.00  0.00    +0.277 C 
ENDBRANCH   2   9
BRANCH   5  11
ATOM     11  C   LIG A   1      -7.594  -3.280 129.703  0.00  0.00    +0.015 C 
ATOM     12  C   LIG A   1      -6.340  -3.705 129.924  0.00  0.00    +0.092 C 
BRANCH  12  13
ATOM     13  C   LIG A   1      -5.909  -4.087 131.282  0.00  0.00    +0.330 C 
ATOM     14  O   LIG A   1      -5.928  -3.350 132.248  0.00  0.00    -0.246 OA
BRANCH  13  15
ATOM     15  O   LIG A   1      -5.491  -5.369 131.333  0.00  0.00    -0.477 OA
ATOM     16  H   LIG A   1      -6.091  -6.022 130.939  0.00  0.00    +0.295 HD
ENDBRANCH  13  15
ENDBRANCH  12  13
ENDBRANCH   5  11
TORSDOF 5
ENDMDL
MODEL 8
REMARK VINA RESULT:      -5.1      2.103      6.010
REMARK  Name = NuBBE_1952
REMARK  7 active torsions:
REMARK  status: ('A' for Active; 'I' for Inactive)
REMARK    1  A    between atoms: O_1  and  C_2
REMARK    2  A    between atoms: O_1  and  C_3
REMARK    3  A    between atoms: C_4  and  O_5
REMARK    4  A    between atoms: O_5  and  C_6
REMARK    5  A    between atoms: C_9  and  C_11
REMARK    6  A    between atoms: C_12  and  C_13
REMARK    7  A    between atoms: C_13  and  O_15
REMARK                            x       y       z     vdW  Elec       q    Type
REMARK                         _______ _______ _______ _____ _____    ______ ____
ROOT
ATOM      1  C   LIG A   1      -8.912   5.808 130.204  0.00  0.00    +0.162 A 
ATOM      2  C   LIG A   1      -9.355   4.485 130.335  0.00  0.00    +0.162 A 
ATOM      3  C   LIG A   1     -10.729   4.241 130.469  0.00  0.00    +0.050 A 
ATOM      4  C   LIG A   1     -11.658   5.288 130.426  0.00  0.00    +0.012 A 
ATOM      5  C   LIG A   1     -11.232   6.604 130.248  0.00  0.00    -0.021 A 
ATOM      6  C   LIG A   1      -9.855   6.848 130.167  0.00  0.00    +0.057 A 
ENDROOT
BRANCH   1   7
ATOM      7  O   LIG A   1      -7.629   6.279 130.089  0.00  0.00    -0.491 OA
ATOM      8  C   LIG A   1      -7.048   6.942 131.201  0.00  0.00    +0.277 C 
ENDBRANCH   1   7
BRANCH   2   9
ATOM      9  O   LIG A   1      -8.435   3.474 130.405  0.00  0.00    -0.491 OA
ATOM     10  C   LIG A   1      -7.970   3.133 131.707  0.00  0.00    +0.277 C 
ENDBRANCH   2   9
BRANCH   5  11
ATOM     11  C   LIG A   1     -12.220   7.690 130.194  0.00  0.00    +0.015 C 
ATOM     12  C   LIG A   1     -12.124   8.721 129.340  0.00  0.00    +0.092 C 
BRANCH  12  13
ATOM     13  C   LIG A   1     -13.146   9.784 129.335  0.00  0.00    +0.330 C 
ATOM     14  O   LIG A   1     -13.859  10.056 128.390  0.00  0.00    -0.246 OA
BRANCH  13  15
ATOM     15  O   LIG A   1     -13.206  10.428 130.520  0.00  0.00    -0.477 OA
ATOM     16  H   LIG A   1     -13.956  11.034 130.631  0.00  0.00    +0.295 HD
ENDBRANCH  13  15
ENDBRANCH  12  13
ENDBRANCH   5  11
TORSDOF 5
ENDMDL
MODEL 9
REMARK VINA RESULT:      -5.1      2.317      6.273
REMARK  Name = NuBBE_1952
REMARK  7 active torsions:
REMARK  status: ('A' for Active; 'I' for Inactive)
REMARK    1  A    between atoms: O_1  and  C_2
REMARK    2  A    between atoms: O_1  and  C_3
REMARK    3  A    between atoms: C_4  and  O_5
REMARK    4  A    between atoms: O_5  and  C_6
REMARK    5  A    between atoms: C_9  and  C_11
REMARK    6  A    between atoms: C_12  and  C_13
REMARK    7  A    between atoms: C_13  and  O_15
REMARK                            x       y       z     vdW  Elec       q    Type
REMARK                         _______ _______ _______ _____ _____    ______ ____
ROOT
ATOM      1  C   LIG A   1      -7.260   6.261 132.100  0.00  0.00    +0.162 A 
ATOM      2  C   LIG A   1      -7.960   5.675 133.165  0.00  0.00    +0.162 A 
ATOM      3  C   LIG A   1      -9.362   5.681 133.138  0.00  0.00    +0.050 A 
ATOM      4  C   LIG A   1     -10.063   6.216 132.051  0.00  0.00    +0.012 A 
ATOM      5  C   LIG A   1      -9.376   6.758 130.964  0.00  0.00    -0.021 A 
ATOM      6  C   LIG A   1      -7.977   6.797 131.019  0.00  0.00    +0.057 A 
ENDROOT
BRANCH   1   7
ATOM      7  O   LIG A   1      -5.906   6.393 131.930  0.00  0.00    -0.491 OA
ATOM      8  C   LIG A   1      -5.431   7.072 130.779  0.00  0.00    +0.277 C 
ENDBRANCH   1   7
BRANCH   2   9
ATOM      9  O   LIG A   1      -7.263   5.182 134.234  0.00  0.00    -0.491 OA
ATOM     10  C   LIG A   1      -7.650   5.665 135.516  0.00  0.00    +0.277 C 
ENDBRANCH   2   9
BRANCH   5  11
ATOM     11  C   LIG A   1     -10.127   7.305 129.826  0.00  0.00    +0.015 C 
ATOM     12  C   LIG A   1     -10.064   6.782 128.591  0.00  0.00    +0.092 C 
BRANCH  12  13
ATOM     13  C   LIG A   1     -10.839   7.378 127.487  0.00  0.00    +0.330 C 
ATOM     14  O   LIG A   1     -11.491   6.748 126.680  0.00  0.00    -0.246 OA
BRANCH  13  15
ATOM     15  O   LIG A   1     -10.745   8.725 127.479  0.00  0.00    -0.477 OA
ATOM     16  H   LIG A   1     -11.298   9.188 128.128  0.00  0.00    +0.295 HD
ENDBRANCH  13  15
ENDBRANCH  12  13
ENDBRANCH   5  11
TORSDOF 5
ENDMDL
