MODEL 1
REMARK VINA RESULT:      -6.8      0.000      0.000
REMARK  Name = NuBBE_2209
REMARK  6 active torsions:
REMARK  status: ('A' for Active; 'I' for Inactive)
REMARK    1  A    between atoms: C_1  and  C_3
REMARK    2  A    between atoms: C_1  and  C_7
REMARK    3  A    between atoms: C_4  and  C_5
REMARK    4  A    between atoms: C_4  and  C_6
REMARK    5  A    between atoms: C_9  and  C_10
REMARK    6  A    between atoms: C_14  and  O_15
REMARK                            x       y       z     vdW  Elec       q    Type
REMARK                         _______ _______ _______ _____ _____    ______ ____
ROOT
ATOM      1  C   LIG A   1      -7.986  -2.502 124.786  0.00  0.00    +0.064 A 
ATOM      2  C   LIG A   1      -6.757  -3.184 124.703  0.00  0.00    +0.023 A 
ATOM      3  C   LIG A   1      -5.832  -2.898 123.691  0.00  0.00    -0.025 A 
ATOM      4  C   LIG A   1      -6.138  -1.889 122.771  0.00  0.00    +0.011 A 
ATOM      5  C   LIG A   1      -7.363  -1.221 122.822  0.00  0.00    +0.046 A 
ATOM      6  C   LIG A   1      -8.292  -1.535 123.816  0.00  0.00    +0.128 A 
ENDROOT
BRANCH   1   7
ATOM      7  C   LIG A   1      -8.905  -2.892 125.891  0.00  0.00    +0.190 C 
ATOM      8  O   LIG A   1     -10.119  -2.828 125.704  0.00  0.00    -0.287 OA
BRANCH   7   9
ATOM      9  C   LIG A   1      -8.323  -3.457 127.142  0.00  0.00    +0.050 C 
ATOM     10  C   LIG A   1      -7.827  -2.765 128.193  0.00  0.00    -0.072 C 
ATOM     11  C   LIG A   1      -7.706  -1.269 128.296  0.00  0.00    +0.039 C 
ATOM     12  C   LIG A   1      -7.311  -3.501 129.401  0.00  0.00    +0.039 C 
ENDBRANCH   7   9
ENDBRANCH   1   7
BRANCH   3  13
ATOM     13  C   LIG A   1      -4.553  -3.622 123.646  0.00  0.00    +0.000 C 
ATOM     14  C   LIG A   1      -4.443  -4.956 123.580  0.00  0.00    +0.009 C 
ENDBRANCH   3  13
BRANCH   6  15
ATOM     15  O   LIG A   1      -9.502  -0.903 123.801  0.00  0.00    -0.506 OA
ATOM     16  H   LIG A   1     -10.006  -1.160 124.593  0.00  0.00    +0.292 HD
ENDBRANCH   6  15
TORSDOF 4
ENDMDL
MODEL 2
REMARK VINA RESULT:      -6.3     10.091     11.990
REMARK  Name = NuBBE_2209
REMARK  6 active torsions:
REMARK  status: ('A' for Active; 'I' for Inactive)
REMARK    1  A    between atoms: C_1  and  C_3
REMARK    2  A    between atoms: C_1  and  C_7
REMARK    3  A    between atoms: C_4  and  C_5
REMARK    4  A    between atoms: C_4  and  C_6
REMARK    5  A    between atoms: C_9  and  C_10
REMARK    6  A    between atoms: C_14  and  O_15
REMARK                            x       y       z     vdW  Elec       q    Type
REMARK                         _______ _______ _______ _____ _____    ______ ____
ROOT
ATOM      1  C   LIG A   1     -10.683   6.929 128.857  0.00  0.00    +0.064 A 
ATOM      2  C   LIG A   1     -11.355   7.696 129.829  0.00  0.00    +0.023 A 
ATOM      3  C   LIG A   1     -12.329   8.636 129.470  0.00  0.00    -0.025 A 
ATOM      4  C   LIG A   1     -12.652   8.780 128.116  0.00  0.00    +0.011 A 
ATOM      5  C   LIG A   1     -11.977   8.049 127.137  0.00  0.00    +0.046 A 
ATOM      6  C   LIG A   1     -10.986   7.136 127.502  0.00  0.00    +0.128 A 
ENDROOT
BRANCH   1   7
ATOM      7  C   LIG A   1      -9.655   5.968 129.343  0.00  0.00    +0.190 C 
ATOM      8  O   LIG A   1      -8.892   5.453 128.528  0.00  0.00    -0.287 OA
BRANCH   7   9
ATOM      9  C   LIG A   1      -9.509   5.755 130.811  0.00  0.00    +0.050 C 
ATOM     10  C   LIG A   1      -8.499   6.189 131.599  0.00  0.00    -0.072 C 
ATOM     11  C   LIG A   1      -7.275   6.936 131.145  0.00  0.00    +0.039 C 
ATOM     12  C   LIG A   1      -8.532   5.917 133.080  0.00  0.00    +0.039 C 
ENDBRANCH   7   9
ENDBRANCH   1   7
BRANCH   3  13
ATOM     13  C   LIG A   1     -13.019   9.406 130.515  0.00  0.00    +0.000 C 
ATOM     14  C   LIG A   1     -13.319  10.709 130.419  0.00  0.00    +0.009 C 
ENDBRANCH   3  13
BRANCH   6  15
ATOM     15  O   LIG A   1     -10.308   6.480 126.516  0.00  0.00    -0.506 OA
ATOM     16  H   LIG A   1     -10.458   6.935 125.669  0.00  0.00    +0.292 HD
ENDBRANCH   6  15
TORSDOF 4
ENDMDL
MODEL 3
REMARK VINA RESULT:      -6.2      2.312      4.367
REMARK  Name = NuBBE_2209
REMARK  6 active torsions:
REMARK  status: ('A' for Active; 'I' for Inactive)
REMARK    1  A    between atoms: C_1  and  C_3
REMARK    2  A    between atoms: C_1  and  C_7
REMARK    3  A    between atoms: C_4  and  C_5
REMARK    4  A    between atoms: C_4  and  C_6
REMARK    5  A    between atoms: C_9  and  C_10
REMARK    6  A    between atoms: C_14  and  O_15
REMARK                            x       y       z     vdW  Elec       q    Type
REMARK                         _______ _______ _______ _____ _____    ______ ____
ROOT
ATOM      1  C   LIG A   1      -7.404  -0.977 124.752  0.00  0.00    +0.064 A 
ATOM      2  C   LIG A   1      -6.182  -1.482 124.268  0.00  0.00    +0.023 A 
ATOM      3  C   LIG A   1      -5.998  -2.852 124.042  0.00  0.00    -0.025 A 
ATOM      4  C   LIG A   1      -7.071  -3.719 124.277  0.00  0.00    +0.011 A 
ATOM      5  C   LIG A   1      -8.281  -3.239 124.783  0.00  0.00    +0.046 A 
ATOM      6  C   LIG A   1      -8.444  -1.876 125.034  0.00  0.00    +0.128 A 
ENDROOT
BRANCH   1   7
ATOM      7  C   LIG A   1      -7.491   0.493 124.973  0.00  0.00    +0.190 C 
ATOM      8  O   LIG A   1      -8.005   0.908 126.010  0.00  0.00    -0.287 OA
BRANCH   7   9
ATOM      9  C   LIG A   1      -6.846   1.405 123.985  0.00  0.00    +0.050 C 
ATOM     10  C   LIG A   1      -7.470   2.206 123.091  0.00  0.00    -0.072 C 
ATOM     11  C   LIG A   1      -8.954   2.302 122.866  0.00  0.00    +0.039 C 
ATOM     12  C   LIG A   1      -6.659   3.100 122.189  0.00  0.00    +0.039 C 
ENDBRANCH   7   9
ENDBRANCH   1   7
BRANCH   3  13
ATOM     13  C   LIG A   1      -4.712  -3.339 123.521  0.00  0.00    +0.000 C 
ATOM     14  C   LIG A   1      -4.311  -4.617 123.574  0.00  0.00    +0.009 C 
ENDBRANCH   3  13
BRANCH   6  15
ATOM     15  O   LIG A   1      -9.620  -1.450 125.583  0.00  0.00    -0.506 OA
ATOM     16  H   LIG A   1      -9.610  -1.632 126.539  0.00  0.00    +0.292 HD
ENDBRANCH   6  15
TORSDOF 4
ENDMDL
MODEL 4
REMARK VINA RESULT:      -6.2      3.080      5.557
REMARK  Name = NuBBE_2209
REMARK  6 active torsions:
REMARK  status: ('A' for Active; 'I' for Inactive)
REMARK    1  A    between atoms: C_1  and  C_3
REMARK    2  A    between atoms: C_1  and  C_7
REMARK    3  A    between atoms: C_4  and  C_5
REMARK    4  A    between atoms: C_4  and  C_6
REMARK    5  A    between atoms: C_9  and  C_10
REMARK    6  A    between atoms: C_14  and  O_15
REMARK                            x       y       z     vdW  Elec       q    Type
REMARK                         _______ _______ _______ _____ _____    ______ ____
ROOT
ATOM      1  C   LIG A   1      -8.227   0.374 123.213  0.00  0.00    +0.064 A 
ATOM      2  C   LIG A   1      -7.035  -0.237 123.646  0.00  0.00    +0.023 A 
ATOM      3  C   LIG A   1      -6.906  -1.632 123.691  0.00  0.00    -0.025 A 
ATOM      4  C   LIG A   1      -7.982  -2.417 123.265  0.00  0.00    +0.011 A 
ATOM      5  C   LIG A   1      -9.181  -1.828 122.859  0.00  0.00    +0.046 A 
ATOM      6  C   LIG A   1      -9.311  -0.438 122.846  0.00  0.00    +0.128 A 
ENDROOT
BRANCH   1   7
ATOM      7  C   LIG A   1      -8.266   1.863 123.215  0.00  0.00    +0.190 C 
ATOM      8  O   LIG A   1      -9.164   2.432 123.833  0.00  0.00    -0.287 OA
BRANCH   7   9
ATOM      9  C   LIG A   1      -7.150   2.610 122.569  0.00  0.00    +0.050 C 
ATOM     10  C   LIG A   1      -7.241   3.462 121.522  0.00  0.00    -0.072 C 
ATOM     11  C   LIG A   1      -8.489   3.792 120.750  0.00  0.00    +0.039 C 
ATOM     12  C   LIG A   1      -6.009   4.168 121.018  0.00  0.00    +0.039 C 
ENDBRANCH   7   9
ENDBRANCH   1   7
BRANCH   3  13
ATOM     13  C   LIG A   1      -5.639  -2.232 124.135  0.00  0.00    +0.000 C 
ATOM     14  C   LIG A   1      -5.096  -3.333 123.597  0.00  0.00    +0.009 C 
ENDBRANCH   3  13
BRANCH   6  15
ATOM     15  O   LIG A   1     -10.516   0.101 122.498  0.00  0.00    -0.506 OA
ATOM     16  H   LIG A   1     -11.187  -0.174 123.146  0.00  0.00    +0.292 HD
ENDBRANCH   6  15
TORSDOF 4
ENDMDL
MODEL 5
REMARK VINA RESULT:      -6.0      8.958     11.263
REMARK  Name = NuBBE_2209
REMARK  6 active torsions:
REMARK  status: ('A' for Active; 'I' for Inactive)
REMARK    1  A    between atoms: C_1  and  C_3
REMARK    2  A    between atoms: C_1  and  C_7
REMARK    3  A    between atoms: C_4  and  C_5
REMARK    4  A    between atoms: C_4  and  C_6
REMARK    5  A    between atoms: C_9  and  C_10
REMARK    6  A    between atoms: C_14  and  O_15
REMARK                            x       y       z     vdW  Elec       q    Type
REMARK                         _______ _______ _______ _____ _____    ______ ____
ROOT
ATOM      1  C   LIG A   1     -10.415   6.670 130.766  0.00  0.00    +0.064 A 
ATOM      2  C   LIG A   1     -10.182   7.225 129.493  0.00  0.00    +0.023 A 
ATOM      3  C   LIG A   1     -11.222   7.790 128.743  0.00  0.00    -0.025 A 
ATOM      4  C   LIG A   1     -12.506   7.823 129.298  0.00  0.00    +0.011 A 
ATOM      5  C   LIG A   1     -12.760   7.253 130.547  0.00  0.00    +0.046 A 
ATOM      6  C   LIG A   1     -11.724   6.666 131.274  0.00  0.00    +0.128 A 
ENDROOT
BRANCH   1   7
ATOM      7  C   LIG A   1      -9.246   6.082 131.475  0.00  0.00    +0.190 C 
ATOM      8  O   LIG A   1      -9.058   6.374 132.655  0.00  0.00    -0.287 OA
BRANCH   7   9
ATOM      9  C   LIG A   1      -8.411   5.070 130.765  0.00  0.00    +0.050 C 
ATOM     10  C   LIG A   1      -8.749   3.791 130.485  0.00  0.00    -0.072 C 
ATOM     11  C   LIG A   1     -10.024   3.100 130.883  0.00  0.00    +0.039 C 
ATOM     12  C   LIG A   1      -7.794   2.913 129.720  0.00  0.00    +0.039 C 
ENDBRANCH   7   9
ENDBRANCH   1   7
BRANCH   3  13
ATOM     13  C   LIG A   1     -10.935   8.372 127.424  0.00  0.00    +0.000 C 
ATOM     14  C   LIG A   1     -10.999   7.695 126.269  0.00  0.00    +0.009 C 
ENDBRANCH   3  13
BRANCH   6  15
ATOM     15  O   LIG A   1     -12.020   6.068 132.465  0.00  0.00    -0.506 OA
ATOM     16  H   LIG A   1     -12.342   6.742 133.089  0.00  0.00    +0.292 HD
ENDBRANCH   6  15
TORSDOF 4
ENDMDL
MODEL 6
REMARK VINA RESULT:      -5.9      2.858      4.789
REMARK  Name = NuBBE_2209
REMARK  6 active torsions:
REMARK  status: ('A' for Active; 'I' for Inactive)
REMARK    1  A    between atoms: C_1  and  C_3
REMARK    2  A    between atoms: C_1  and  C_7
REMARK    3  A    between atoms: C_4  and  C_5
REMARK    4  A    between atoms: C_4  and  C_6
REMARK    5  A    between atoms: C_9  and  C_10
REMARK    6  A    between atoms: C_14  and  O_15
REMARK                            x       y       z     vdW  Elec       q    Type
REMARK                         _______ _______ _______ _____ _____    ______ ____
ROOT
ATOM      1  C   LIG A   1      -8.421   0.063 123.461  0.00  0.00    +0.064 A 
ATOM      2  C   LIG A   1      -7.316   0.883 123.759  0.00  0.00    +0.023 A 
ATOM      3  C   LIG A   1      -7.336   2.258 123.492  0.00  0.00    -0.025 A 
ATOM      4  C   LIG A   1      -8.497   2.816 122.946  0.00  0.00    +0.011 A 
ATOM      5  C   LIG A   1      -9.591   2.014 122.618  0.00  0.00    +0.046 A 
ATOM      6  C   LIG A   1      -9.551   0.640 122.860  0.00  0.00    +0.128 A 
ENDROOT
BRANCH   1   7
ATOM      7  C   LIG A   1      -8.293  -1.387 123.771  0.00  0.00    +0.190 C 
ATOM      8  O   LIG A   1      -9.233  -1.963 124.316  0.00  0.00    -0.287 OA
BRANCH   7   9
ATOM      9  C   LIG A   1      -7.079  -2.116 123.304  0.00  0.00    +0.050 C 
ATOM     10  C   LIG A   1      -5.994  -2.445 124.043  0.00  0.00    -0.072 C 
ATOM     11  C   LIG A   1      -5.760  -2.091 125.486  0.00  0.00    +0.039 C 
ATOM     12  C   LIG A   1      -4.866  -3.222 123.417  0.00  0.00    +0.039 C 
ENDBRANCH   7   9
ENDBRANCH   1   7
BRANCH   3  13
ATOM     13  C   LIG A   1      -6.168   3.084 123.832  0.00  0.00    +0.000 C 
ATOM     14  C   LIG A   1      -5.704   4.086 123.071  0.00  0.00    +0.009 C 
ENDBRANCH   3  13
BRANCH   6  15
ATOM     15  O   LIG A   1     -10.616  -0.122 122.475  0.00  0.00    -0.506 OA
ATOM     16  H   LIG A   1     -10.636  -0.935 123.009  0.00  0.00    +0.292 HD
ENDBRANCH   6  15
TORSDOF 4
ENDMDL
MODEL 7
REMARK VINA RESULT:      -5.8     11.162     11.804
REMARK  Name = NuBBE_2209
REMARK  6 active torsions:
REMARK  status: ('A' for Active; 'I' for Inactive)
REMARK    1  A    between atoms: C_1  and  C_3
REMARK    2  A    between atoms: C_1  and  C_7
REMARK    3  A    between atoms: C_4  and  C_5
REMARK    4  A    between atoms: C_4  and  C_6
REMARK    5  A    between atoms: C_9  and  C_10
REMARK    6  A    between atoms: C_14  and  O_15
REMARK                            x       y       z     vdW  Elec       q    Type
REMARK                         _______ _______ _______ _____ _____    ______ ____
ROOT
ATOM      1  C   LIG A   1      -9.098   6.493 131.453  0.00  0.00    +0.064 A 
ATOM      2  C   LIG A   1      -7.896   6.963 130.889  0.00  0.00    +0.023 A 
ATOM      3  C   LIG A   1      -6.653   6.649 131.455  0.00  0.00    -0.025 A 
ATOM      4  C   LIG A   1      -6.623   5.825 132.586  0.00  0.00    +0.011 A 
ATOM      5  C   LIG A   1      -7.805   5.373 133.174  0.00  0.00    +0.046 A 
ATOM      6  C   LIG A   1      -9.040   5.716 132.621  0.00  0.00    +0.128 A 
ENDROOT
BRANCH   1   7
ATOM      7  C   LIG A   1     -10.365   6.895 130.783  0.00  0.00    +0.190 C 
ATOM      8  O   LIG A   1     -11.416   6.841 131.419  0.00  0.00    -0.287 OA
BRANCH   7   9
ATOM      9  C   LIG A   1     -10.299   7.462 129.405  0.00  0.00    +0.050 C 
ATOM     10  C   LIG A   1     -11.244   7.369 128.442  0.00  0.00    -0.072 C 
ATOM     11  C   LIG A   1     -12.545   6.621 128.543  0.00  0.00    +0.039 C 
ATOM     12  C   LIG A   1     -11.029   8.039 127.111  0.00  0.00    +0.039 C 
ENDBRANCH   7   9
ENDBRANCH   1   7
BRANCH   3  13
ATOM     13  C   LIG A   1      -5.420   7.146 130.828  0.00  0.00    +0.000 C 
ATOM     14  C   LIG A   1      -4.199   7.031 131.367  0.00  0.00    +0.009 C 
ENDBRANCH   3  13
BRANCH   6  15
ATOM     15  O   LIG A   1     -10.176   5.304 133.255  0.00  0.00    -0.506 OA
ATOM     16  H   LIG A   1      -9.936   4.693 133.974  0.00  0.00    +0.292 HD
ENDBRANCH   6  15
TORSDOF 4
ENDMDL
MODEL 8
REMARK VINA RESULT:      -5.6      9.727     11.694
REMARK  Name = NuBBE_2209
REMARK  6 active torsions:
REMARK  status: ('A' for Active; 'I' for Inactive)
REMARK    1  A    between atoms: C_1  and  C_3
REMARK    2  A    between atoms: C_1  and  C_7
REMARK    3  A    between atoms: C_4  and  C_5
REMARK    4  A    between atoms: C_4  and  C_6
REMARK    5  A    between atoms: C_9  and  C_10
REMARK    6  A    between atoms: C_14  and  O_15
REMARK                            x       y       z     vdW  Elec       q    Type
REMARK                         _______ _______ _______ _____ _____    ______ ____
ROOT
ATOM      1  C   LIG A   1     -10.034   5.896 130.621  0.00  0.00    +0.064 A 
ATOM      2  C   LIG A   1      -9.848   5.956 132.015  0.00  0.00    +0.023 A 
ATOM      3  C   LIG A   1      -8.596   5.714 132.595  0.00  0.00    -0.025 A 
ATOM      4  C   LIG A   1      -7.512   5.439 131.754  0.00  0.00    +0.011 A 
ATOM      5  C   LIG A   1      -7.683   5.349 130.372  0.00  0.00    +0.046 A 
ATOM      6  C   LIG A   1      -8.941   5.561 129.806  0.00  0.00    +0.128 A 
ENDROOT
BRANCH   1   7
ATOM      7  C   LIG A   1     -11.407   6.155 130.108  0.00  0.00    +0.190 C 
ATOM      8  O   LIG A   1     -11.994   5.258 129.504  0.00  0.00    -0.287 OA
BRANCH   7   9
ATOM      9  C   LIG A   1     -12.067   7.448 130.446  0.00  0.00    +0.050 C 
ATOM     10  C   LIG A   1     -12.359   8.459 129.595  0.00  0.00    -0.072 C 
ATOM     11  C   LIG A   1     -12.025   8.511 128.129  0.00  0.00    +0.039 C 
ATOM     12  C   LIG A   1     -13.069   9.686 130.102  0.00  0.00    +0.039 C 
ENDBRANCH   7   9
ENDBRANCH   1   7
BRANCH   3  13
ATOM     13  C   LIG A   1      -8.439   5.801 134.054  0.00  0.00    +0.000 C 
ATOM     14  C   LIG A   1      -7.983   4.804 134.825  0.00  0.00    +0.009 C 
ENDBRANCH   3  13
BRANCH   6  15
ATOM     15  O   LIG A   1      -9.084   5.408 128.456  0.00  0.00    -0.506 OA
ATOM     16  H   LIG A   1      -9.690   4.667 128.282  0.00  0.00    +0.292 HD
ENDBRANCH   6  15
TORSDOF 4
ENDMDL
MODEL 9
REMARK VINA RESULT:      -5.6      1.612      4.592
REMARK  Name = NuBBE_2209
REMARK  6 active torsions:
REMARK  status: ('A' for Active; 'I' for Inactive)
REMARK    1  A    between atoms: C_1  and  C_3
REMARK    2  A    between atoms: C_1  and  C_7
REMARK    3  A    between atoms: C_4  and  C_5
REMARK    4  A    between atoms: C_4  and  C_6
REMARK    5  A    between atoms: C_9  and  C_10
REMARK    6  A    between atoms: C_14  and  O_15
REMARK                            x       y       z     vdW  Elec       q    Type
REMARK                         _______ _______ _______ _____ _____    ______ ____
ROOT
ATOM      1  C   LIG A   1      -8.604  -1.338 125.655  0.00  0.00    +0.064 A 
ATOM      2  C   LIG A   1      -7.972  -1.325 126.914  0.00  0.00    +0.023 A 
ATOM      3  C   LIG A   1      -7.916  -0.160 127.690  0.00  0.00    -0.025 A 
ATOM      4  C   LIG A   1      -8.533   0.997 127.203  0.00  0.00    +0.011 A 
ATOM      5  C   LIG A   1      -9.140   1.011 125.946  0.00  0.00    +0.046 A 
ATOM      6  C   LIG A   1      -9.164  -0.147 125.167  0.00  0.00    +0.128 A 
ENDROOT
BRANCH   1   7
ATOM      7  C   LIG A   1      -8.596  -2.623 124.905  0.00  0.00    +0.190 C 
ATOM      8  O   LIG A   1      -9.636  -3.007 124.374  0.00  0.00    -0.287 OA
BRANCH   7   9
ATOM      9  C   LIG A   1      -7.301  -3.340 124.723  0.00  0.00    +0.050 C 
ATOM     10  C   LIG A   1      -6.310  -3.022 123.858  0.00  0.00    -0.072 C 
ATOM     11  C   LIG A   1      -6.334  -1.904 122.851  0.00  0.00    +0.039 C 
ATOM     12  C   LIG A   1      -5.044  -3.836 123.834  0.00  0.00    +0.039 C 
ENDBRANCH   7   9
ENDBRANCH   1   7
BRANCH   3  13
ATOM     13  C   LIG A   1      -7.260  -0.192 129.006  0.00  0.00    +0.000 C 
ATOM     14  C   LIG A   1      -7.814  -0.705 130.113  0.00  0.00    +0.009 C 
ENDBRANCH   3  13
BRANCH   6  15
ATOM     15  O   LIG A   1      -9.715  -0.083 123.919  0.00  0.00    -0.506 OA
ATOM     16  H   LIG A   1      -9.770   0.849 123.643  0.00  0.00    +0.292 HD
ENDBRANCH   6  15
TORSDOF 4
ENDMDL
