MODEL 1
REMARK VINA RESULT:      -7.7      0.000      0.000
REMARK  Name = NuBBE_2414
REMARK  6 active torsions:
REMARK  status: ('A' for Active; 'I' for Inactive)
REMARK    1  A    between atoms: C_1  and  C_3
REMARK    2  A    between atoms: C_1  and  C_12
REMARK    3  A    between atoms: C_4  and  C_5
REMARK    4  A    between atoms: C_8  and  O_11
REMARK    5  A    between atoms: C_13  and  O_14
REMARK    6  A    between atoms: C_16  and  O_19
REMARK                            x       y       z     vdW  Elec       q    Type
REMARK                         _______ _______ _______ _____ _____    ______ ____
ROOT
ATOM      1  C   LIG A   1      -8.833   2.105 123.745  0.00  0.00    +0.190 C 
ATOM      2  O   LIG A   1      -9.397   2.605 124.712  0.00  0.00    -0.287 OA
ENDROOT
BRANCH   1   3
ATOM      3  C   LIG A   1      -8.565   0.643 123.717  0.00  0.00    +0.063 A 
ATOM      4  C   LIG A   1      -9.405  -0.287 123.087  0.00  0.00    +0.131 A 
ATOM      5  C   LIG A   1      -9.095  -1.650 123.111  0.00  0.00    +0.091 A 
ATOM      6  C   LIG A   1      -7.939  -2.076 123.756  0.00  0.00    +0.120 A 
ATOM      7  C   LIG A   1      -7.080  -1.166 124.362  0.00  0.00    +0.046 A 
ATOM      8  C   LIG A   1      -7.388   0.195 124.337  0.00  0.00    +0.019 A 
BRANCH   4   9
ATOM      9  O   LIG A   1     -10.526   0.129 122.424  0.00  0.00    -0.506 OA
ATOM     10  H   LIG A   1     -11.271  -0.457 122.642  0.00  0.00    +0.292 HD
ENDBRANCH   4   9
BRANCH   6  11
ATOM     11  O   LIG A   1      -7.602  -3.396 123.818  0.00  0.00    -0.507 OA
ATOM     12  H   LIG A   1      -8.253  -3.871 124.360  0.00  0.00    +0.292 HD
ENDBRANCH   6  11
ENDBRANCH   1   3
BRANCH   1  13
ATOM     13  C   LIG A   1      -8.491   2.898 122.531  0.00  0.00    +0.052 C 
ATOM     14  C   LIG A   1      -7.212   3.019 122.147  0.00  0.00    +0.012 C 
BRANCH  14  15
ATOM     15  C   LIG A   1      -6.761   3.838 121.011  0.00  0.00    -0.025 A 
ATOM     16  C   LIG A   1      -5.512   4.472 120.974  0.00  0.00    +0.011 A 
ATOM     17  C   LIG A   1      -5.124   5.227 119.860  0.00  0.00    +0.046 A 
ATOM     18  C   LIG A   1      -5.998   5.359 118.786  0.00  0.00    +0.117 A 
ATOM     19  C   LIG A   1      -7.252   4.765 118.815  0.00  0.00    +0.046 A 
ATOM     20  C   LIG A   1      -7.635   4.012 119.927  0.00  0.00    +0.011 A 
BRANCH  18  21
ATOM     21  O   LIG A   1      -5.658   6.071 117.674  0.00  0.00    -0.507 OA
ATOM     22  H   LIG A   1      -6.467   6.431 117.276  0.00  0.00    +0.292 HD
ENDBRANCH  18  21
ENDBRANCH  14  15
ENDBRANCH   1  13
TORSDOF 6
ENDMDL
MODEL 2
REMARK VINA RESULT:      -7.2     10.049     10.791
REMARK  Name = NuBBE_2414
REMARK  6 active torsions:
REMARK  status: ('A' for Active; 'I' for Inactive)
REMARK    1  A    between atoms: C_1  and  C_3
REMARK    2  A    between atoms: C_1  and  C_12
REMARK    3  A    between atoms: C_4  and  C_5
REMARK    4  A    between atoms: C_8  and  O_11
REMARK    5  A    between atoms: C_13  and  O_14
REMARK    6  A    between atoms: C_16  and  O_19
REMARK                            x       y       z     vdW  Elec       q    Type
REMARK                         _______ _______ _______ _____ _____    ______ ____
ROOT
ATOM      1  C   LIG A   1      -9.223   6.490 131.465  0.00  0.00    +0.190 C 
ATOM      2  O   LIG A   1      -9.370   6.364 132.676  0.00  0.00    -0.287 OA
ENDROOT
BRANCH   1   3
ATOM      3  C   LIG A   1     -10.352   6.972 130.627  0.00  0.00    +0.063 A 
ATOM      4  C   LIG A   1     -11.701   6.731 130.929  0.00  0.00    +0.131 A 
ATOM      5  C   LIG A   1     -12.711   7.206 130.088  0.00  0.00    +0.091 A 
ATOM      6  C   LIG A   1     -12.368   7.930 128.950  0.00  0.00    +0.120 A 
ATOM      7  C   LIG A   1     -11.038   8.202 128.648  0.00  0.00    +0.046 A 
ATOM      8  C   LIG A   1     -10.029   7.730 129.490  0.00  0.00    +0.019 A 
BRANCH   4   9
ATOM      9  O   LIG A   1     -12.046   6.048 132.063  0.00  0.00    -0.506 OA
ATOM     10  H   LIG A   1     -11.425   5.313 132.203  0.00  0.00    +0.292 HD
ENDBRANCH   4   9
BRANCH   6  11
ATOM     11  O   LIG A   1     -13.317   8.401 128.092  0.00  0.00    -0.507 OA
ATOM     12  H   LIG A   1     -13.232   9.365 128.014  0.00  0.00    +0.292 HD
ENDBRANCH   6  11
ENDBRANCH   1   3
BRANCH   1  13
ATOM     13  C   LIG A   1      -7.908   6.273 130.800  0.00  0.00    +0.052 C 
ATOM     14  C   LIG A   1      -6.781   6.704 131.386  0.00  0.00    +0.012 C 
BRANCH  14  15
ATOM     15  C   LIG A   1      -5.444   6.607 130.781  0.00  0.00    -0.025 A 
ATOM     16  C   LIG A   1      -4.736   5.401 130.680  0.00  0.00    +0.011 A 
ATOM     17  C   LIG A   1      -3.472   5.361 130.079  0.00  0.00    +0.046 A 
ATOM     18  C   LIG A   1      -2.908   6.535 129.592  0.00  0.00    +0.117 A 
ATOM     19  C   LIG A   1      -3.578   7.744 129.710  0.00  0.00    +0.046 A 
ATOM     20  C   LIG A   1      -4.840   7.781 130.308  0.00  0.00    +0.011 A 
BRANCH  18  21
ATOM     21  O   LIG A   1      -1.687   6.541 128.987  0.00  0.00    -0.507 OA
ATOM     22  H   LIG A   1      -1.000   6.564 129.673  0.00  0.00    +0.292 HD
ENDBRANCH  18  21
ENDBRANCH  14  15
ENDBRANCH   1  13
TORSDOF 6
ENDMDL
MODEL 3
REMARK VINA RESULT:      -7.2      9.517     11.523
REMARK  Name = NuBBE_2414
REMARK  6 active torsions:
REMARK  status: ('A' for Active; 'I' for Inactive)
REMARK    1  A    between atoms: C_1  and  C_3
REMARK    2  A    between atoms: C_1  and  C_12
REMARK    3  A    between atoms: C_4  and  C_5
REMARK    4  A    between atoms: C_8  and  O_11
REMARK    5  A    between atoms: C_13  and  O_14
REMARK    6  A    between atoms: C_16  and  O_19
REMARK                            x       y       z     vdW  Elec       q    Type
REMARK                         _______ _______ _______ _____ _____    ______ ____
ROOT
ATOM      1  C   LIG A   1     -10.410   5.265 130.077  0.00  0.00    +0.190 C 
ATOM      2  O   LIG A   1     -11.040   4.213 130.084  0.00  0.00    -0.287 OA
ENDROOT
BRANCH   1   3
ATOM      3  C   LIG A   1     -11.116   6.552 129.842  0.00  0.00    +0.063 A 
ATOM      4  C   LIG A   1     -12.109   7.058 130.693  0.00  0.00    +0.131 A 
ATOM      5  C   LIG A   1     -12.740   8.272 130.403  0.00  0.00    +0.091 A 
ATOM      6  C   LIG A   1     -12.366   8.980 129.265  0.00  0.00    +0.120 A 
ATOM      7  C   LIG A   1     -11.365   8.507 128.424  0.00  0.00    +0.046 A 
ATOM      8  C   LIG A   1     -10.734   7.297 128.715  0.00  0.00    +0.019 A 
BRANCH   4   9
ATOM      9  O   LIG A   1     -12.458   6.382 131.831  0.00  0.00    -0.506 OA
ATOM     10  H   LIG A   1     -12.180   6.891 132.611  0.00  0.00    +0.292 HD
ENDBRANCH   4   9
BRANCH   6  11
ATOM     11  O   LIG A   1     -12.962  10.160 128.932  0.00  0.00    -0.507 OA
ATOM     12  H   LIG A   1     -12.907  10.291 127.972  0.00  0.00    +0.292 HD
ENDBRANCH   6  11
ENDBRANCH   1   3
BRANCH   1  13
ATOM     13  C   LIG A   1      -8.957   5.319 130.401  0.00  0.00    +0.052 C 
ATOM     14  C   LIG A   1      -8.522   6.091 131.407  0.00  0.00    +0.012 C 
BRANCH  14  15
ATOM     15  C   LIG A   1      -7.105   6.273 131.760  0.00  0.00    -0.025 A 
ATOM     16  C   LIG A   1      -6.555   5.825 132.970  0.00  0.00    +0.011 A 
ATOM     17  C   LIG A   1      -5.195   6.008 133.249  0.00  0.00    +0.046 A 
ATOM     18  C   LIG A   1      -4.388   6.655 132.321  0.00  0.00    +0.117 A 
ATOM     19  C   LIG A   1      -4.918   7.134 131.131  0.00  0.00    +0.046 A 
ATOM     20  C   LIG A   1      -6.275   6.949 130.855  0.00  0.00    +0.011 A 
BRANCH  18  21
ATOM     21  O   LIG A   1      -3.056   6.843 132.544  0.00  0.00    -0.507 OA
ATOM     22  H   LIG A   1      -2.801   6.349 133.340  0.00  0.00    +0.292 HD
ENDBRANCH  18  21
ENDBRANCH  14  15
ENDBRANCH   1  13
TORSDOF 6
ENDMDL
MODEL 4
REMARK VINA RESULT:      -7.0      1.563      2.313
REMARK  Name = NuBBE_2414
REMARK  6 active torsions:
REMARK  status: ('A' for Active; 'I' for Inactive)
REMARK    1  A    between atoms: C_1  and  C_3
REMARK    2  A    between atoms: C_1  and  C_12
REMARK    3  A    between atoms: C_4  and  C_5
REMARK    4  A    between atoms: C_8  and  O_11
REMARK    5  A    between atoms: C_13  and  O_14
REMARK    6  A    between atoms: C_16  and  O_19
REMARK                            x       y       z     vdW  Elec       q    Type
REMARK                         _______ _______ _______ _____ _____    ______ ____
ROOT
ATOM      1  C   LIG A   1      -6.434   2.759 124.911  0.00  0.00    +0.190 C 
ATOM      2  O   LIG A   1      -5.789   3.039 125.915  0.00  0.00    -0.287 OA
ENDROOT
BRANCH   1   3
ATOM      3  C   LIG A   1      -7.331   1.574 124.911  0.00  0.00    +0.063 A 
ATOM      4  C   LIG A   1      -8.729   1.659 124.990  0.00  0.00    +0.131 A 
ATOM      5  C   LIG A   1      -9.510   0.500 124.997  0.00  0.00    +0.091 A 
ATOM      6  C   LIG A   1      -8.889  -0.742 124.916  0.00  0.00    +0.120 A 
ATOM      7  C   LIG A   1      -7.506  -0.846 124.811  0.00  0.00    +0.046 A 
ATOM      8  C   LIG A   1      -6.726   0.312 124.801  0.00  0.00    +0.019 A 
BRANCH   4   9
ATOM      9  O   LIG A   1      -9.348   2.879 125.038  0.00  0.00    -0.506 OA
ATOM     10  H   LIG A   1     -10.226   2.815 124.626  0.00  0.00    +0.292 HD
ENDBRANCH   4   9
BRANCH   6  11
ATOM     11  O   LIG A   1      -9.607  -1.901 124.934  0.00  0.00    -0.507 OA
ATOM     12  H   LIG A   1     -10.449  -1.753 125.394  0.00  0.00    +0.292 HD
ENDBRANCH   6  11
ENDBRANCH   1   3
BRANCH   1  13
ATOM     13  C   LIG A   1      -6.435   3.630 123.703  0.00  0.00    +0.052 C 
ATOM     14  C   LIG A   1      -6.327   3.085 122.482  0.00  0.00    +0.012 C 
BRANCH  14  15
ATOM     15  C   LIG A   1      -6.243   3.858 121.233  0.00  0.00    -0.025 A 
ATOM     16  C   LIG A   1      -7.233   3.816 120.240  0.00  0.00    +0.011 A 
ATOM     17  C   LIG A   1      -7.112   4.586 119.077  0.00  0.00    +0.046 A 
ATOM     18  C   LIG A   1      -5.990   5.388 118.900  0.00  0.00    +0.117 A 
ATOM     19  C   LIG A   1      -4.985   5.420 119.856  0.00  0.00    +0.046 A 
ATOM     20  C   LIG A   1      -5.108   4.653 121.016  0.00  0.00    +0.011 A 
BRANCH  18  21
ATOM     21  O   LIG A   1      -5.837   6.165 117.790  0.00  0.00    -0.507 OA
ATOM     22  H   LIG A   1      -5.533   5.605 117.058  0.00  0.00    +0.292 HD
ENDBRANCH  18  21
ENDBRANCH  14  15
ENDBRANCH   1  13
TORSDOF 6
ENDMDL
MODEL 5
REMARK VINA RESULT:      -6.8      3.351      8.273
REMARK  Name = NuBBE_2414
REMARK  6 active torsions:
REMARK  status: ('A' for Active; 'I' for Inactive)
REMARK    1  A    between atoms: C_1  and  C_3
REMARK    2  A    between atoms: C_1  and  C_12
REMARK    3  A    between atoms: C_4  and  C_5
REMARK    4  A    between atoms: C_8  and  O_11
REMARK    5  A    between atoms: C_13  and  O_14
REMARK    6  A    between atoms: C_16  and  O_19
REMARK                            x       y       z     vdW  Elec       q    Type
REMARK                         _______ _______ _______ _____ _____    ______ ____
ROOT
ATOM      1  C   LIG A   1      -8.898  -1.561 123.842  0.00  0.00    +0.190 C 
ATOM      2  O   LIG A   1      -9.759  -2.228 123.280  0.00  0.00    -0.287 OA
ENDROOT
BRANCH   1   3
ATOM      3  C   LIG A   1      -8.720  -0.129 123.487  0.00  0.00    +0.063 A 
ATOM      4  C   LIG A   1      -9.719   0.651 122.887  0.00  0.00    +0.131 A 
ATOM      5  C   LIG A   1      -9.478   1.991 122.570  0.00  0.00    +0.091 A 
ATOM      6  C   LIG A   1      -8.238   2.549 122.865  0.00  0.00    +0.120 A 
ATOM      7  C   LIG A   1      -7.244   1.800 123.484  0.00  0.00    +0.046 A 
ATOM      8  C   LIG A   1      -7.486   0.462 123.803  0.00  0.00    +0.019 A 
BRANCH   4   9
ATOM      9  O   LIG A   1     -10.951   0.117 122.624  0.00  0.00    -0.506 OA
ATOM     10  H   LIG A   1     -11.249   0.403 121.744  0.00  0.00    +0.292 HD
ENDBRANCH   4   9
BRANCH   6  11
ATOM     11  O   LIG A   1      -7.950   3.847 122.562  0.00  0.00    -0.507 OA
ATOM     12  H   LIG A   1      -6.987   3.964 122.519  0.00  0.00    +0.292 HD
ENDBRANCH   6  11
ENDBRANCH   1   3
BRANCH   1  13
ATOM     13  C   LIG A   1      -8.075  -2.108 124.956  0.00  0.00    +0.052 C 
ATOM     14  C   LIG A   1      -8.527  -2.047 126.218  0.00  0.00    +0.012 C 
BRANCH  14  15
ATOM     15  C   LIG A   1      -7.763  -2.488 127.395  0.00  0.00    -0.025 A 
ATOM     16  C   LIG A   1      -8.337  -3.210 128.451  0.00  0.00    +0.011 A 
ATOM     17  C   LIG A   1      -7.561  -3.622 129.542  0.00  0.00    +0.046 A 
ATOM     18  C   LIG A   1      -6.210  -3.296 129.581  0.00  0.00    +0.117 A 
ATOM     19  C   LIG A   1      -5.629  -2.555 128.561  0.00  0.00    +0.046 A 
ATOM     20  C   LIG A   1      -6.405  -2.148 127.474  0.00  0.00    +0.011 A 
BRANCH  18  21
ATOM     21  O   LIG A   1      -5.412  -3.687 130.615  0.00  0.00    -0.507 OA
ATOM     22  H   LIG A   1      -4.675  -3.060 130.694  0.00  0.00    +0.292 HD
ENDBRANCH  18  21
ENDBRANCH  14  15
ENDBRANCH   1  13
TORSDOF 6
ENDMDL
MODEL 6
REMARK VINA RESULT:      -6.6      7.561     10.852
REMARK  Name = NuBBE_2414
REMARK  6 active torsions:
REMARK  status: ('A' for Active; 'I' for Inactive)
REMARK    1  A    between atoms: C_1  and  C_3
REMARK    2  A    between atoms: C_1  and  C_12
REMARK    3  A    between atoms: C_4  and  C_5
REMARK    4  A    between atoms: C_8  and  O_11
REMARK    5  A    between atoms: C_13  and  O_14
REMARK    6  A    between atoms: C_16  and  O_19
REMARK                            x       y       z     vdW  Elec       q    Type
REMARK                         _______ _______ _______ _____ _____    ______ ____
ROOT
ATOM      1  C   LIG A   1      -9.464   5.945 131.661  0.00  0.00    +0.190 C 
ATOM      2  O   LIG A   1      -9.257   6.289 132.819  0.00  0.00    -0.287 OA
ENDROOT
BRANCH   1   3
ATOM      3  C   LIG A   1     -10.336   6.773 130.786  0.00  0.00    +0.063 A 
ATOM      4  C   LIG A   1     -11.712   6.937 130.996  0.00  0.00    +0.131 A 
ATOM      5  C   LIG A   1     -12.474   7.722 130.126  0.00  0.00    +0.091 A 
ATOM      6  C   LIG A   1     -11.851   8.349 129.051  0.00  0.00    +0.120 A 
ATOM      7  C   LIG A   1     -10.482   8.221 128.842  0.00  0.00    +0.046 A 
ATOM      8  C   LIG A   1      -9.722   7.438 129.713  0.00  0.00    +0.019 A 
BRANCH   4   9
ATOM      9  O   LIG A   1     -12.325   6.349 132.069  0.00  0.00    -0.506 OA
ATOM     10  H   LIG A   1     -12.497   5.412 131.873  0.00  0.00    +0.292 HD
ENDBRANCH   4   9
BRANCH   6  11
ATOM     11  O   LIG A   1     -12.553   9.113 128.166  0.00  0.00    -0.507 OA
ATOM     12  H   LIG A   1     -13.356   8.639 127.897  0.00  0.00    +0.292 HD
ENDBRANCH   6  11
ENDBRANCH   1   3
BRANCH   1  13
ATOM     13  C   LIG A   1      -8.785   4.769 131.050  0.00  0.00    +0.052 C 
ATOM     14  C   LIG A   1      -9.500   3.692 130.691  0.00  0.00    +0.012 C 
BRANCH  14  15
ATOM     15  C   LIG A   1      -8.919   2.453 130.151  0.00  0.00    -0.025 A 
ATOM     16  C   LIG A   1      -8.542   2.308 128.808  0.00  0.00    +0.011 A 
ATOM     17  C   LIG A   1      -7.977   1.112 128.349  0.00  0.00    +0.046 A 
ATOM     18  C   LIG A   1      -7.804   0.053 129.233  0.00  0.00    +0.117 A 
ATOM     19  C   LIG A   1      -8.199   0.165 130.559  0.00  0.00    +0.046 A 
ATOM     20  C   LIG A   1      -8.761   1.360 131.015  0.00  0.00    +0.011 A 
BRANCH  18  21
ATOM     21  O   LIG A   1      -7.245  -1.125 128.834  0.00  0.00    -0.507 OA
ATOM     22  H   LIG A   1      -6.486  -0.930 128.261  0.00  0.00    +0.292 HD
ENDBRANCH  18  21
ENDBRANCH  14  15
ENDBRANCH   1  13
TORSDOF 6
ENDMDL
MODEL 7
REMARK VINA RESULT:      -6.6     10.203     11.690
REMARK  Name = NuBBE_2414
REMARK  6 active torsions:
REMARK  status: ('A' for Active; 'I' for Inactive)
REMARK    1  A    between atoms: C_1  and  C_3
REMARK    2  A    between atoms: C_1  and  C_12
REMARK    3  A    between atoms: C_4  and  C_5
REMARK    4  A    between atoms: C_8  and  O_11
REMARK    5  A    between atoms: C_13  and  O_14
REMARK    6  A    between atoms: C_16  and  O_19
REMARK                            x       y       z     vdW  Elec       q    Type
REMARK                         _______ _______ _______ _____ _____    ______ ____
ROOT
ATOM      1  C   LIG A   1      -7.165   5.850 131.603  0.00  0.00    +0.190 C 
ATOM      2  O   LIG A   1      -7.407   4.660 131.775  0.00  0.00    -0.287 OA
ENDROOT
BRANCH   1   3
ATOM      3  C   LIG A   1      -5.791   6.368 131.830  0.00  0.00    +0.063 A 
ATOM      4  C   LIG A   1      -5.049   6.115 132.993  0.00  0.00    +0.131 A 
ATOM      5  C   LIG A   1      -3.764   6.645 133.144  0.00  0.00    +0.091 A 
ATOM      6  C   LIG A   1      -3.222   7.419 132.122  0.00  0.00    +0.120 A 
ATOM      7  C   LIG A   1      -3.931   7.658 130.951  0.00  0.00    +0.046 A 
ATOM      8  C   LIG A   1      -5.213   7.127 130.800  0.00  0.00    +0.019 A 
BRANCH   4   9
ATOM      9  O   LIG A   1      -5.565   5.329 133.987  0.00  0.00    -0.506 OA
ATOM     10  H   LIG A   1      -4.896   4.683 134.272  0.00  0.00    +0.292 HD
ENDBRANCH   4   9
BRANCH   6  11
ATOM     11  O   LIG A   1      -1.979   7.970 132.229  0.00  0.00    -0.507 OA
ATOM     12  H   LIG A   1      -1.628   7.806 133.119  0.00  0.00    +0.292 HD
ENDBRANCH   6  11
ENDBRANCH   1   3
BRANCH   1  13
ATOM     13  C   LIG A   1      -8.184   6.795 131.068  0.00  0.00    +0.052 C 
ATOM     14  C   LIG A   1      -9.425   6.363 130.796  0.00  0.00    +0.012 C 
BRANCH  14  15
ATOM     15  C   LIG A   1     -10.480   7.195 130.198  0.00  0.00    -0.025 A 
ATOM     16  C   LIG A   1     -11.759   7.326 130.757  0.00  0.00    +0.011 A 
ATOM     17  C   LIG A   1     -12.723   8.145 130.156  0.00  0.00    +0.046 A 
ATOM     18  C   LIG A   1     -12.409   8.822 128.983  0.00  0.00    +0.117 A 
ATOM     19  C   LIG A   1     -11.159   8.682 128.396  0.00  0.00    +0.046 A 
ATOM     20  C   LIG A   1     -10.200   7.866 128.999  0.00  0.00    +0.011 A 
BRANCH  18  21
ATOM     21  O   LIG A   1     -13.310   9.642 128.370  0.00  0.00    -0.507 OA
ATOM     22  H   LIG A   1     -14.033   9.099 128.015  0.00  0.00    +0.292 HD
ENDBRANCH  18  21
ENDBRANCH  14  15
ENDBRANCH   1  13
TORSDOF 6
ENDMDL
MODEL 8
REMARK VINA RESULT:      -6.5      9.579     12.501
REMARK  Name = NuBBE_2414
REMARK  6 active torsions:
REMARK  status: ('A' for Active; 'I' for Inactive)
REMARK    1  A    between atoms: C_1  and  C_3
REMARK    2  A    between atoms: C_1  and  C_12
REMARK    3  A    between atoms: C_4  and  C_5
REMARK    4  A    between atoms: C_8  and  O_11
REMARK    5  A    between atoms: C_13  and  O_14
REMARK    6  A    between atoms: C_16  and  O_19
REMARK                            x       y       z     vdW  Elec       q    Type
REMARK                         _______ _______ _______ _____ _____    ______ ____
ROOT
ATOM      1  C   LIG A   1     -10.531   5.641 130.507  0.00  0.00    +0.190 C 
ATOM      2  O   LIG A   1     -10.706   4.531 130.017  0.00  0.00    -0.287 OA
ENDROOT
BRANCH   1   3
ATOM      3  C   LIG A   1     -11.224   6.824 129.932  0.00  0.00    +0.063 A 
ATOM      4  C   LIG A   1     -10.978   7.315 128.641  0.00  0.00    +0.131 A 
ATOM      5  C   LIG A   1     -11.659   8.441 128.169  0.00  0.00    +0.091 A 
ATOM      6  C   LIG A   1     -12.594   9.066 128.990  0.00  0.00    +0.120 A 
ATOM      7  C   LIG A   1     -12.871   8.578 130.261  0.00  0.00    +0.046 A 
ATOM      8  C   LIG A   1     -12.192   7.452 130.731  0.00  0.00    +0.019 A 
BRANCH   4   9
ATOM      9  O   LIG A   1     -10.083   6.686 127.819  0.00  0.00    -0.506 OA
ATOM     10  H   LIG A   1      -9.341   7.283 127.627  0.00  0.00    +0.292 HD
ENDBRANCH   4   9
BRANCH   6  11
ATOM     11  O   LIG A   1     -13.273  10.175 128.579  0.00  0.00    -0.507 OA
ATOM     12  H   LIG A   1     -13.143  10.890 129.223  0.00  0.00    +0.292 HD
ENDBRANCH   6  11
ENDBRANCH   1   3
BRANCH   1  13
ATOM     13  C   LIG A   1      -9.719   5.844 131.739  0.00  0.00    +0.052 C 
ATOM     14  C   LIG A   1      -8.500   5.293 131.838  0.00  0.00    +0.012 C 
BRANCH  14  15
ATOM     15  C   LIG A   1      -7.650   5.369 133.036  0.00  0.00    -0.025 A 
ATOM     16  C   LIG A   1      -8.104   5.028 134.318  0.00  0.00    +0.011 A 
ATOM     17  C   LIG A   1      -7.249   5.102 135.424  0.00  0.00    +0.046 A 
ATOM     18  C   LIG A   1      -5.939   5.534 135.248  0.00  0.00    +0.117 A 
ATOM     19  C   LIG A   1      -5.478   5.905 133.992  0.00  0.00    +0.046 A 
ATOM     20  C   LIG A   1      -6.333   5.829 132.891  0.00  0.00    +0.011 A 
BRANCH  18  21
ATOM     21  O   LIG A   1      -5.066   5.608 136.292  0.00  0.00    -0.507 OA
ATOM     22  H   LIG A   1      -4.914   6.543 136.505  0.00  0.00    +0.292 HD
ENDBRANCH  18  21
ENDBRANCH  14  15
ENDBRANCH   1  13
TORSDOF 6
ENDMDL
MODEL 9
REMARK VINA RESULT:      -6.5      5.647      9.850
REMARK  Name = NuBBE_2414
REMARK  6 active torsions:
REMARK  status: ('A' for Active; 'I' for Inactive)
REMARK    1  A    between atoms: C_1  and  C_3
REMARK    2  A    between atoms: C_1  and  C_12
REMARK    3  A    between atoms: C_4  and  C_5
REMARK    4  A    between atoms: C_8  and  O_11
REMARK    5  A    between atoms: C_13  and  O_14
REMARK    6  A    between atoms: C_16  and  O_19
REMARK                            x       y       z     vdW  Elec       q    Type
REMARK                         _______ _______ _______ _____ _____    ______ ____
ROOT
ATOM      1  C   LIG A   1      -8.990  -3.384 126.519  0.00  0.00    +0.190 C 
ATOM      2  O   LIG A   1     -10.213  -3.290 126.527  0.00  0.00    -0.287 OA
ENDROOT
BRANCH   1   3
ATOM      3  C   LIG A   1      -8.223  -2.981 125.311  0.00  0.00    +0.063 A 
ATOM      4  C   LIG A   1      -8.766  -2.960 124.019  0.00  0.00    +0.131 A 
ATOM      5  C   LIG A   1      -7.981  -2.580 122.926  0.00  0.00    +0.091 A 
ATOM      6  C   LIG A   1      -6.655  -2.213 123.134  0.00  0.00    +0.120 A 
ATOM      7  C   LIG A   1      -6.107  -2.201 124.411  0.00  0.00    +0.046 A 
ATOM      8  C   LIG A   1      -6.891  -2.578 125.502  0.00  0.00    +0.019 A 
BRANCH   4   9
ATOM      9  O   LIG A   1     -10.078  -3.290 123.812  0.00  0.00    -0.506 OA
ATOM     10  H   LIG A   1     -10.196  -3.600 122.899  0.00  0.00    +0.292 HD
ENDBRANCH   4   9
BRANCH   6  11
ATOM     11  O   LIG A   1      -5.846  -1.849 122.098  0.00  0.00    -0.507 OA
ATOM     12  H   LIG A   1      -5.238  -2.577 121.892  0.00  0.00    +0.292 HD
ENDBRANCH   6  11
ENDBRANCH   1   3
BRANCH   1  13
ATOM     13  C   LIG A   1      -8.220  -3.797 127.725  0.00  0.00    +0.052 C 
ATOM     14  C   LIG A   1      -8.212  -3.017 128.816  0.00  0.00    +0.012 C 
BRANCH  14  15
ATOM     15  C   LIG A   1      -7.427  -3.295 130.029  0.00  0.00    -0.025 A 
ATOM     16  C   LIG A   1      -7.660  -2.654 131.254  0.00  0.00    +0.011 A 
ATOM     17  C   LIG A   1      -6.894  -2.968 132.383  0.00  0.00    +0.046 A 
ATOM     18  C   LIG A   1      -5.882  -3.915 132.281  0.00  0.00    +0.117 A 
ATOM     19  C   LIG A   1      -5.614  -4.539 131.070  0.00  0.00    +0.046 A 
ATOM     20  C   LIG A   1      -6.380  -4.224 129.946  0.00  0.00    +0.011 A 
BRANCH  18  21
ATOM     21  O   LIG A   1      -5.120  -4.264 133.357  0.00  0.00    -0.507 OA
ATOM     22  H   LIG A   1      -5.029  -3.490 133.937  0.00  0.00    +0.292 HD
ENDBRANCH  18  21
ENDBRANCH  14  15
ENDBRANCH   1  13
TORSDOF 6
ENDMDL
