MODEL 1
REMARK VINA RESULT:      -8.1      0.000      0.000
REMARK  Name = NuBBE_2237
REMARK  3 active torsions:
REMARK  status: ('A' for Active; 'I' for Inactive)
REMARK    1  A    between atoms: C_1  and  C_2
REMARK    2  A    between atoms: C_17  and  C_18
REMARK    3  A    between atoms: C_17  and  C_19
REMARK                            x       y       z     vdW  Elec       q    Type
REMARK                         _______ _______ _______ _____ _____    ______ ____
ROOT
ATOM      1  C   LIG A   1      -8.853  -0.041 125.755  0.00  0.00    +0.016 C 
ATOM      2  C   LIG A   1      -8.342  -1.450 125.326  0.00  0.00    -0.007 C 
ATOM      3  C   LIG A   1      -6.903  -1.311 124.669  0.00  0.00    +0.005 C 
ATOM      4  C   LIG A   1      -5.847  -0.867 125.702  0.00  0.00    +0.006 C 
ATOM      5  C   LIG A   1      -5.774  -1.730 126.944  0.00  0.00    +0.012 C 
ATOM      6  C   LIG A   1      -7.123  -2.026 127.612  0.00  0.00    -0.004 C 
ATOM      7  C   LIG A   1      -7.566  -0.980 128.645  0.00  0.00    +0.041 C 
ATOM      8  C   LIG A   1      -8.275  -2.302 126.624  0.00  0.00    -0.061 C 
ATOM      9  C   LIG A   1      -9.157  -3.260 126.981  0.00  0.00    -0.026 C 
ATOM     10  C   LIG A   1      -9.089  -3.979 128.306  0.00  0.00    +0.035 C 
ATOM     11  C   LIG A   1      -8.137  -3.348 129.426  0.00  0.00    +0.019 C 
ATOM     12  C   LIG A   1      -6.895  -3.256 128.542  0.00  0.00    +0.020 C 
ATOM     13  C   LIG A   1      -7.770  -1.865 129.847  0.00  0.00    -0.072 C 
ATOM     14  C   LIG A   1      -7.438  -1.515 131.086  0.00  0.00    +0.008 C 
ATOM     15  C   LIG A   1      -6.517  -2.537 123.746  0.00  0.00    -0.031 C 
ATOM     16  C   LIG A   1      -5.158  -2.420 123.016  0.00  0.00    +0.011 C 
ATOM     17  C   LIG A   1      -6.466  -3.895 124.479  0.00  0.00    +0.011 C 
ATOM     18  C   LIG A   1      -7.595  -2.546 122.636  0.00  0.00    +0.007 C 
ATOM     19  C   LIG A   1      -8.960  -2.901 123.189  0.00  0.00    +0.001 C 
ATOM     20  C   LIG A   1      -9.405  -1.909 124.257  0.00  0.00    +0.011 C 
ENDROOT
TORSDOF 0
ENDMDL
MODEL 2
REMARK VINA RESULT:      -7.9      2.550      5.381
REMARK  Name = NuBBE_2237
REMARK  3 active torsions:
REMARK  status: ('A' for Active; 'I' for Inactive)
REMARK    1  A    between atoms: C_1  and  C_2
REMARK    2  A    between atoms: C_17  and  C_18
REMARK    3  A    between atoms: C_17  and  C_19
REMARK                            x       y       z     vdW  Elec       q    Type
REMARK                         _______ _______ _______ _____ _____    ______ ____
ROOT
ATOM      1  C   LIG A   1      -6.489  -1.848 122.474  0.00  0.00    +0.016 C 
ATOM      2  C   LIG A   1      -7.544  -1.688 123.609  0.00  0.00    -0.007 C 
ATOM      3  C   LIG A   1      -6.840  -1.896 125.017  0.00  0.00    +0.005 C 
ATOM      4  C   LIG A   1      -5.837  -0.766 125.325  0.00  0.00    +0.006 C 
ATOM      5  C   LIG A   1      -6.409   0.633 125.228  0.00  0.00    +0.012 C 
ATOM      6  C   LIG A   1      -7.209   0.922 123.951  0.00  0.00    -0.004 C 
ATOM      7  C   LIG A   1      -6.367   1.435 122.775  0.00  0.00    +0.041 C 
ATOM      8  C   LIG A   1      -8.103  -0.243 123.482  0.00  0.00    -0.061 C 
ATOM      9  C   LIG A   1      -9.308   0.090 122.972  0.00  0.00    -0.026 C 
ATOM     10  C   LIG A   1      -9.747   1.522 122.784  0.00  0.00    +0.035 C 
ATOM     11  C   LIG A   1      -8.616   2.648 122.898  0.00  0.00    +0.019 C 
ATOM     12  C   LIG A   1      -8.071   2.187 124.248  0.00  0.00    +0.020 C 
ATOM     13  C   LIG A   1      -7.091   2.721 122.472  0.00  0.00    -0.072 C 
ATOM     14  C   LIG A   1      -6.479   3.850 122.128  0.00  0.00    +0.008 C 
ATOM     15  C   LIG A   1      -7.853  -2.275 126.172  0.00  0.00    -0.031 C 
ATOM     16  C   LIG A   1      -7.214  -2.569 127.550  0.00  0.00    +0.011 C 
ATOM     17  C   LIG A   1      -8.933  -1.207 126.448  0.00  0.00    +0.011 C 
ATOM     18  C   LIG A   1      -8.493  -3.606 125.710  0.00  0.00    +0.007 C 
ATOM     19  C   LIG A   1      -9.367  -3.409 124.488  0.00  0.00    +0.001 C 
ATOM     20  C   LIG A   1      -8.568  -2.849 123.316  0.00  0.00    +0.011 C 
ENDROOT
TORSDOF 0
ENDMDL
MODEL 3
REMARK VINA RESULT:      -7.5      2.079      4.537
REMARK  Name = NuBBE_2237
REMARK  3 active torsions:
REMARK  status: ('A' for Active; 'I' for Inactive)
REMARK    1  A    between atoms: C_1  and  C_2
REMARK    2  A    between atoms: C_17  and  C_18
REMARK    3  A    between atoms: C_17  and  C_19
REMARK                            x       y       z     vdW  Elec       q    Type
REMARK                         _______ _______ _______ _____ _____    ______ ____
ROOT
ATOM      1  C   LIG A   1      -5.006  -2.034 124.360  0.00  0.00    +0.016 C 
ATOM      2  C   LIG A   1      -6.529  -1.769 124.556  0.00  0.00    -0.007 C 
ATOM      3  C   LIG A   1      -7.037  -2.549 125.843  0.00  0.00    +0.005 C 
ATOM      4  C   LIG A   1      -6.424  -1.975 127.136  0.00  0.00    +0.006 C 
ATOM      5  C   LIG A   1      -6.613  -0.484 127.319  0.00  0.00    +0.012 C 
ATOM      6  C   LIG A   1      -6.255   0.373 126.098  0.00  0.00    -0.004 C 
ATOM      7  C   LIG A   1      -4.783   0.803 126.030  0.00  0.00    +0.041 C 
ATOM      8  C   LIG A   1      -6.683  -0.234 124.747  0.00  0.00    -0.061 C 
ATOM      9  C   LIG A   1      -7.142   0.629 123.816  0.00  0.00    -0.026 C 
ATOM     10  C   LIG A   1      -7.170   2.123 124.032  0.00  0.00    +0.035 C 
ATOM     11  C   LIG A   1      -6.331   2.692 125.271  0.00  0.00    +0.019 C 
ATOM     12  C   LIG A   1      -6.939   1.758 126.314  0.00  0.00    +0.020 C 
ATOM     13  C   LIG A   1      -4.947   2.297 125.934  0.00  0.00    -0.072 C 
ATOM     14  C   LIG A   1      -4.155   3.168 126.551  0.00  0.00    +0.008 C 
ATOM     15  C   LIG A   1      -8.602  -2.790 125.849  0.00  0.00    -0.031 C 
ATOM     16  C   LIG A   1      -9.144  -3.615 127.041  0.00  0.00    +0.011 C 
ATOM     17  C   LIG A   1      -9.445  -1.497 125.836  0.00  0.00    +0.011 C 
ATOM     18  C   LIG A   1      -8.871  -3.642 124.586  0.00  0.00    +0.007 C 
ATOM     19  C   LIG A   1      -8.613  -2.854 123.318  0.00  0.00    +0.001 C 
ATOM     20  C   LIG A   1      -7.170  -2.367 123.248  0.00  0.00    +0.011 C 
ENDROOT
TORSDOF 0
ENDMDL
MODEL 4
REMARK VINA RESULT:      -7.4      1.566      4.913
REMARK  Name = NuBBE_2237
REMARK  3 active torsions:
REMARK  status: ('A' for Active; 'I' for Inactive)
REMARK    1  A    between atoms: C_1  and  C_2
REMARK    2  A    between atoms: C_17  and  C_18
REMARK    3  A    between atoms: C_17  and  C_19
REMARK                            x       y       z     vdW  Elec       q    Type
REMARK                         _______ _______ _______ _____ _____    ______ ____
ROOT
ATOM      1  C   LIG A   1      -7.183  -3.118 124.780  0.00  0.00    +0.016 C 
ATOM      2  C   LIG A   1      -7.624  -2.508 126.145  0.00  0.00    -0.007 C 
ATOM      3  C   LIG A   1      -6.389  -2.501 127.143  0.00  0.00    +0.005 C 
ATOM      4  C   LIG A   1      -5.287  -1.527 126.677  0.00  0.00    +0.006 C 
ATOM      5  C   LIG A   1      -5.759  -0.112 126.419  0.00  0.00    +0.012 C 
ATOM      6  C   LIG A   1      -7.018   0.006 125.550  0.00  0.00    -0.004 C 
ATOM      7  C   LIG A   1      -6.747   0.068 124.041  0.00  0.00    +0.041 C 
ATOM      8  C   LIG A   1      -8.095  -1.058 125.842  0.00  0.00    -0.061 C 
ATOM      9  C   LIG A   1      -9.380  -0.646 125.789  0.00  0.00    -0.026 C 
ATOM     10  C   LIG A   1      -9.771   0.756 125.388  0.00  0.00    +0.035 C 
ATOM     11  C   LIG A   1      -8.639   1.657 124.704  0.00  0.00    +0.019 C 
ATOM     12  C   LIG A   1      -7.587   1.438 125.789  0.00  0.00    +0.020 C 
ATOM     13  C   LIG A   1      -7.453   1.354 123.697  0.00  0.00    -0.072 C 
ATOM     14  C   LIG A   1      -6.987   2.242 122.824  0.00  0.00    +0.008 C 
ATOM     15  C   LIG A   1      -6.815  -2.409 128.665  0.00  0.00    -0.031 C 
ATOM     16  C   LIG A   1      -5.656  -2.478 129.687  0.00  0.00    +0.011 C 
ATOM     17  C   LIG A   1      -7.600  -1.132 129.030  0.00  0.00    +0.011 C 
ATOM     18  C   LIG A   1      -7.671  -3.676 128.908  0.00  0.00    +0.007 C 
ATOM     19  C   LIG A   1      -8.977  -3.620 128.142  0.00  0.00    +0.001 C 
ATOM     20  C   LIG A   1      -8.740  -3.504 126.641  0.00  0.00    +0.011 C 
ENDROOT
TORSDOF 0
ENDMDL
MODEL 5
REMARK VINA RESULT:      -7.3      2.355      5.083
REMARK  Name = NuBBE_2237
REMARK  3 active torsions:
REMARK  status: ('A' for Active; 'I' for Inactive)
REMARK    1  A    between atoms: C_1  and  C_2
REMARK    2  A    between atoms: C_17  and  C_18
REMARK    3  A    between atoms: C_17  and  C_19
REMARK                            x       y       z     vdW  Elec       q    Type
REMARK                         _______ _______ _______ _____ _____    ______ ____
ROOT
ATOM      1  C   LIG A   1      -5.261  -0.058 126.149  0.00  0.00    +0.016 C 
ATOM      2  C   LIG A   1      -6.406  -0.661 125.280  0.00  0.00    -0.007 C 
ATOM      3  C   LIG A   1      -7.401  -1.475 126.211  0.00  0.00    +0.005 C 
ATOM      4  C   LIG A   1      -8.163  -0.547 127.179  0.00  0.00    +0.006 C 
ATOM      5  C   LIG A   1      -8.891   0.602 126.513  0.00  0.00    +0.012 C 
ATOM      6  C   LIG A   1      -8.058   1.403 125.504  0.00  0.00    -0.004 C 
ATOM      7  C   LIG A   1      -7.263   2.565 126.114  0.00  0.00    +0.041 C 
ATOM      8  C   LIG A   1      -7.132   0.545 124.620  0.00  0.00    -0.061 C 
ATOM      9  C   LIG A   1      -7.005   0.926 123.331  0.00  0.00    -0.026 C 
ATOM     10  C   LIG A   1      -7.661   2.170 122.780  0.00  0.00    +0.035 C 
ATOM     11  C   LIG A   1      -8.246   3.213 123.843  0.00  0.00    +0.019 C 
ATOM     12  C   LIG A   1      -9.074   2.194 124.623  0.00  0.00    +0.020 C 
ATOM     13  C   LIG A   1      -7.772   3.706 125.272  0.00  0.00    -0.072 C 
ATOM     14  C   LIG A   1      -8.028   4.920 125.751  0.00  0.00    +0.008 C 
ATOM     15  C   LIG A   1      -8.269  -2.537 125.420  0.00  0.00    -0.031 C 
ATOM     16  C   LIG A   1      -9.201  -3.416 126.288  0.00  0.00    +0.011 C 
ATOM     17  C   LIG A   1      -9.183  -1.930 124.334  0.00  0.00    +0.011 C 
ATOM     18  C   LIG A   1      -7.233  -3.503 124.798  0.00  0.00    +0.007 C 
ATOM     19  C   LIG A   1      -6.404  -2.818 123.731  0.00  0.00    +0.001 C 
ATOM     20  C   LIG A   1      -5.642  -1.626 124.296  0.00  0.00    +0.011 C 
ENDROOT
TORSDOF 0
ENDMDL
MODEL 6
REMARK VINA RESULT:      -7.2      1.517      5.784
REMARK  Name = NuBBE_2237
REMARK  3 active torsions:
REMARK  status: ('A' for Active; 'I' for Inactive)
REMARK    1  A    between atoms: C_1  and  C_2
REMARK    2  A    between atoms: C_17  and  C_18
REMARK    3  A    between atoms: C_17  and  C_19
REMARK                            x       y       z     vdW  Elec       q    Type
REMARK                         _______ _______ _______ _____ _____    ______ ____
ROOT
ATOM      1  C   LIG A   1      -4.724  -3.304 129.233  0.00  0.00    +0.016 C 
ATOM      2  C   LIG A   1      -6.038  -2.683 129.797  0.00  0.00    -0.007 C 
ATOM      3  C   LIG A   1      -5.771  -1.175 130.214  0.00  0.00    +0.005 C 
ATOM      4  C   LIG A   1      -5.477  -0.288 128.987  0.00  0.00    +0.006 C 
ATOM      5  C   LIG A   1      -6.523  -0.351 127.894  0.00  0.00    +0.012 C 
ATOM      6  C   LIG A   1      -6.945  -1.767 127.478  0.00  0.00    -0.004 C 
ATOM      7  C   LIG A   1      -6.084  -2.388 126.370  0.00  0.00    +0.041 C 
ATOM      8  C   LIG A   1      -7.083  -2.760 128.649  0.00  0.00    -0.061 C 
ATOM      9  C   LIG A   1      -8.101  -3.644 128.573  0.00  0.00    -0.026 C 
ATOM     10  C   LIG A   1      -9.019  -3.730 127.378  0.00  0.00    +0.035 C 
ATOM     11  C   LIG A   1      -8.555  -2.966 126.051  0.00  0.00    +0.019 C 
ATOM     12  C   LIG A   1      -8.303  -1.619 126.725  0.00  0.00    +0.020 C 
ATOM     13  C   LIG A   1      -7.151  -2.719 125.359  0.00  0.00    -0.072 C 
ATOM     14  C   LIG A   1      -6.995  -2.575 124.046  0.00  0.00    +0.008 C 
ATOM     15  C   LIG A   1      -6.829  -0.617 131.251  0.00  0.00    -0.031 C 
ATOM     16  C   LIG A   1      -6.573   0.824 131.755  0.00  0.00    +0.011 C 
ATOM     17  C   LIG A   1      -8.284  -0.612 130.736  0.00  0.00    +0.011 C 
ATOM     18  C   LIG A   1      -6.681  -1.532 132.491  0.00  0.00    +0.007 C 
ATOM     19  C   LIG A   1      -7.144  -2.944 132.198  0.00  0.00    +0.001 C 
ATOM     20  C   LIG A   1      -6.341  -3.570 131.063  0.00  0.00    +0.011 C 
ENDROOT
TORSDOF 0
ENDMDL
MODEL 7
REMARK VINA RESULT:      -7.1      7.927      9.725
REMARK  Name = NuBBE_2237
REMARK  3 active torsions:
REMARK  status: ('A' for Active; 'I' for Inactive)
REMARK    1  A    between atoms: C_1  and  C_2
REMARK    2  A    between atoms: C_17  and  C_18
REMARK    3  A    between atoms: C_17  and  C_19
REMARK                            x       y       z     vdW  Elec       q    Type
REMARK                         _______ _______ _______ _____ _____    ______ ____
ROOT
ATOM      1  C   LIG A   1      -3.205   6.595 132.383  0.00  0.00    +0.016 C 
ATOM      2  C   LIG A   1      -3.854   6.333 130.991  0.00  0.00    -0.007 C 
ATOM      3  C   LIG A   1      -3.202   5.040 130.340  0.00  0.00    +0.005 C 
ATOM      4  C   LIG A   1      -3.562   3.764 131.127  0.00  0.00    +0.006 C 
ATOM      5  C   LIG A   1      -5.045   3.549 131.343  0.00  0.00    +0.012 C 
ATOM      6  C   LIG A   1      -5.809   4.771 131.871  0.00  0.00    -0.004 C 
ATOM      7  C   LIG A   1      -5.840   4.890 133.401  0.00  0.00    +0.041 C 
ATOM      8  C   LIG A   1      -5.371   6.113 131.252  0.00  0.00    -0.061 C 
ATOM      9  C   LIG A   1      -6.348   7.010 131.004  0.00  0.00    -0.026 C 
ATOM     10  C   LIG A   1      -7.791   6.769 131.377  0.00  0.00    +0.035 C 
ATOM     11  C   LIG A   1      -8.088   5.557 132.379  0.00  0.00    +0.019 C 
ATOM     12  C   LIG A   1      -7.319   4.505 131.584  0.00  0.00    +0.020 C 
ATOM     13  C   LIG A   1      -7.328   4.956 133.632  0.00  0.00    -0.072 C 
ATOM     14  C   LIG A   1      -7.944   4.358 134.647  0.00  0.00    +0.008 C 
ATOM     15  C   LIG A   1      -3.379   4.974 128.768  0.00  0.00    -0.031 C 
ATOM     16  C   LIG A   1      -2.695   3.775 128.070  0.00  0.00    +0.011 C 
ATOM     17  C   LIG A   1      -4.848   4.932 128.295  0.00  0.00    +0.011 C 
ATOM     18  C   LIG A   1      -2.661   6.239 128.240  0.00  0.00    +0.007 C 
ATOM     19  C   LIG A   1      -3.386   7.503 128.652  0.00  0.00    +0.001 C 
ATOM     20  C   LIG A   1      -3.479   7.624 130.169  0.00  0.00    +0.011 C 
ENDROOT
TORSDOF 0
ENDMDL
MODEL 8
REMARK VINA RESULT:      -7.1      1.462      5.337
REMARK  Name = NuBBE_2237
REMARK  3 active torsions:
REMARK  status: ('A' for Active; 'I' for Inactive)
REMARK    1  A    between atoms: C_1  and  C_2
REMARK    2  A    between atoms: C_17  and  C_18
REMARK    3  A    between atoms: C_17  and  C_19
REMARK                            x       y       z     vdW  Elec       q    Type
REMARK                         _______ _______ _______ _____ _____    ______ ____
ROOT
ATOM      1  C   LIG A   1      -8.178   0.183 127.905  0.00  0.00    +0.016 C 
ATOM      2  C   LIG A   1      -6.974  -0.779 128.135  0.00  0.00    -0.007 C 
ATOM      3  C   LIG A   1      -7.327  -1.795 129.303  0.00  0.00    +0.005 C 
ATOM      4  C   LIG A   1      -8.459  -2.760 128.895  0.00  0.00    +0.006 C 
ATOM      5  C   LIG A   1      -8.216  -3.512 127.603  0.00  0.00    +0.012 C 
ATOM      6  C   LIG A   1      -7.762  -2.645 126.421  0.00  0.00    -0.004 C 
ATOM      7  C   LIG A   1      -8.907  -2.052 125.589  0.00  0.00    +0.041 C 
ATOM      8  C   LIG A   1      -6.759  -1.535 126.794  0.00  0.00    -0.061 C 
ATOM      9  C   LIG A   1      -5.773  -1.290 125.904  0.00  0.00    -0.026 C 
ATOM     10  C   LIG A   1      -5.683  -1.994 124.572  0.00  0.00    +0.035 C 
ATOM     11  C   LIG A   1      -6.975  -2.807 124.092  0.00  0.00    +0.019 C 
ATOM     12  C   LIG A   1      -7.135  -3.618 125.376  0.00  0.00    +0.020 C 
ATOM     13  C   LIG A   1      -8.536  -2.565 124.222  0.00  0.00    -0.072 C 
ATOM     14  C   LIG A   1      -9.422  -2.998 123.331  0.00  0.00    +0.008 C 
ATOM     15  C   LIG A   1      -6.050  -2.448 129.971  0.00  0.00    -0.031 C 
ATOM     16  C   LIG A   1      -6.330  -3.387 131.169  0.00  0.00    +0.011 C 
ATOM     17  C   LIG A   1      -5.178  -3.277 129.003  0.00  0.00    +0.011 C 
ATOM     18  C   LIG A   1      -5.255  -1.251 130.547  0.00  0.00    +0.007 C 
ATOM     19  C   LIG A   1      -4.701  -0.370 129.447  0.00  0.00    +0.001 C 
ATOM     20  C   LIG A   1      -5.813   0.193 128.570  0.00  0.00    +0.011 C 
ENDROOT
TORSDOF 0
ENDMDL
MODEL 9
REMARK VINA RESULT:      -7.0      6.732      9.700
REMARK  Name = NuBBE_2237
REMARK  3 active torsions:
REMARK  status: ('A' for Active; 'I' for Inactive)
REMARK    1  A    between atoms: C_1  and  C_2
REMARK    2  A    between atoms: C_17  and  C_18
REMARK    3  A    between atoms: C_17  and  C_19
REMARK                            x       y       z     vdW  Elec       q    Type
REMARK                         _______ _______ _______ _____ _____    ______ ____
ROOT
ATOM      1  C   LIG A   1      -7.617   3.723 129.356  0.00  0.00    +0.016 C 
ATOM      2  C   LIG A   1      -8.383   3.544 130.701  0.00  0.00    -0.007 C 
ATOM      3  C   LIG A   1      -7.452   4.001 131.903  0.00  0.00    +0.005 C 
ATOM      4  C   LIG A   1      -7.180   5.519 131.867  0.00  0.00    +0.006 C 
ATOM      5  C   LIG A   1      -8.422   6.384 131.810  0.00  0.00    +0.012 C 
ATOM      6  C   LIG A   1      -9.454   5.971 130.752  0.00  0.00    -0.004 C 
ATOM      7  C   LIG A   1      -9.233   6.599 129.368  0.00  0.00    +0.041 C 
ATOM      8  C   LIG A   1      -9.644   4.448 130.608  0.00  0.00    -0.061 C 
ATOM      9  C   LIG A   1     -10.904   4.017 130.387  0.00  0.00    -0.026 C 
ATOM     10  C   LIG A   1     -12.069   4.960 130.205  0.00  0.00    +0.035 C 
ATOM     11  C   LIG A   1     -11.722   6.501 129.951  0.00  0.00    +0.019 C 
ATOM     12  C   LIG A   1     -10.797   6.654 131.155  0.00  0.00    +0.020 C 
ATOM     13  C   LIG A   1     -10.575   7.252 129.157  0.00  0.00    -0.072 C 
ATOM     14  C   LIG A   1     -10.735   8.443 128.588  0.00  0.00    +0.008 C 
ATOM     15  C   LIG A   1      -7.889   3.395 133.298  0.00  0.00    -0.031 C 
ATOM     16  C   LIG A   1      -6.970   3.742 134.494  0.00  0.00    +0.011 C 
ATOM     17  C   LIG A   1      -9.309   3.797 133.750  0.00  0.00    +0.011 C 
ATOM     18  C   LIG A   1      -7.779   1.863 133.111  0.00  0.00    +0.007 C 
ATOM     19  C   LIG A   1      -8.813   1.347 132.131  0.00  0.00    +0.001 C 
ATOM     20  C   LIG A   1      -8.653   1.993 130.759  0.00  0.00    +0.011 C 
ENDROOT
TORSDOF 0
ENDMDL
