MODEL 1
REMARK VINA RESULT:      -8.0      0.000      0.000
REMARK  Name = NuBBE_1664
REMARK  12 active torsions:
REMARK  status: ('A' for Active; 'I' for Inactive)
REMARK    1  A    between atoms: C_6  and  O_12
REMARK    2  A    between atoms: C_7  and  O_10
REMARK    3  A    between atoms: C_8  and  O_9
REMARK    4  A    between atoms: O_10  and  C_11
REMARK    5  A    between atoms: O_12  and  C_13
REMARK    6  A    between atoms: C_16  and  C_18
REMARK    7  A    between atoms: C_18  and  O_19
REMARK    8  A    between atoms: C_20  and  O_28
REMARK    9  A    between atoms: C_22  and  O_27
REMARK   10  A    between atoms: C_24  and  O_26
REMARK   11  A    between atoms: C_31  and  C_32
REMARK   12  A    between atoms: C_35  and  O_38
REMARK                            x       y       z     vdW  Elec       q    Type
REMARK                         _______ _______ _______ _____ _____    ______ ____
ROOT
ATOM      1  O   LIG A   1      -8.511  -3.675 129.406  0.00  0.00    -0.286 OA
ATOM      2  C   LIG A   1      -7.477  -3.153 128.974  0.00  0.00    +0.204 A 
ATOM      3  C   LIG A   1      -7.442  -2.607 127.610  0.00  0.00    +0.110 A 
ATOM      4  C   LIG A   1      -6.327  -1.885 127.212  0.00  0.00    +0.146 A 
ATOM      5  C   LIG A   1      -6.235  -1.388 125.915  0.00  0.00    +0.096 A 
ATOM      6  C   LIG A   1      -7.257  -1.625 124.985  0.00  0.00    +0.173 A 
ATOM      7  C   LIG A   1      -8.428  -2.317 125.394  0.00  0.00    +0.204 A 
ATOM      8  C   LIG A   1      -8.496  -2.826 126.704  0.00  0.00    +0.177 A 
ATOM      9  O   LIG A   1      -5.272  -1.641 128.055  0.00  0.00    -0.462 OA
ATOM     10  C   LIG A   1      -5.251  -2.304 129.260  0.00  0.00    +0.208 A 
ATOM     11  C   LIG A   1      -6.239  -3.058 129.772  0.00  0.00    +0.064 A 
ENDROOT
BRANCH  11  12
ATOM     12  C   LIG A   1      -6.081  -3.744 131.063  0.00  0.00    -0.011 A 
ATOM     13  C   LIG A   1      -5.318  -4.916 131.158  0.00  0.00    +0.012 A 
ATOM     14  C   LIG A   1      -5.174  -5.575 132.385  0.00  0.00    +0.046 A 
ATOM     15  C   LIG A   1      -5.791  -5.059 133.519  0.00  0.00    +0.117 A 
ATOM     16  C   LIG A   1      -6.549  -3.898 133.446  0.00  0.00    +0.046 A 
ATOM     17  C   LIG A   1      -6.698  -3.241 132.220  0.00  0.00    +0.012 A 
BRANCH  15  18
ATOM     18  O   LIG A   1      -5.677  -5.673 134.732  0.00  0.00    -0.507 OA
ATOM     19  H   LIG A   1      -4.740  -5.686 134.989  0.00  0.00    +0.292 HD
ENDBRANCH  15  18
ENDBRANCH  11  12
BRANCH   8  20
ATOM     20  O   LIG A   1      -9.566  -3.590 127.098  0.00  0.00    -0.503 OA
ATOM     21  H   LIG A   1     -10.287  -3.521 126.435  0.00  0.00    +0.292 HD
ENDBRANCH   8  20
BRANCH   7  22
ATOM     22  O   LIG A   1      -9.403  -2.511 124.438  0.00  0.00    -0.488 OA
ATOM     23  C   LIG A   1      -9.289  -3.683 123.626  0.00  0.00    +0.277 C 
ENDBRANCH   7  22
BRANCH   6  24
ATOM     24  O   LIG A   1      -7.185  -1.160 123.690  0.00  0.00    -0.457 OA
BRANCH  24  25
ATOM     25  C   LIG A   1      -7.515   0.232 123.456  0.00  0.00    +0.339 C 
ATOM     26  O   LIG A   1      -6.670   1.089 124.246  0.00  0.00    -0.331 OA
ATOM     27  C   LIG A   1      -6.996   2.480 124.143  0.00  0.00    +0.179 C 
ATOM     28  C   LIG A   1      -8.403   2.725 124.707  0.00  0.00    +0.177 C 
ATOM     29  C   LIG A   1      -9.388   1.905 123.876  0.00  0.00    +0.180 C 
ATOM     30  C   LIG A   1      -9.003   0.425 123.837  0.00  0.00    +0.214 C 
BRANCH  30  31
ATOM     31  O   LIG A   1      -9.866  -0.228 122.890  0.00  0.00    -0.383 OA
ATOM     32  H   LIG A   1     -10.085   0.459 122.229  0.00  0.00    +0.210 HD
ENDBRANCH  30  31
BRANCH  29  33
ATOM     33  O   LIG A   1     -10.715   2.037 124.413  0.00  0.00    -0.386 OA
ATOM     34  H   LIG A   1     -10.630   2.706 125.125  0.00  0.00    +0.210 HD
ENDBRANCH  29  33
BRANCH  28  35
ATOM     35  O   LIG A   1      -8.822   4.093 124.648  0.00  0.00    -0.387 OA
ATOM     36  H   LIG A   1      -8.568   4.429 123.760  0.00  0.00    +0.210 HD
ENDBRANCH  28  35
BRANCH  27  37
ATOM     37  C   LIG A   1      -5.922   3.280 124.895  0.00  0.00    +0.190 C 
BRANCH  37  38
ATOM     38  O   LIG A   1      -5.956   4.657 124.530  0.00  0.00    -0.392 OA
ATOM     39  H   LIG A   1      -5.211   5.089 124.988  0.00  0.00    +0.209 HD
ENDBRANCH  37  38
ENDBRANCH  27  37
ENDBRANCH  24  25
ENDBRANCH   6  24
TORSDOF 11
ENDMDL
MODEL 2
REMARK VINA RESULT:      -7.9      6.503     11.300
REMARK  Name = NuBBE_1664
REMARK  12 active torsions:
REMARK  status: ('A' for Active; 'I' for Inactive)
REMARK    1  A    between atoms: C_6  and  O_12
REMARK    2  A    between atoms: C_7  and  O_10
REMARK    3  A    between atoms: C_8  and  O_9
REMARK    4  A    between atoms: O_10  and  C_11
REMARK    5  A    between atoms: O_12  and  C_13
REMARK    6  A    between atoms: C_16  and  C_18
REMARK    7  A    between atoms: C_18  and  O_19
REMARK    8  A    between atoms: C_20  and  O_28
REMARK    9  A    between atoms: C_22  and  O_27
REMARK   10  A    between atoms: C_24  and  O_26
REMARK   11  A    between atoms: C_31  and  C_32
REMARK   12  A    between atoms: C_35  and  O_38
REMARK                            x       y       z     vdW  Elec       q    Type
REMARK                         _______ _______ _______ _____ _____    ______ ____
ROOT
ATOM      1  O   LIG A   1      -9.641   6.615 132.958  0.00  0.00    -0.286 OA
ATOM      2  C   LIG A   1      -9.729   5.565 132.311  0.00  0.00    +0.204 A 
ATOM      3  C   LIG A   1      -8.980   4.373 132.734  0.00  0.00    +0.110 A 
ATOM      4  C   LIG A   1      -9.225   3.172 132.089  0.00  0.00    +0.146 A 
ATOM      5  C   LIG A   1      -8.506   2.029 132.430  0.00  0.00    +0.096 A 
ATOM      6  C   LIG A   1      -7.512   2.078 133.416  0.00  0.00    +0.173 A 
ATOM      7  C   LIG A   1      -7.287   3.290 134.124  0.00  0.00    +0.204 A 
ATOM      8  C   LIG A   1      -8.012   4.438 133.753  0.00  0.00    +0.177 A 
ATOM      9  O   LIG A   1     -10.158   3.052 131.090  0.00  0.00    -0.462 OA
ATOM     10  C   LIG A   1     -10.717   4.208 130.596  0.00  0.00    +0.208 A 
ATOM     11  C   LIG A   1     -10.558   5.445 131.096  0.00  0.00    +0.064 A 
ENDROOT
BRANCH  11  12
ATOM     12  C   LIG A   1     -11.187   6.610 130.455  0.00  0.00    -0.011 A 
ATOM     13  C   LIG A   1     -10.594   7.215 129.338  0.00  0.00    +0.012 A 
ATOM     14  C   LIG A   1     -11.187   8.329 128.732  0.00  0.00    +0.046 A 
ATOM     15  C   LIG A   1     -12.377   8.838 129.243  0.00  0.00    +0.117 A 
ATOM     16  C   LIG A   1     -12.981   8.251 130.348  0.00  0.00    +0.046 A 
ATOM     17  C   LIG A   1     -12.387   7.141 130.957  0.00  0.00    +0.012 A 
BRANCH  15  18
ATOM     18  O   LIG A   1     -12.984   9.923 128.683  0.00  0.00    -0.507 OA
ATOM     19  H   LIG A   1     -13.114   9.755 127.735  0.00  0.00    +0.292 HD
ENDBRANCH  15  18
ENDBRANCH  11  12
BRANCH   8  20
ATOM     20  O   LIG A   1      -7.745   5.649 134.343  0.00  0.00    -0.503 OA
ATOM     21  H   LIG A   1      -6.874   5.984 134.036  0.00  0.00    +0.292 HD
ENDBRANCH   8  20
BRANCH   7  22
ATOM     22  O   LIG A   1      -6.303   3.275 135.089  0.00  0.00    -0.488 OA
ATOM     23  C   LIG A   1      -4.997   3.696 134.689  0.00  0.00    +0.277 C 
ENDBRANCH   7  22
BRANCH   6  24
ATOM     24  O   LIG A   1      -6.773   0.968 133.763  0.00  0.00    -0.457 OA
BRANCH  24  25
ATOM     25  C   LIG A   1      -6.948  -0.231 132.968  0.00  0.00    +0.339 C 
ATOM     26  O   LIG A   1      -7.345  -1.335 133.803  0.00  0.00    -0.331 OA
ATOM     27  C   LIG A   1      -7.447  -2.582 133.106  0.00  0.00    +0.179 C 
ATOM     28  C   LIG A   1      -6.065  -2.995 132.577  0.00  0.00    +0.177 C 
ATOM     29  C   LIG A   1      -5.591  -1.907 131.615  0.00  0.00    +0.180 C 
ATOM     30  C   LIG A   1      -5.598  -0.526 132.272  0.00  0.00    +0.214 C 
BRANCH  30  31
ATOM     31  O   LIG A   1      -5.322   0.447 131.250  0.00  0.00    -0.383 OA
ATOM     32  H   LIG A   1      -5.428   1.315 131.688  0.00  0.00    +0.210 HD
ENDBRANCH  30  31
BRANCH  29  33
ATOM     33  O   LIG A   1      -4.263  -2.206 131.151  0.00  0.00    -0.386 OA
ATOM     34  H   LIG A   1      -3.833  -2.665 131.903  0.00  0.00    +0.210 HD
ENDBRANCH  29  33
BRANCH  28  35
ATOM     35  O   LIG A   1      -6.064  -4.235 131.863  0.00  0.00    -0.387 OA
ATOM     36  H   LIG A   1      -6.420  -4.046 130.965  0.00  0.00    +0.210 HD
ENDBRANCH  28  35
BRANCH  27  37
ATOM     37  C   LIG A   1      -8.033  -3.623 134.071  0.00  0.00    +0.190 C 
BRANCH  37  38
ATOM     38  O   LIG A   1      -8.876  -3.006 135.041  0.00  0.00    -0.392 OA
ATOM     39  H   LIG A   1      -9.039  -3.671 135.737  0.00  0.00    +0.209 HD
ENDBRANCH  37  38
ENDBRANCH  27  37
ENDBRANCH  24  25
ENDBRANCH   6  24
TORSDOF 11
ENDMDL
MODEL 3
REMARK VINA RESULT:      -7.8      4.564      7.888
REMARK  Name = NuBBE_1664
REMARK  12 active torsions:
REMARK  status: ('A' for Active; 'I' for Inactive)
REMARK    1  A    between atoms: C_6  and  O_12
REMARK    2  A    between atoms: C_7  and  O_10
REMARK    3  A    between atoms: C_8  and  O_9
REMARK    4  A    between atoms: O_10  and  C_11
REMARK    5  A    between atoms: O_12  and  C_13
REMARK    6  A    between atoms: C_16  and  C_18
REMARK    7  A    between atoms: C_18  and  O_19
REMARK    8  A    between atoms: C_20  and  O_28
REMARK    9  A    between atoms: C_22  and  O_27
REMARK   10  A    between atoms: C_24  and  O_26
REMARK   11  A    between atoms: C_31  and  C_32
REMARK   12  A    between atoms: C_35  and  O_38
REMARK                            x       y       z     vdW  Elec       q    Type
REMARK                         _______ _______ _______ _____ _____    ______ ____
ROOT
ATOM      1  O   LIG A   1      -4.577   6.249 127.019  0.00  0.00    -0.286 OA
ATOM      2  C   LIG A   1      -4.600   5.073 127.400  0.00  0.00    +0.204 A 
ATOM      3  C   LIG A   1      -5.193   4.033 126.547  0.00  0.00    +0.110 A 
ATOM      4  C   LIG A   1      -5.058   2.707 126.926  0.00  0.00    +0.146 A 
ATOM      5  C   LIG A   1      -5.641   1.694 126.169  0.00  0.00    +0.096 A 
ATOM      6  C   LIG A   1      -6.390   2.000 125.025  0.00  0.00    +0.173 A 
ATOM      7  C   LIG A   1      -6.492   3.350 124.595  0.00  0.00    +0.204 A 
ATOM      8  C   LIG A   1      -5.909   4.360 125.381  0.00  0.00    +0.177 A 
ATOM      9  O   LIG A   1      -4.369   2.332 128.052  0.00  0.00    -0.462 OA
ATOM     10  C   LIG A   1      -3.975   3.325 128.920  0.00  0.00    +0.208 A 
ATOM     11  C   LIG A   1      -4.061   4.649 128.707  0.00  0.00    +0.064 A 
ENDROOT
BRANCH  11  12
ATOM     12  C   LIG A   1      -3.633   5.613 129.731  0.00  0.00    -0.011 A 
ATOM     13  C   LIG A   1      -2.271   5.809 130.000  0.00  0.00    +0.012 A 
ATOM     14  C   LIG A   1      -1.862   6.720 130.981  0.00  0.00    +0.046 A 
ATOM     15  C   LIG A   1      -2.816   7.439 131.693  0.00  0.00    +0.117 A 
ATOM     16  C   LIG A   1      -4.171   7.261 131.440  0.00  0.00    +0.046 A 
ATOM     17  C   LIG A   1      -4.581   6.347 130.463  0.00  0.00    +0.012 A 
BRANCH  15  18
ATOM     18  O   LIG A   1      -2.459   8.333 132.659  0.00  0.00    -0.507 OA
ATOM     19  H   LIG A   1      -3.247   8.837 132.925  0.00  0.00    +0.292 HD
ENDBRANCH  15  18
ENDBRANCH  11  12
BRANCH   8  20
ATOM     20  O   LIG A   1      -6.080   5.683 125.052  0.00  0.00    -0.503 OA
ATOM     21  H   LIG A   1      -5.860   5.821 124.105  0.00  0.00    +0.292 HD
ENDBRANCH   8  20
BRANCH   7  22
ATOM     22  O   LIG A   1      -7.233   3.587 123.456  0.00  0.00    -0.488 OA
ATOM     23  C   LIG A   1      -6.519   3.644 122.219  0.00  0.00    +0.277 C 
ENDBRANCH   7  22
BRANCH   6  24
ATOM     24  O   LIG A   1      -6.993   1.020 124.266  0.00  0.00    -0.457 OA
BRANCH  24  25
ATOM     25  C   LIG A   1      -6.976  -0.335 124.781  0.00  0.00    +0.339 C 
ATOM     26  O   LIG A   1      -6.137  -1.173 123.964  0.00  0.00    -0.331 OA
ATOM     27  C   LIG A   1      -6.142  -2.552 124.352  0.00  0.00    +0.179 C 
ATOM     28  C   LIG A   1      -7.548  -3.138 124.162  0.00  0.00    +0.177 C 
ATOM     29  C   LIG A   1      -8.506  -2.351 125.055  0.00  0.00    +0.180 C 
ATOM     30  C   LIG A   1      -8.436  -0.849 124.777  0.00  0.00    +0.214 C 
BRANCH  30  31
ATOM     31  O   LIG A   1      -9.220  -0.181 125.780  0.00  0.00    -0.383 OA
ATOM     32  H   LIG A   1      -8.797   0.694 125.894  0.00  0.00    +0.210 HD
ENDBRANCH  30  31
BRANCH  29  33
ATOM     33  O   LIG A   1      -9.854  -2.810 124.855  0.00  0.00    -0.386 OA
ATOM     34  H   LIG A   1      -9.763  -3.623 124.314  0.00  0.00    +0.210 HD
ENDBRANCH  29  33
BRANCH  28  35
ATOM     35  O   LIG A   1      -7.655  -4.519 124.524  0.00  0.00    -0.387 OA
ATOM     36  H   LIG A   1      -8.372  -4.582 125.194  0.00  0.00    +0.210 HD
ENDBRANCH  28  35
BRANCH  27  37
ATOM     37  C   LIG A   1      -5.088  -3.288 123.512  0.00  0.00    +0.190 C 
BRANCH  37  38
ATOM     38  O   LIG A   1      -4.983  -4.655 123.901  0.00  0.00    -0.392 OA
ATOM     39  H   LIG A   1      -5.729  -4.835 124.504  0.00  0.00    +0.209 HD
ENDBRANCH  37  38
ENDBRANCH  27  37
ENDBRANCH  24  25
ENDBRANCH   6  24
TORSDOF 11
ENDMDL
MODEL 4
REMARK VINA RESULT:      -7.7      6.385     10.361
REMARK  Name = NuBBE_1664
REMARK  12 active torsions:
REMARK  status: ('A' for Active; 'I' for Inactive)
REMARK    1  A    between atoms: C_6  and  O_12
REMARK    2  A    between atoms: C_7  and  O_10
REMARK    3  A    between atoms: C_8  and  O_9
REMARK    4  A    between atoms: O_10  and  C_11
REMARK    5  A    between atoms: O_12  and  C_13
REMARK    6  A    between atoms: C_16  and  C_18
REMARK    7  A    between atoms: C_18  and  O_19
REMARK    8  A    between atoms: C_20  and  O_28
REMARK    9  A    between atoms: C_22  and  O_27
REMARK   10  A    between atoms: C_24  and  O_26
REMARK   11  A    between atoms: C_31  and  C_32
REMARK   12  A    between atoms: C_35  and  O_38
REMARK                            x       y       z     vdW  Elec       q    Type
REMARK                         _______ _______ _______ _____ _____    ______ ____
ROOT
ATOM      1  O   LIG A   1      -9.730   6.459 132.704  0.00  0.00    -0.286 OA
ATOM      2  C   LIG A   1      -9.953   5.450 132.026  0.00  0.00    +0.204 A 
ATOM      3  C   LIG A   1      -9.292   4.179 132.357  0.00  0.00    +0.110 A 
ATOM      4  C   LIG A   1      -9.685   3.032 131.686  0.00  0.00    +0.146 A 
ATOM      5  C   LIG A   1      -9.055   1.816 131.938  0.00  0.00    +0.096 A 
ATOM      6  C   LIG A   1      -8.002   1.736 132.860  0.00  0.00    +0.173 A 
ATOM      7  C   LIG A   1      -7.625   2.892 133.595  0.00  0.00    +0.204 A 
ATOM      8  C   LIG A   1      -8.262   4.114 133.313  0.00  0.00    +0.177 A 
ATOM      9  O   LIG A   1     -10.684   3.038 130.745  0.00  0.00    -0.462 OA
ATOM     10  C   LIG A   1     -11.164   4.259 130.331  0.00  0.00    +0.208 A 
ATOM     11  C   LIG A   1     -10.862   5.455 130.864  0.00  0.00    +0.064 A 
ENDROOT
BRANCH  11  12
ATOM     12  C   LIG A   1     -11.420   6.698 130.307  0.00  0.00    -0.011 A 
ATOM     13  C   LIG A   1     -10.848   7.288 129.171  0.00  0.00    +0.012 A 
ATOM     14  C   LIG A   1     -11.373   8.475 128.645  0.00  0.00    +0.046 A 
ATOM     15  C   LIG A   1     -12.471   9.071 129.255  0.00  0.00    +0.117 A 
ATOM     16  C   LIG A   1     -13.052   8.500 130.380  0.00  0.00    +0.046 A 
ATOM     17  C   LIG A   1     -12.527   7.316 130.909  0.00  0.00    +0.012 A 
BRANCH  15  18
ATOM     18  O   LIG A   1     -13.009  10.229 128.775  0.00  0.00    -0.507 OA
ATOM     19  H   LIG A   1     -13.285  10.088 127.854  0.00  0.00    +0.292 HD
ENDBRANCH  15  18
ENDBRANCH  11  12
BRANCH   8  20
ATOM     20  O   LIG A   1      -7.850   5.271 133.928  0.00  0.00    -0.503 OA
ATOM     21  H   LIG A   1      -7.837   5.144 134.902  0.00  0.00    +0.292 HD
ENDBRANCH   8  20
BRANCH   7  22
ATOM     22  O   LIG A   1      -6.590   2.749 134.494  0.00  0.00    -0.488 OA
ATOM     23  C   LIG A   1      -5.301   3.206 134.075  0.00  0.00    +0.277 C 
ENDBRANCH   7  22
BRANCH   6  24
ATOM     24  O   LIG A   1      -7.349   0.550 133.118  0.00  0.00    -0.457 OA
BRANCH  24  25
ATOM     25  C   LIG A   1      -6.334   0.122 132.176  0.00  0.00    +0.339 C 
ATOM     26  O   LIG A   1      -6.022   1.185 131.255  0.00  0.00    -0.331 OA
ATOM     27  C   LIG A   1      -5.093   0.810 130.231  0.00  0.00    +0.179 C 
ATOM     28  C   LIG A   1      -5.713  -0.279 129.344  0.00  0.00    +0.177 C 
ATOM     29  C   LIG A   1      -6.013  -1.487 130.230  0.00  0.00    +0.180 C 
ATOM     30  C   LIG A   1      -6.891  -1.110 131.424  0.00  0.00    +0.214 C 
BRANCH  30  31
ATOM     31  O   LIG A   1      -6.963  -2.254 132.293  0.00  0.00    -0.383 OA
ATOM     32  H   LIG A   1      -7.771  -2.118 132.827  0.00  0.00    +0.210 HD
ENDBRANCH  30  31
BRANCH  29  33
ATOM     33  O   LIG A   1      -6.669  -2.510 129.461  0.00  0.00    -0.386 OA
ATOM     34  H   LIG A   1      -6.671  -3.298 130.045  0.00  0.00    +0.210 HD
ENDBRANCH  29  33
BRANCH  28  35
ATOM     35  O   LIG A   1      -4.857  -0.721 128.285  0.00  0.00    -0.387 OA
ATOM     36  H   LIG A   1      -5.442  -0.991 127.541  0.00  0.00    +0.210 HD
ENDBRANCH  28  35
BRANCH  27  37
ATOM     37  C   LIG A   1      -4.729   2.071 129.433  0.00  0.00    +0.190 C 
BRANCH  37  38
ATOM     38  O   LIG A   1      -3.620   1.830 128.570  0.00  0.00    -0.392 OA
ATOM     39  H   LIG A   1      -2.914   2.447 128.839  0.00  0.00    +0.209 HD
ENDBRANCH  37  38
ENDBRANCH  27  37
ENDBRANCH  24  25
ENDBRANCH   6  24
TORSDOF 11
ENDMDL
MODEL 5
REMARK VINA RESULT:      -7.7      5.240      9.176
REMARK  Name = NuBBE_1664
REMARK  12 active torsions:
REMARK  status: ('A' for Active; 'I' for Inactive)
REMARK    1  A    between atoms: C_6  and  O_12
REMARK    2  A    between atoms: C_7  and  O_10
REMARK    3  A    between atoms: C_8  and  O_9
REMARK    4  A    between atoms: O_10  and  C_11
REMARK    5  A    between atoms: O_12  and  C_13
REMARK    6  A    between atoms: C_16  and  C_18
REMARK    7  A    between atoms: C_18  and  O_19
REMARK    8  A    between atoms: C_20  and  O_28
REMARK    9  A    between atoms: C_22  and  O_27
REMARK   10  A    between atoms: C_24  and  O_26
REMARK   11  A    between atoms: C_31  and  C_32
REMARK   12  A    between atoms: C_35  and  O_38
REMARK                            x       y       z     vdW  Elec       q    Type
REMARK                         _______ _______ _______ _____ _____    ______ ____
ROOT
ATOM      1  O   LIG A   1      -8.382   6.428 129.709  0.00  0.00    -0.286 OA
ATOM      2  C   LIG A   1      -9.087   5.415 129.772  0.00  0.00    +0.204 A 
ATOM      3  C   LIG A   1      -8.478   4.083 129.647  0.00  0.00    +0.110 A 
ATOM      4  C   LIG A   1      -9.265   2.968 129.885  0.00  0.00    +0.146 A 
ATOM      5  C   LIG A   1      -8.737   1.688 129.734  0.00  0.00    +0.096 A 
ATOM      6  C   LIG A   1      -7.410   1.506 129.322  0.00  0.00    +0.173 A 
ATOM      7  C   LIG A   1      -6.576   2.640 129.127  0.00  0.00    +0.204 A 
ATOM      8  C   LIG A   1      -7.132   3.925 129.267  0.00  0.00    +0.177 A 
ATOM      9  O   LIG A   1     -10.581   3.065 130.258  0.00  0.00    -0.462 OA
ATOM     10  C   LIG A   1     -11.172   4.306 130.200  0.00  0.00    +0.208 A 
ATOM     11  C   LIG A   1     -10.550   5.473 129.959  0.00  0.00    +0.064 A 
ENDROOT
BRANCH  11  12
ATOM     12  C   LIG A   1     -11.302   6.735 129.891  0.00  0.00    -0.011 A 
ATOM     13  C   LIG A   1     -12.125   7.132 130.954  0.00  0.00    +0.012 A 
ATOM     14  C   LIG A   1     -12.849   8.329 130.888  0.00  0.00    +0.046 A 
ATOM     15  C   LIG A   1     -12.746   9.132 129.757  0.00  0.00    +0.117 A 
ATOM     16  C   LIG A   1     -11.934   8.757 128.694  0.00  0.00    +0.046 A 
ATOM     17  C   LIG A   1     -11.214   7.559 128.757  0.00  0.00    +0.012 A 
BRANCH  15  18
ATOM     18  O   LIG A   1     -13.437  10.303 129.652  0.00  0.00    -0.507 OA
ATOM     19  H   LIG A   1     -13.344  10.797 130.484  0.00  0.00    +0.292 HD
ENDBRANCH  15  18
ENDBRANCH  11  12
BRANCH   8  20
ATOM     20  O   LIG A   1      -6.384   5.041 128.982  0.00  0.00    -0.503 OA
ATOM     21  H   LIG A   1      -5.476   4.933 129.343  0.00  0.00    +0.292 HD
ENDBRANCH   8  20
BRANCH   7  22
ATOM     22  O   LIG A   1      -5.278   2.398 128.732  0.00  0.00    -0.488 OA
ATOM     23  C   LIG A   1      -4.278   2.410 129.753  0.00  0.00    +0.277 C 
ENDBRANCH   7  22
BRANCH   6  24
ATOM     24  O   LIG A   1      -6.866   0.252 129.149  0.00  0.00    -0.457 OA
BRANCH  24  25
ATOM     25  C   LIG A   1      -7.060  -0.395 127.867  0.00  0.00    +0.339 C 
ATOM     26  O   LIG A   1      -7.911   0.406 127.024  0.00  0.00    -0.331 OA
ATOM     27  C   LIG A   1      -8.229  -0.210 125.770  0.00  0.00    +0.179 C 
ATOM     28  C   LIG A   1      -9.044  -1.489 126.013  0.00  0.00    +0.177 C 
ATOM     29  C   LIG A   1      -8.185  -2.438 126.846  0.00  0.00    +0.180 C 
ATOM     30  C   LIG A   1      -7.699  -1.777 128.138  0.00  0.00    +0.214 C 
BRANCH  30  31
ATOM     31  O   LIG A   1      -6.756  -2.668 128.757  0.00  0.00    -0.383 OA
ATOM     32  H   LIG A   1      -6.963  -3.552 128.395  0.00  0.00    +0.210 HD
ENDBRANCH  30  31
BRANCH  29  33
ATOM     33  O   LIG A   1      -8.933  -3.622 127.170  0.00  0.00    -0.386 OA
ATOM     34  H   LIG A   1      -8.464  -4.011 127.939  0.00  0.00    +0.210 HD
ENDBRANCH  29  33
BRANCH  28  35
ATOM     35  O   LIG A   1      -9.412  -2.178 124.814  0.00  0.00    -0.387 OA
ATOM     36  H   LIG A   1     -10.102  -2.833 125.063  0.00  0.00    +0.210 HD
ENDBRANCH  28  35
BRANCH  27  37
ATOM     37  C   LIG A   1      -8.993   0.812 124.916  0.00  0.00    +0.190 C 
BRANCH  37  38
ATOM     38  O   LIG A   1     -10.401   0.607 125.006  0.00  0.00    -0.392 OA
ATOM     39  H   LIG A   1     -10.788   1.442 125.330  0.00  0.00    +0.209 HD
ENDBRANCH  37  38
ENDBRANCH  27  37
ENDBRANCH  24  25
ENDBRANCH   6  24
TORSDOF 11
ENDMDL
MODEL 6
REMARK VINA RESULT:      -7.7      3.291      9.722
REMARK  Name = NuBBE_1664
REMARK  12 active torsions:
REMARK  status: ('A' for Active; 'I' for Inactive)
REMARK    1  A    between atoms: C_6  and  O_12
REMARK    2  A    between atoms: C_7  and  O_10
REMARK    3  A    between atoms: C_8  and  O_9
REMARK    4  A    between atoms: O_10  and  C_11
REMARK    5  A    between atoms: O_12  and  C_13
REMARK    6  A    between atoms: C_16  and  C_18
REMARK    7  A    between atoms: C_18  and  O_19
REMARK    8  A    between atoms: C_20  and  O_28
REMARK    9  A    between atoms: C_22  and  O_27
REMARK   10  A    between atoms: C_24  and  O_26
REMARK   11  A    between atoms: C_31  and  C_32
REMARK   12  A    between atoms: C_35  and  O_38
REMARK                            x       y       z     vdW  Elec       q    Type
REMARK                         _______ _______ _______ _____ _____    ______ ____
ROOT
ATOM      1  O   LIG A   1      -8.409   4.037 124.846  0.00  0.00    -0.286 OA
ATOM      2  C   LIG A   1      -8.037   2.859 124.816  0.00  0.00    +0.204 A 
ATOM      3  C   LIG A   1      -7.912   2.092 126.064  0.00  0.00    +0.110 A 
ATOM      4  C   LIG A   1      -7.652   0.733 125.985  0.00  0.00    +0.146 A 
ATOM      5  C   LIG A   1      -7.484  -0.021 127.144  0.00  0.00    +0.096 A 
ATOM      6  C   LIG A   1      -7.556   0.584 128.406  0.00  0.00    +0.173 A 
ATOM      7  C   LIG A   1      -7.874   1.965 128.503  0.00  0.00    +0.204 A 
ATOM      8  C   LIG A   1      -8.024   2.714 127.321  0.00  0.00    +0.177 A 
ATOM      9  O   LIG A   1      -7.534   0.077 124.786  0.00  0.00    -0.462 OA
ATOM     10  C   LIG A   1      -7.482   0.841 123.642  0.00  0.00    +0.208 A 
ATOM     11  C   LIG A   1      -7.688   2.166 123.560  0.00  0.00    +0.064 A 
ENDROOT
BRANCH  11  12
ATOM     12  C   LIG A   1      -7.572   2.875 122.277  0.00  0.00    -0.011 A 
ATOM     13  C   LIG A   1      -8.719   3.242 121.560  0.00  0.00    +0.012 A 
ATOM     14  C   LIG A   1      -8.611   3.910 120.334  0.00  0.00    +0.046 A 
ATOM     15  C   LIG A   1      -7.352   4.213 119.826  0.00  0.00    +0.117 A 
ATOM     16  C   LIG A   1      -6.203   3.860 120.522  0.00  0.00    +0.046 A 
ATOM     17  C   LIG A   1      -6.311   3.189 121.745  0.00  0.00    +0.012 A 
BRANCH  15  18
ATOM     18  O   LIG A   1      -7.203   4.859 118.634  0.00  0.00    -0.507 OA
ATOM     19  H   LIG A   1      -8.071   4.919 118.200  0.00  0.00    +0.292 HD
ENDBRANCH  15  18
ENDBRANCH  11  12
BRANCH   8  20
ATOM     20  O   LIG A   1      -8.227   4.071 127.379  0.00  0.00    -0.503 OA
ATOM     21  H   LIG A   1      -7.918   4.417 128.245  0.00  0.00    +0.292 HD
ENDBRANCH   8  20
BRANCH   7  22
ATOM     22  O   LIG A   1      -7.940   2.502 129.772  0.00  0.00    -0.488 OA
ATOM     23  C   LIG A   1      -9.243   2.661 130.339  0.00  0.00    +0.277 C 
ENDBRANCH   7  22
BRANCH   6  24
ATOM     24  O   LIG A   1      -7.377  -0.134 129.568  0.00  0.00    -0.457 OA
BRANCH  24  25
ATOM     25  C   LIG A   1      -6.017  -0.402 129.992  0.00  0.00    +0.339 C 
ATOM     26  O   LIG A   1      -5.622  -1.731 129.603  0.00  0.00    -0.331 OA
ATOM     27  C   LIG A   1      -4.320  -2.108 130.068  0.00  0.00    +0.179 C 
ATOM     28  C   LIG A   1      -4.312  -2.152 131.603  0.00  0.00    +0.177 C 
ATOM     29  C   LIG A   1      -4.651  -0.752 132.111  0.00  0.00    +0.180 C 
ATOM     30  C   LIG A   1      -5.971  -0.242 131.530  0.00  0.00    +0.214 C 
BRANCH  30  31
ATOM     31  O   LIG A   1      -6.113   1.138 131.909  0.00  0.00    -0.383 OA
ATOM     32  H   LIG A   1      -5.531   1.631 131.299  0.00  0.00    +0.210 HD
ENDBRANCH  30  31
BRANCH  29  33
ATOM     33  O   LIG A   1      -4.735  -0.757 133.547  0.00  0.00    -0.386 OA
ATOM     34  H   LIG A   1      -5.619  -0.384 133.747  0.00  0.00    +0.210 HD
ENDBRANCH  29  33
BRANCH  28  35
ATOM     35  O   LIG A   1      -3.049  -2.522 132.166  0.00  0.00    -0.387 OA
ATOM     36  H   LIG A   1      -2.378  -2.413 131.454  0.00  0.00    +0.210 HD
ENDBRANCH  28  35
BRANCH  27  37
ATOM     37  C   LIG A   1      -3.967  -3.467 129.446  0.00  0.00    +0.190 C 
BRANCH  37  38
ATOM     38  O   LIG A   1      -2.556  -3.612 129.296  0.00  0.00    -0.392 OA
ATOM     39  H   LIG A   1      -2.298  -3.072 128.526  0.00  0.00    +0.209 HD
ENDBRANCH  37  38
ENDBRANCH  27  37
ENDBRANCH  24  25
ENDBRANCH   6  24
TORSDOF 11
ENDMDL
MODEL 7
REMARK VINA RESULT:      -7.6      6.163     10.686
REMARK  Name = NuBBE_1664
REMARK  12 active torsions:
REMARK  status: ('A' for Active; 'I' for Inactive)
REMARK    1  A    between atoms: C_6  and  O_12
REMARK    2  A    between atoms: C_7  and  O_10
REMARK    3  A    between atoms: C_8  and  O_9
REMARK    4  A    between atoms: O_10  and  C_11
REMARK    5  A    between atoms: O_12  and  C_13
REMARK    6  A    between atoms: C_16  and  C_18
REMARK    7  A    between atoms: C_18  and  O_19
REMARK    8  A    between atoms: C_20  and  O_28
REMARK    9  A    between atoms: C_22  and  O_27
REMARK   10  A    between atoms: C_24  and  O_26
REMARK   11  A    between atoms: C_31  and  C_32
REMARK   12  A    between atoms: C_35  and  O_38
REMARK                            x       y       z     vdW  Elec       q    Type
REMARK                         _______ _______ _______ _____ _____    ______ ____
ROOT
ATOM      1  O   LIG A   1      -9.139   6.546 132.142  0.00  0.00    -0.286 OA
ATOM      2  C   LIG A   1      -9.547   5.506 131.612  0.00  0.00    +0.204 A 
ATOM      3  C   LIG A   1      -8.873   4.228 131.881  0.00  0.00    +0.110 A 
ATOM      4  C   LIG A   1      -9.449   3.060 131.406  0.00  0.00    +0.146 A 
ATOM      5  C   LIG A   1      -8.820   1.833 131.602  0.00  0.00    +0.096 A 
ATOM      6  C   LIG A   1      -7.587   1.760 132.264  0.00  0.00    +0.173 A 
ATOM      7  C   LIG A   1      -7.011   2.942 132.803  0.00  0.00    +0.204 A 
ATOM      8  C   LIG A   1      -7.653   4.174 132.581  0.00  0.00    +0.177 A 
ATOM      9  O   LIG A   1     -10.637   3.054 130.719  0.00  0.00    -0.462 OA
ATOM     10  C   LIG A   1     -11.156   4.269 130.332  0.00  0.00    +0.208 A 
ATOM     11  C   LIG A   1     -10.698   5.481 130.689  0.00  0.00    +0.064 A 
ENDROOT
BRANCH  11  12
ATOM     12  C   LIG A   1     -11.325   6.710 130.180  0.00  0.00    -0.011 A 
ATOM     13  C   LIG A   1     -10.850   7.319 129.010  0.00  0.00    +0.012 A 
ATOM     14  C   LIG A   1     -11.440   8.494 128.528  0.00  0.00    +0.046 A 
ATOM     15  C   LIG A   1     -12.508   9.059 129.216  0.00  0.00    +0.117 A 
ATOM     16  C   LIG A   1     -12.994   8.470 130.377  0.00  0.00    +0.046 A 
ATOM     17  C   LIG A   1     -12.403   7.298 130.861  0.00  0.00    +0.012 A 
BRANCH  15  18
ATOM     18  O   LIG A   1     -13.108  10.204 128.782  0.00  0.00    -0.507 OA
ATOM     19  H   LIG A   1     -12.488  10.944 128.896  0.00  0.00    +0.292 HD
ENDBRANCH  15  18
ENDBRANCH  11  12
BRANCH   8  20
ATOM     20  O   LIG A   1      -7.070   5.346 132.995  0.00  0.00    -0.503 OA
ATOM     21  H   LIG A   1      -6.185   5.443 132.580  0.00  0.00    +0.292 HD
ENDBRANCH   8  20
BRANCH   7  22
ATOM     22  O   LIG A   1      -5.802   2.806 133.453  0.00  0.00    -0.488 OA
ATOM     23  C   LIG A   1      -5.836   2.771 134.882  0.00  0.00    +0.277 C 
ENDBRANCH   7  22
BRANCH   6  24
ATOM     24  O   LIG A   1      -6.934   0.562 132.458  0.00  0.00    -0.457 OA
BRANCH  24  25
ATOM     25  C   LIG A   1      -6.157   0.034 131.354  0.00  0.00    +0.339 C 
ATOM     26  O   LIG A   1      -6.857  -1.056 130.723  0.00  0.00    -0.331 OA
ATOM     27  C   LIG A   1      -6.112  -1.696 129.680  0.00  0.00    +0.179 C 
ATOM     28  C   LIG A   1      -4.855  -2.353 130.270  0.00  0.00    +0.177 C 
ATOM     29  C   LIG A   1      -4.007  -1.252 130.904  0.00  0.00    +0.180 C 
ATOM     30  C   LIG A   1      -4.802  -0.443 131.929  0.00  0.00    +0.214 C 
BRANCH  30  31
ATOM     31  O   LIG A   1      -3.991   0.675 132.329  0.00  0.00    -0.383 OA
ATOM     32  H   LIG A   1      -4.601   1.279 132.798  0.00  0.00    +0.210 HD
ENDBRANCH  30  31
BRANCH  29  33
ATOM     33  O   LIG A   1      -2.853  -1.826 131.542  0.00  0.00    -0.386 OA
ATOM     34  H   LIG A   1      -2.914  -1.535 132.476  0.00  0.00    +0.210 HD
ENDBRANCH  29  33
BRANCH  28  35
ATOM     35  O   LIG A   1      -4.042  -3.023 129.301  0.00  0.00    -0.387 OA
ATOM     36  H   LIG A   1      -3.284  -2.427 129.106  0.00  0.00    +0.210 HD
ENDBRANCH  28  35
BRANCH  27  37
ATOM     37  C   LIG A   1      -7.032  -2.715 128.993  0.00  0.00    +0.190 C 
BRANCH  37  38
ATOM     38  O   LIG A   1      -6.935  -3.995 129.613  0.00  0.00    -0.392 OA
ATOM     39  H   LIG A   1      -7.845  -4.274 129.830  0.00  0.00    +0.209 HD
ENDBRANCH  37  38
ENDBRANCH  27  37
ENDBRANCH  24  25
ENDBRANCH   6  24
TORSDOF 11
ENDMDL
MODEL 8
REMARK VINA RESULT:      -7.6      5.753     10.591
REMARK  Name = NuBBE_1664
REMARK  12 active torsions:
REMARK  status: ('A' for Active; 'I' for Inactive)
REMARK    1  A    between atoms: C_6  and  O_12
REMARK    2  A    between atoms: C_7  and  O_10
REMARK    3  A    between atoms: C_8  and  O_9
REMARK    4  A    between atoms: O_10  and  C_11
REMARK    5  A    between atoms: O_12  and  C_13
REMARK    6  A    between atoms: C_16  and  C_18
REMARK    7  A    between atoms: C_18  and  O_19
REMARK    8  A    between atoms: C_20  and  O_28
REMARK    9  A    between atoms: C_22  and  O_27
REMARK   10  A    between atoms: C_24  and  O_26
REMARK   11  A    between atoms: C_31  and  C_32
REMARK   12  A    between atoms: C_35  and  O_38
REMARK                            x       y       z     vdW  Elec       q    Type
REMARK                         _______ _______ _______ _____ _____    ______ ____
ROOT
ATOM      1  O   LIG A   1      -8.117   7.384 130.369  0.00  0.00    -0.286 OA
ATOM      2  C   LIG A   1      -8.636   6.266 130.459  0.00  0.00    +0.204 A 
ATOM      3  C   LIG A   1      -7.800   5.083 130.712  0.00  0.00    +0.110 A 
ATOM      4  C   LIG A   1      -8.424   3.873 130.969  0.00  0.00    +0.146 A 
ATOM      5  C   LIG A   1      -7.669   2.720 131.171  0.00  0.00    +0.096 A 
ATOM      6  C   LIG A   1      -6.270   2.760 131.099  0.00  0.00    +0.173 A 
ATOM      7  C   LIG A   1      -5.616   4.004 130.889  0.00  0.00    +0.204 A 
ATOM      8  C   LIG A   1      -6.396   5.155 130.671  0.00  0.00    +0.177 A 
ATOM      9  O   LIG A   1      -9.789   3.747 131.022  0.00  0.00    -0.462 OA
ATOM     10  C   LIG A   1     -10.546   4.821 130.613  0.00  0.00    +0.208 A 
ATOM     11  C   LIG A   1     -10.087   6.047 130.307  0.00  0.00    +0.064 A 
ENDROOT
BRANCH  11  12
ATOM     12  C   LIG A   1     -10.999   7.107 129.850  0.00  0.00    -0.011 A 
ATOM     13  C   LIG A   1     -12.009   7.590 130.693  0.00  0.00    +0.012 A 
ATOM     14  C   LIG A   1     -12.883   8.593 130.256  0.00  0.00    +0.046 A 
ATOM     15  C   LIG A   1     -12.745   9.115 128.975  0.00  0.00    +0.117 A 
ATOM     16  C   LIG A   1     -11.748   8.651 128.125  0.00  0.00    +0.046 A 
ATOM     17  C   LIG A   1     -10.877   7.646 128.559  0.00  0.00    +0.012 A 
BRANCH  15  18
ATOM     18  O   LIG A   1     -13.578  10.090 128.511  0.00  0.00    -0.507 OA
ATOM     19  H   LIG A   1     -13.888  10.621 129.264  0.00  0.00    +0.292 HD
ENDBRANCH  15  18
ENDBRANCH  11  12
BRANCH   8  20
ATOM     20  O   LIG A   1      -5.797   6.351 130.360  0.00  0.00    -0.503 OA
ATOM     21  H   LIG A   1      -6.481   7.012 130.115  0.00  0.00    +0.292 HD
ENDBRANCH   8  20
BRANCH   7  22
ATOM     22  O   LIG A   1      -4.238   3.983 130.838  0.00  0.00    -0.488 OA
ATOM     23  C   LIG A   1      -3.640   3.885 129.543  0.00  0.00    +0.277 C 
ENDBRANCH   7  22
BRANCH   6  24
ATOM     24  O   LIG A   1      -5.499   1.633 131.279  0.00  0.00    -0.457 OA
BRANCH  24  25
ATOM     25  C   LIG A   1      -5.964   0.397 130.682  0.00  0.00    +0.339 C 
ATOM     26  O   LIG A   1      -6.417  -0.515 131.701  0.00  0.00    -0.331 OA
ATOM     27  C   LIG A   1      -6.806  -1.798 131.199  0.00  0.00    +0.179 C 
ATOM     28  C   LIG A   1      -5.589  -2.504 130.583  0.00  0.00    +0.177 C 
ATOM     29  C   LIG A   1      -5.080  -1.637 129.433  0.00  0.00    +0.180 C 
ATOM     30  C   LIG A   1      -4.782  -0.208 129.889  0.00  0.00    +0.214 C 
BRANCH  30  31
ATOM     31  O   LIG A   1      -4.493   0.574 128.717  0.00  0.00    -0.383 OA
ATOM     32  H   LIG A   1      -5.036   0.180 128.007  0.00  0.00    +0.210 HD
ENDBRANCH  30  31
BRANCH  29  33
ATOM     33  O   LIG A   1      -3.889  -2.216 128.871  0.00  0.00    -0.386 OA
ATOM     34  H   LIG A   1      -3.437  -2.642 129.630  0.00  0.00    +0.210 HD
ENDBRANCH  29  33
BRANCH  28  35
ATOM     35  O   LIG A   1      -5.879  -3.801 130.052  0.00  0.00    -0.387 OA
ATOM     36  H   LIG A   1      -5.502  -4.457 130.681  0.00  0.00    +0.210 HD
ENDBRANCH  28  35
BRANCH  27  37
ATOM     37  C   LIG A   1      -7.417  -2.599 132.358  0.00  0.00    +0.190 C 
BRANCH  37  38
ATOM     38  O   LIG A   1      -6.521  -3.610 132.812  0.00  0.00    -0.392 OA
ATOM     39  H   LIG A   1      -6.744  -3.786 133.746  0.00  0.00    +0.209 HD
ENDBRANCH  37  38
ENDBRANCH  27  37
ENDBRANCH  24  25
ENDBRANCH   6  24
TORSDOF 11
ENDMDL
MODEL 9
REMARK VINA RESULT:      -7.4      4.007     10.677
REMARK  Name = NuBBE_1664
REMARK  12 active torsions:
REMARK  status: ('A' for Active; 'I' for Inactive)
REMARK    1  A    between atoms: C_6  and  O_12
REMARK    2  A    between atoms: C_7  and  O_10
REMARK    3  A    between atoms: C_8  and  O_9
REMARK    4  A    between atoms: O_10  and  C_11
REMARK    5  A    between atoms: O_12  and  C_13
REMARK    6  A    between atoms: C_16  and  C_18
REMARK    7  A    between atoms: C_18  and  O_19
REMARK    8  A    between atoms: C_20  and  O_28
REMARK    9  A    between atoms: C_22  and  O_27
REMARK   10  A    between atoms: C_24  and  O_26
REMARK   11  A    between atoms: C_31  and  C_32
REMARK   12  A    between atoms: C_35  and  O_38
REMARK                            x       y       z     vdW  Elec       q    Type
REMARK                         _______ _______ _______ _____ _____    ______ ____
ROOT
ATOM      1  O   LIG A   1      -8.541  -1.163 130.758  0.00  0.00    -0.286 OA
ATOM      2  C   LIG A   1      -7.602  -1.967 130.780  0.00  0.00    +0.204 A 
ATOM      3  C   LIG A   1      -6.769  -2.094 131.985  0.00  0.00    +0.110 A 
ATOM      4  C   LIG A   1      -5.833  -3.114 132.039  0.00  0.00    +0.146 A 
ATOM      5  C   LIG A   1      -4.994  -3.243 133.143  0.00  0.00    +0.096 A 
ATOM      6  C   LIG A   1      -5.070  -2.335 134.207  0.00  0.00    +0.173 A 
ATOM      7  C   LIG A   1      -6.061  -1.317 134.189  0.00  0.00    +0.204 A 
ATOM      8  C   LIG A   1      -6.888  -1.192 133.058  0.00  0.00    +0.177 A 
ATOM      9  O   LIG A   1      -5.675  -4.022 131.022  0.00  0.00    -0.462 OA
ATOM     10  C   LIG A   1      -6.340  -3.779 129.841  0.00  0.00    +0.208 A 
ATOM     11  C   LIG A   1      -7.256  -2.819 129.626  0.00  0.00    +0.064 A 
ENDROOT
BRANCH  11  12
ATOM     12  C   LIG A   1      -7.875  -2.642 128.304  0.00  0.00    -0.011 A 
ATOM     13  C   LIG A   1      -7.626  -1.487 127.550  0.00  0.00    +0.012 A 
ATOM     14  C   LIG A   1      -8.221  -1.312 126.295  0.00  0.00    +0.046 A 
ATOM     15  C   LIG A   1      -9.064  -2.297 125.791  0.00  0.00    +0.117 A 
ATOM     16  C   LIG A   1      -9.321  -3.450 126.522  0.00  0.00    +0.046 A 
ATOM     17  C   LIG A   1      -8.731  -3.623 127.778  0.00  0.00    +0.012 A 
BRANCH  15  18
ATOM     18  O   LIG A   1      -9.665  -2.163 124.574  0.00  0.00    -0.507 OA
ATOM     19  H   LIG A   1      -9.928  -1.235 124.456  0.00  0.00    +0.292 HD
ENDBRANCH  15  18
ENDBRANCH  11  12
BRANCH   8  20
ATOM     20  O   LIG A   1      -7.783  -0.156 132.962  0.00  0.00    -0.503 OA
ATOM     21  H   LIG A   1      -7.397   0.569 132.422  0.00  0.00    +0.292 HD
ENDBRANCH   8  20
BRANCH   7  22
ATOM     22  O   LIG A   1      -6.093  -0.459 135.269  0.00  0.00    -0.488 OA
ATOM     23  C   LIG A   1      -5.346   0.754 135.153  0.00  0.00    +0.277 C 
ENDBRANCH   7  22
BRANCH   6  24
ATOM     24  O   LIG A   1      -4.242  -2.428 135.305  0.00  0.00    -0.457 OA
BRANCH  24  25
ATOM     25  C   LIG A   1      -2.859  -2.797 135.075  0.00  0.00    +0.339 C 
ATOM     26  O   LIG A   1      -2.569  -4.068 135.687  0.00  0.00    -0.331 OA
ATOM     27  C   LIG A   1      -1.195  -4.459 135.586  0.00  0.00    +0.179 C 
ATOM     28  C   LIG A   1      -0.315  -3.466 136.359  0.00  0.00    +0.177 C 
ATOM     29  C   LIG A   1      -0.502  -2.088 135.727  0.00  0.00    +0.180 C 
ATOM     30  C   LIG A   1      -1.976  -1.680 135.682  0.00  0.00    +0.214 C 
BRANCH  30  31
ATOM     31  O   LIG A   1      -2.072  -0.471 134.910  0.00  0.00    -0.383 OA
ATOM     32  H   LIG A   1      -2.076   0.252 135.568  0.00  0.00    +0.210 HD
ENDBRANCH  30  31
BRANCH  29  33
ATOM     33  O   LIG A   1       0.241  -1.103 136.465  0.00  0.00    -0.386 OA
ATOM     34  H   LIG A   1       0.722  -1.615 137.149  0.00  0.00    +0.210 HD
ENDBRANCH  29  33
BRANCH  28  35
ATOM     35  O   LIG A   1       1.082  -3.774 136.317  0.00  0.00    -0.387 OA
ATOM     36  H   LIG A   1       1.554  -3.008 136.715  0.00  0.00    +0.210 HD
ENDBRANCH  28  35
BRANCH  27  37
ATOM     37  C   LIG A   1      -1.066  -5.891 136.126  0.00  0.00    +0.190 C 
BRANCH  37  38
ATOM     38  O   LIG A   1       0.096  -6.534 135.607  0.00  0.00    -0.392 OA
ATOM     39  H   LIG A   1      -0.070  -7.494 135.649  0.00  0.00    +0.209 HD
ENDBRANCH  37  38
ENDBRANCH  27  37
ENDBRANCH  24  25
ENDBRANCH   6  24
TORSDOF 11
ENDMDL
