MODEL 1
REMARK VINA RESULT:      -6.5      0.000      0.000
REMARK  Name = NuBBE_475
REMARK  10 active torsions:
REMARK  status: ('A' for Active; 'I' for Inactive)
REMARK    1  A    between atoms: C_2  and  C_3
REMARK    2  A    between atoms: C_2  and  O_26
REMARK    3  A    between atoms: C_6  and  O_22
REMARK    4  A    between atoms: C_11  and  O_16
REMARK    5  A    between atoms: C_13  and  C_15
REMARK    6  A    between atoms: O_16  and  C_17
REMARK    7  A    between atoms: C_17  and  C_18
REMARK    8  A    between atoms: O_22  and  C_23
REMARK    9  A    between atoms: C_23  and  C_24
REMARK   10  A    between atoms: O_26  and  C_27
REMARK                            x       y       z     vdW  Elec       q    Type
REMARK                         _______ _______ _______ _____ _____    ______ ____
ROOT
ATOM      1  C   LIG A   1      -7.625   2.420 125.473  0.00  0.00    +0.074 C 
ATOM      2  C   LIG A   1      -8.268   3.445 124.896  0.00  0.00    +0.202 C 
ATOM      3  O   LIG A   1      -8.653   3.502 123.580  0.00  0.00    -0.460 OA
ATOM      4  C   LIG A   1      -8.000   2.565 122.708  0.00  0.00    +0.370 C 
ATOM      5  C   LIG A   1      -7.935   1.158 123.319  0.00  0.00    +0.085 C 
ATOM      6  C   LIG A   1      -7.257   1.173 124.704  0.00  0.00    +0.043 C 
ATOM      7  C   LIG A   1      -7.728  -0.145 125.368  0.00  0.00    +0.054 C 
ATOM      8  C   LIG A   1      -8.852  -0.722 124.494  0.00  0.00    +0.180 C 
ATOM      9  C   LIG A   1      -9.284   0.485 123.640  0.00  0.00    +0.037 C 
ATOM     10  C   LIG A   1     -10.128   0.138 122.428  0.00  0.00    +0.012 C 
ENDROOT
BRANCH   1  12
ATOM     11  O   LIG A   1      -6.107   2.480 127.351  0.00  0.00    -0.245 OA
ATOM     12  C   LIG A   1      -7.228   2.599 126.902  0.00  0.00    +0.338 C 
BRANCH  12  13
ATOM     13  O   LIG A   1      -8.372   2.813 127.615  0.00  0.00    -0.465 OA
ATOM     14  C   LIG A   1      -8.580   1.910 128.694  0.00  0.00    +0.280 C 
ENDBRANCH  12  13
ENDBRANCH   1  12
BRANCH   8  15
ATOM     15  O   LIG A   1      -8.354  -1.790 123.660  0.00  0.00    -0.461 OA
BRANCH  15  16
ATOM     16  C   LIG A   1      -8.944  -3.003 123.837  0.00  0.00    +0.304 C 
ATOM     17  C   LIG A   1      -8.124  -3.879 124.746  0.00  0.00    +0.136 C 
ATOM     18  O   LIG A   1     -10.019  -3.354 123.356  0.00  0.00    -0.251 OA
ENDBRANCH  15  16
ENDBRANCH   8  15
BRANCH   4  19
ATOM     19  O   LIG A   1      -6.647   2.982 122.434  0.00  0.00    -0.425 OA
BRANCH  19  20
ATOM     20  C   LIG A   1      -6.481   3.679 121.277  0.00  0.00    +0.307 C 
ATOM     21  C   LIG A   1      -5.050   4.122 121.167  0.00  0.00    +0.136 C 
ATOM     22  O   LIG A   1      -7.357   3.971 120.483  0.00  0.00    -0.251 OA
ENDBRANCH  19  20
ENDBRANCH   4  19
TORSDOF 6
ENDMDL
MODEL 2
REMARK VINA RESULT:      -6.1      2.113      6.296
REMARK  Name = NuBBE_475
REMARK  10 active torsions:
REMARK  status: ('A' for Active; 'I' for Inactive)
REMARK    1  A    between atoms: C_2  and  C_3
REMARK    2  A    between atoms: C_2  and  O_26
REMARK    3  A    between atoms: C_6  and  O_22
REMARK    4  A    between atoms: C_11  and  O_16
REMARK    5  A    between atoms: C_13  and  C_15
REMARK    6  A    between atoms: O_16  and  C_17
REMARK    7  A    between atoms: C_17  and  C_18
REMARK    8  A    between atoms: O_22  and  C_23
REMARK    9  A    between atoms: C_23  and  C_24
REMARK   10  A    between atoms: O_26  and  C_27
REMARK                            x       y       z     vdW  Elec       q    Type
REMARK                         _______ _______ _______ _____ _____    ______ ____
ROOT
ATOM      1  C   LIG A   1      -7.857   3.016 122.143  0.00  0.00    +0.074 C 
ATOM      2  C   LIG A   1      -9.086   2.604 122.485  0.00  0.00    +0.202 C 
ATOM      3  O   LIG A   1      -9.394   1.856 123.594  0.00  0.00    -0.460 OA
ATOM      4  C   LIG A   1      -8.283   1.181 124.206  0.00  0.00    +0.370 C 
ATOM      5  C   LIG A   1      -7.056   2.096 124.342  0.00  0.00    +0.085 C 
ATOM      6  C   LIG A   1      -6.644   2.695 122.983  0.00  0.00    +0.043 C 
ATOM      7  C   LIG A   1      -5.788   3.930 123.360  0.00  0.00    +0.054 C 
ATOM      8  C   LIG A   1      -5.965   4.166 124.868  0.00  0.00    +0.180 C 
ATOM      9  C   LIG A   1      -7.237   3.363 125.200  0.00  0.00    +0.037 C 
ATOM     10  C   LIG A   1      -7.461   3.108 126.679  0.00  0.00    +0.012 C 
ENDROOT
BRANCH   1  12
ATOM     11  O   LIG A   1      -6.702   4.124 120.334  0.00  0.00    -0.245 OA
ATOM     12  C   LIG A   1      -7.736   3.752 120.849  0.00  0.00    +0.338 C 
BRANCH  12  13
ATOM     13  O   LIG A   1      -9.003   4.019 120.416  0.00  0.00    -0.465 OA
ATOM     14  C   LIG A   1      -9.122   4.236 119.015  0.00  0.00    +0.280 C 
ENDBRANCH  12  13
ENDBRANCH   1  12
BRANCH   8  15
ATOM     15  O   LIG A   1      -4.830   3.657 125.602  0.00  0.00    -0.461 OA
BRANCH  15  16
ATOM     16  C   LIG A   1      -4.290   4.505 126.519  0.00  0.00    +0.304 C 
ATOM     17  C   LIG A   1      -2.927   4.038 126.955  0.00  0.00    +0.136 C 
ATOM     18  O   LIG A   1      -4.810   5.538 126.933  0.00  0.00    -0.251 OA
ENDBRANCH  15  16
ENDBRANCH   8  15
BRANCH   4  19
ATOM     19  O   LIG A   1      -7.886   0.038 123.423  0.00  0.00    -0.425 OA
BRANCH  19  20
ATOM     20  C   LIG A   1      -8.598  -1.098 123.659  0.00  0.00    +0.307 C 
ATOM     21  C   LIG A   1      -8.270  -2.115 122.603  0.00  0.00    +0.136 C 
ATOM     22  O   LIG A   1      -9.427  -1.257 124.537  0.00  0.00    -0.251 OA
ENDBRANCH  19  20
ENDBRANCH   4  19
TORSDOF 6
ENDMDL
MODEL 3
REMARK VINA RESULT:      -6.1      5.639      9.490
REMARK  Name = NuBBE_475
REMARK  10 active torsions:
REMARK  status: ('A' for Active; 'I' for Inactive)
REMARK    1  A    between atoms: C_2  and  C_3
REMARK    2  A    between atoms: C_2  and  O_26
REMARK    3  A    between atoms: C_6  and  O_22
REMARK    4  A    between atoms: C_11  and  O_16
REMARK    5  A    between atoms: C_13  and  C_15
REMARK    6  A    between atoms: O_16  and  C_17
REMARK    7  A    between atoms: C_17  and  C_18
REMARK    8  A    between atoms: O_22  and  C_23
REMARK    9  A    between atoms: C_23  and  C_24
REMARK   10  A    between atoms: O_26  and  C_27
REMARK                            x       y       z     vdW  Elec       q    Type
REMARK                         _______ _______ _______ _____ _____    ______ ____
ROOT
ATOM      1  C   LIG A   1     -10.300   6.079 130.049  0.00  0.00    +0.074 C 
ATOM      2  C   LIG A   1     -11.338   5.234 129.978  0.00  0.00    +0.202 C 
ATOM      3  O   LIG A   1     -11.302   3.902 130.307  0.00  0.00    -0.460 OA
ATOM      4  C   LIG A   1      -9.989   3.322 130.377  0.00  0.00    +0.370 C 
ATOM      5  C   LIG A   1      -9.002   4.220 131.137  0.00  0.00    +0.085 C 
ATOM      6  C   LIG A   1      -8.939   5.634 130.527  0.00  0.00    +0.043 C 
ATOM      7  C   LIG A   1      -8.348   6.508 131.663  0.00  0.00    +0.054 C 
ATOM      8  C   LIG A   1      -8.358   5.660 132.944  0.00  0.00    +0.180 C 
ATOM      9  C   LIG A   1      -9.348   4.529 132.607  0.00  0.00    +0.037 C 
ATOM     10  C   LIG A   1      -9.293   3.335 133.541  0.00  0.00    +0.012 C 
ENDROOT
BRANCH   1  12
ATOM     11  O   LIG A   1      -9.756   8.152 128.936  0.00  0.00    -0.245 OA
ATOM     12  C   LIG A   1     -10.539   7.472 129.564  0.00  0.00    +0.338 C 
BRANCH  12  13
ATOM     13  O   LIG A   1     -11.751   7.867 130.053  0.00  0.00    -0.465 OA
ATOM     14  C   LIG A   1     -12.404   8.874 129.289  0.00  0.00    +0.280 C 
ENDBRANCH  12  13
ENDBRANCH   1  12
BRANCH   8  15
ATOM     15  O   LIG A   1      -7.043   5.129 133.215  0.00  0.00    -0.461 OA
BRANCH  15  16
ATOM     16  C   LIG A   1      -6.392   5.676 134.277  0.00  0.00    +0.304 C 
ATOM     17  C   LIG A   1      -7.268   5.696 135.501  0.00  0.00    +0.136 C 
ATOM     18  O   LIG A   1      -5.232   6.081 134.275  0.00  0.00    -0.251 OA
ENDBRANCH  15  16
ENDBRANCH   8  15
BRANCH   4  19
ATOM     19  O   LIG A   1      -9.453   3.112 129.054  0.00  0.00    -0.425 OA
BRANCH  19  20
ATOM     20  C   LIG A   1      -8.421   2.227 128.984  0.00  0.00    +0.307 C 
ATOM     21  C   LIG A   1      -7.355   2.782 128.083  0.00  0.00    +0.136 C 
ATOM     22  O   LIG A   1      -8.383   1.126 129.502  0.00  0.00    -0.251 OA
ENDBRANCH  19  20
ENDBRANCH   4  19
TORSDOF 6
ENDMDL
MODEL 4
REMARK VINA RESULT:      -6.0      2.809      6.885
REMARK  Name = NuBBE_475
REMARK  10 active torsions:
REMARK  status: ('A' for Active; 'I' for Inactive)
REMARK    1  A    between atoms: C_2  and  C_3
REMARK    2  A    between atoms: C_2  and  O_26
REMARK    3  A    between atoms: C_6  and  O_22
REMARK    4  A    between atoms: C_11  and  O_16
REMARK    5  A    between atoms: C_13  and  C_15
REMARK    6  A    between atoms: O_16  and  C_17
REMARK    7  A    between atoms: C_17  and  C_18
REMARK    8  A    between atoms: O_22  and  C_23
REMARK    9  A    between atoms: C_23  and  C_24
REMARK   10  A    between atoms: O_26  and  C_27
REMARK                            x       y       z     vdW  Elec       q    Type
REMARK                         _______ _______ _______ _____ _____    ______ ____
ROOT
ATOM      1  C   LIG A   1      -6.733  -2.431 124.515  0.00  0.00    +0.074 C 
ATOM      2  C   LIG A   1      -7.697  -3.344 124.703  0.00  0.00    +0.202 C 
ATOM      3  O   LIG A   1      -8.762  -3.210 125.557  0.00  0.00    -0.460 OA
ATOM      4  C   LIG A   1      -8.620  -2.192 126.562  0.00  0.00    +0.370 C 
ATOM      5  C   LIG A   1      -8.067  -0.882 125.980  0.00  0.00    +0.085 C 
ATOM      6  C   LIG A   1      -6.732  -1.109 125.245  0.00  0.00    +0.043 C 
ATOM      7  C   LIG A   1      -6.597   0.127 124.320  0.00  0.00    +0.054 C 
ATOM      8  C   LIG A   1      -7.948   0.859 124.335  0.00  0.00    +0.180 C 
ATOM      9  C   LIG A   1      -8.915  -0.205 124.886  0.00  0.00    +0.037 C 
ATOM     10  C   LIG A   1     -10.253   0.334 125.356  0.00  0.00    +0.012 C 
ENDROOT
BRANCH   1  12
ATOM     11  O   LIG A   1      -5.514  -2.493 122.431  0.00  0.00    -0.245 OA
ATOM     12  C   LIG A   1      -5.620  -2.815 123.596  0.00  0.00    +0.338 C 
BRANCH  12  13
ATOM     13  O   LIG A   1      -4.813  -3.679 124.279  0.00  0.00    -0.465 OA
ATOM     14  C   LIG A   1      -4.280  -4.742 123.498  0.00  0.00    +0.280 C 
ENDBRANCH  12  13
ENDBRANCH   1  12
BRANCH   8  15
ATOM     15  O   LIG A   1      -7.896   2.009 125.208  0.00  0.00    -0.461 OA
BRANCH  15  16
ATOM     16  C   LIG A   1      -8.340   3.178 124.672  0.00  0.00    +0.304 C 
ATOM     17  C   LIG A   1      -8.324   3.128 123.168  0.00  0.00    +0.136 C 
ATOM     18  O   LIG A   1      -8.736   4.152 125.308  0.00  0.00    -0.251 OA
ENDBRANCH  15  16
ENDBRANCH   8  15
BRANCH   4  19
ATOM     19  O   LIG A   1      -7.714  -2.622 127.598  0.00  0.00    -0.425 OA
BRANCH  19  20
ATOM     20  C   LIG A   1      -8.280  -3.371 128.584  0.00  0.00    +0.307 C 
ATOM     21  C   LIG A   1      -7.404  -3.328 129.803  0.00  0.00    +0.136 C 
ATOM     22  O   LIG A   1      -9.295  -4.037 128.486  0.00  0.00    -0.251 OA
ENDBRANCH  19  20
ENDBRANCH   4  19
TORSDOF 6
ENDMDL
MODEL 5
REMARK VINA RESULT:      -5.9      2.468      3.499
REMARK  Name = NuBBE_475
REMARK  10 active torsions:
REMARK  status: ('A' for Active; 'I' for Inactive)
REMARK    1  A    between atoms: C_2  and  C_3
REMARK    2  A    between atoms: C_2  and  O_26
REMARK    3  A    between atoms: C_6  and  O_22
REMARK    4  A    between atoms: C_11  and  O_16
REMARK    5  A    between atoms: C_13  and  C_15
REMARK    6  A    between atoms: O_16  and  C_17
REMARK    7  A    between atoms: C_17  and  C_18
REMARK    8  A    between atoms: O_22  and  C_23
REMARK    9  A    between atoms: C_23  and  C_24
REMARK   10  A    between atoms: O_26  and  C_27
REMARK                            x       y       z     vdW  Elec       q    Type
REMARK                         _______ _______ _______ _____ _____    ______ ____
ROOT
ATOM      1  C   LIG A   1      -6.859   1.517 126.504  0.00  0.00    +0.074 C 
ATOM      2  C   LIG A   1      -7.893   1.781 127.316  0.00  0.00    +0.202 C 
ATOM      3  O   LIG A   1      -9.174   1.317 127.147  0.00  0.00    -0.460 OA
ATOM      4  C   LIG A   1      -9.481   0.830 125.830  0.00  0.00    +0.370 C 
ATOM      5  C   LIG A   1      -8.370  -0.074 125.275  0.00  0.00    +0.085 C 
ATOM      6  C   LIG A   1      -7.004   0.641 125.283  0.00  0.00    +0.043 C 
ATOM      7  C   LIG A   1      -5.975  -0.515 125.206  0.00  0.00    +0.054 C 
ATOM      8  C   LIG A   1      -6.741  -1.827 125.439  0.00  0.00    +0.180 C 
ATOM      9  C   LIG A   1      -8.059  -1.352 126.078  0.00  0.00    +0.037 C 
ATOM     10  C   LIG A   1      -9.169  -2.385 126.090  0.00  0.00    +0.012 C 
ENDROOT
BRANCH   1  12
ATOM     11  O   LIG A   1      -5.004   2.175 127.905  0.00  0.00    -0.245 OA
ATOM     12  C   LIG A   1      -5.566   2.192 126.830  0.00  0.00    +0.338 C 
BRANCH  12  13
ATOM     13  O   LIG A   1      -5.200   2.915 125.731  0.00  0.00    -0.465 OA
ATOM     14  C   LIG A   1      -5.438   4.314 125.831  0.00  0.00    +0.280 C 
ENDBRANCH  12  13
ENDBRANCH   1  12
BRANCH   8  15
ATOM     15  O   LIG A   1      -6.991  -2.501 124.186  0.00  0.00    -0.461 OA
BRANCH  15  16
ATOM     16  C   LIG A   1      -5.912  -2.651 123.370  0.00  0.00    +0.304 C 
ATOM     17  C   LIG A   1      -4.917  -3.617 123.957  0.00  0.00    +0.136 C 
ATOM     18  O   LIG A   1      -5.757  -2.106 122.281  0.00  0.00    -0.251 OA
ENDBRANCH  15  16
ENDBRANCH   8  15
BRANCH   4  19
ATOM     19  O   LIG A   1      -9.650   1.925 124.908  0.00  0.00    -0.425 OA
BRANCH  19  20
ATOM     20  C   LIG A   1     -10.009   1.565 123.645  0.00  0.00    +0.307 C 
ATOM     21  C   LIG A   1      -9.130   2.281 122.659  0.00  0.00    +0.136 C 
ATOM     22  O   LIG A   1     -10.938   0.839 123.341  0.00  0.00    -0.251 OA
ENDBRANCH  19  20
ENDBRANCH   4  19
TORSDOF 6
ENDMDL
MODEL 6
REMARK VINA RESULT:      -5.9      5.607      9.941
REMARK  Name = NuBBE_475
REMARK  10 active torsions:
REMARK  status: ('A' for Active; 'I' for Inactive)
REMARK    1  A    between atoms: C_2  and  C_3
REMARK    2  A    between atoms: C_2  and  O_26
REMARK    3  A    between atoms: C_6  and  O_22
REMARK    4  A    between atoms: C_11  and  O_16
REMARK    5  A    between atoms: C_13  and  C_15
REMARK    6  A    between atoms: O_16  and  C_17
REMARK    7  A    between atoms: C_17  and  C_18
REMARK    8  A    between atoms: O_22  and  C_23
REMARK    9  A    between atoms: C_23  and  C_24
REMARK   10  A    between atoms: O_26  and  C_27
REMARK                            x       y       z     vdW  Elec       q    Type
REMARK                         _______ _______ _______ _____ _____    ______ ____
ROOT
ATOM      1  C   LIG A   1      -8.848   4.698 129.879  0.00  0.00    +0.074 C 
ATOM      2  C   LIG A   1      -9.026   3.931 130.964  0.00  0.00    +0.202 C 
ATOM      3  O   LIG A   1      -9.475   4.373 132.183  0.00  0.00    -0.460 OA
ATOM      4  C   LIG A   1      -9.393   5.792 132.391  0.00  0.00    +0.370 C 
ATOM      5  C   LIG A   1      -9.895   6.583 131.174  0.00  0.00    +0.085 C 
ATOM      6  C   LIG A   1      -9.146   6.178 129.889  0.00  0.00    +0.043 C 
ATOM      7  C   LIG A   1     -10.082   6.645 128.745  0.00  0.00    +0.054 C 
ATOM      8  C   LIG A   1     -11.426   7.030 129.383  0.00  0.00    +0.180 C 
ATOM      9  C   LIG A   1     -11.363   6.355 130.765  0.00  0.00    +0.037 C 
ATOM     10  C   LIG A   1     -12.390   6.853 131.764  0.00  0.00    +0.012 C 
ENDROOT
BRANCH   1  12
ATOM     11  O   LIG A   1      -7.423   4.486 127.940  0.00  0.00    -0.245 OA
ATOM     12  C   LIG A   1      -8.273   4.027 128.675  0.00  0.00    +0.338 C 
BRANCH  12  13
ATOM     13  O   LIG A   1      -8.957   2.858 128.498  0.00  0.00    -0.465 OA
ATOM     14  C   LIG A   1      -8.219   1.826 127.856  0.00  0.00    +0.280 C 
ENDBRANCH  12  13
ENDBRANCH   1  12
BRANCH   8  15
ATOM     15  O   LIG A   1     -11.536   8.464 129.515  0.00  0.00    -0.461 OA
BRANCH  15  16
ATOM     16  C   LIG A   1     -12.698   9.012 129.069  0.00  0.00    +0.304 C 
ATOM     17  C   LIG A   1     -13.415   8.077 128.133  0.00  0.00    +0.136 C 
ATOM     18  O   LIG A   1     -13.144  10.110 129.393  0.00  0.00    -0.251 OA
ENDBRANCH  15  16
ENDBRANCH   8  15
BRANCH   4  19
ATOM     19  O   LIG A   1      -8.029   6.194 132.635  0.00  0.00    -0.425 OA
BRANCH  19  20
ATOM     20  C   LIG A   1      -7.366   5.449 133.563  0.00  0.00    +0.307 C 
ATOM     21  C   LIG A   1      -7.923   5.747 134.925  0.00  0.00    +0.136 C 
ATOM     22  O   LIG A   1      -6.422   4.711 133.349  0.00  0.00    -0.251 OA
ENDBRANCH  19  20
ENDBRANCH   4  19
TORSDOF 6
ENDMDL
MODEL 7
REMARK VINA RESULT:      -5.9      3.557      5.609
REMARK  Name = NuBBE_475
REMARK  10 active torsions:
REMARK  status: ('A' for Active; 'I' for Inactive)
REMARK    1  A    between atoms: C_2  and  C_3
REMARK    2  A    between atoms: C_2  and  O_26
REMARK    3  A    between atoms: C_6  and  O_22
REMARK    4  A    between atoms: C_11  and  O_16
REMARK    5  A    between atoms: C_13  and  C_15
REMARK    6  A    between atoms: O_16  and  C_17
REMARK    7  A    between atoms: C_17  and  C_18
REMARK    8  A    between atoms: O_22  and  C_23
REMARK    9  A    between atoms: C_23  and  C_24
REMARK   10  A    between atoms: O_26  and  C_27
REMARK                            x       y       z     vdW  Elec       q    Type
REMARK                         _______ _______ _______ _____ _____    ______ ____
ROOT
ATOM      1  C   LIG A   1      -8.289   0.074 126.691  0.00  0.00    +0.074 C 
ATOM      2  C   LIG A   1      -9.310  -0.247 125.883  0.00  0.00    +0.202 C 
ATOM      3  O   LIG A   1      -9.553  -1.496 125.369  0.00  0.00    -0.460 OA
ATOM      4  C   LIG A   1      -8.442  -2.406 125.414  0.00  0.00    +0.370 C 
ATOM      5  C   LIG A   1      -7.726  -2.376 126.772  0.00  0.00    +0.085 C 
ATOM      6  C   LIG A   1      -7.274  -0.949 127.142  0.00  0.00    +0.043 C 
ATOM      7  C   LIG A   1      -7.068  -1.006 128.677  0.00  0.00    +0.054 C 
ATOM      8  C   LIG A   1      -7.664  -2.334 129.169  0.00  0.00    +0.180 C 
ATOM      9  C   LIG A   1      -8.571  -2.764 128.002  0.00  0.00    +0.037 C 
ATOM     10  C   LIG A   1      -9.013  -4.215 128.041  0.00  0.00    +0.012 C 
ENDROOT
BRANCH   1  12
ATOM     11  O   LIG A   1      -8.886   2.114 127.839  0.00  0.00    -0.245 OA
ATOM     12  C   LIG A   1      -8.165   1.514 127.069  0.00  0.00    +0.338 C 
BRANCH  12  13
ATOM     13  O   LIG A   1      -7.165   2.047 126.307  0.00  0.00    -0.465 OA
ATOM     14  C   LIG A   1      -6.071   2.578 127.045  0.00  0.00    +0.280 C 
ENDBRANCH  12  13
ENDBRANCH   1  12
BRANCH   8  15
ATOM     15  O   LIG A   1      -6.622  -3.307 129.398  0.00  0.00    -0.461 OA
BRANCH  15  16
ATOM     16  C   LIG A   1      -6.430  -3.674 130.694  0.00  0.00    +0.304 C 
ATOM     17  C   LIG A   1      -5.526  -4.874 130.791  0.00  0.00    +0.136 C 
ATOM     18  O   LIG A   1      -6.896  -3.104 131.677  0.00  0.00    -0.251 OA
ENDBRANCH  15  16
ENDBRANCH   8  15
BRANCH   4  19
ATOM     19  O   LIG A   1      -7.468  -2.072 124.404  0.00  0.00    -0.425 OA
BRANCH  19  20
ATOM     20  C   LIG A   1      -6.597  -3.069 124.090  0.00  0.00    +0.307 C 
ATOM     21  C   LIG A   1      -5.358  -2.472 123.486  0.00  0.00    +0.136 C 
ATOM     22  O   LIG A   1      -6.802  -4.264 124.205  0.00  0.00    -0.251 OA
ENDBRANCH  19  20
ENDBRANCH   4  19
TORSDOF 6
ENDMDL
MODEL 8
REMARK VINA RESULT:      -5.8      3.336      5.030
REMARK  Name = NuBBE_475
REMARK  10 active torsions:
REMARK  status: ('A' for Active; 'I' for Inactive)
REMARK    1  A    between atoms: C_2  and  C_3
REMARK    2  A    between atoms: C_2  and  O_26
REMARK    3  A    between atoms: C_6  and  O_22
REMARK    4  A    between atoms: C_11  and  O_16
REMARK    5  A    between atoms: C_13  and  C_15
REMARK    6  A    between atoms: O_16  and  C_17
REMARK    7  A    between atoms: C_17  and  C_18
REMARK    8  A    between atoms: O_22  and  C_23
REMARK    9  A    between atoms: C_23  and  C_24
REMARK   10  A    between atoms: O_26  and  C_27
REMARK                            x       y       z     vdW  Elec       q    Type
REMARK                         _______ _______ _______ _____ _____    ______ ____
ROOT
ATOM      1  C   LIG A   1      -8.340   0.754 126.793  0.00  0.00    +0.074 C 
ATOM      2  C   LIG A   1      -9.494   0.493 126.161  0.00  0.00    +0.202 C 
ATOM      3  O   LIG A   1      -9.813  -0.692 125.547  0.00  0.00    -0.460 OA
ATOM      4  C   LIG A   1      -8.699  -1.553 125.259  0.00  0.00    +0.370 C 
ATOM      5  C   LIG A   1      -7.731  -1.662 126.447  0.00  0.00    +0.085 C 
ATOM      6  C   LIG A   1      -7.240  -0.274 126.904  0.00  0.00    +0.043 C 
ATOM      7  C   LIG A   1      -6.736  -0.511 128.350  0.00  0.00    +0.054 C 
ATOM      8  C   LIG A   1      -7.202  -1.913 128.772  0.00  0.00    +0.180 C 
ATOM      9  C   LIG A   1      -8.312  -2.234 127.755  0.00  0.00    +0.037 C 
ATOM     10  C   LIG A   1      -8.714  -3.695 127.690  0.00  0.00    +0.012 C 
ENDROOT
BRANCH   1  12
ATOM     11  O   LIG A   1      -7.324   2.938 126.973  0.00  0.00    -0.245 OA
ATOM     12  C   LIG A   1      -8.168   2.140 127.323  0.00  0.00    +0.338 C 
BRANCH  12  13
ATOM     13  O   LIG A   1      -9.063   2.296 128.342  0.00  0.00    -0.465 OA
ATOM     14  C   LIG A   1      -8.535   2.908 129.512  0.00  0.00    +0.280 C 
ENDBRANCH  12  13
ENDBRANCH   1  12
BRANCH   8  15
ATOM     15  O   LIG A   1      -6.119  -2.863 128.669  0.00  0.00    -0.461 OA
BRANCH  15  16
ATOM     16  C   LIG A   1      -5.490  -3.172 129.835  0.00  0.00    +0.304 C 
ATOM     17  C   LIG A   1      -5.970  -4.491 130.379  0.00  0.00    +0.136 C 
ATOM     18  O   LIG A   1      -4.619  -2.498 130.380  0.00  0.00    -0.251 OA
ENDBRANCH  15  16
ENDBRANCH   8  15
BRANCH   4  19
ATOM     19  O   LIG A   1      -7.948  -1.056 124.133  0.00  0.00    -0.425 OA
BRANCH  19  20
ATOM     20  C   LIG A   1      -7.798  -1.937 123.105  0.00  0.00    +0.307 C 
ATOM     21  C   LIG A   1      -8.887  -2.968 123.176  0.00  0.00    +0.136 C 
ATOM     22  O   LIG A   1      -6.889  -1.947 122.295  0.00  0.00    -0.251 OA
ENDBRANCH  19  20
ENDBRANCH   4  19
TORSDOF 6
ENDMDL
MODEL 9
REMARK VINA RESULT:      -5.8      1.645      4.671
REMARK  Name = NuBBE_475
REMARK  10 active torsions:
REMARK  status: ('A' for Active; 'I' for Inactive)
REMARK    1  A    between atoms: C_2  and  C_3
REMARK    2  A    between atoms: C_2  and  O_26
REMARK    3  A    between atoms: C_6  and  O_22
REMARK    4  A    between atoms: C_11  and  O_16
REMARK    5  A    between atoms: C_13  and  C_15
REMARK    6  A    between atoms: O_16  and  C_17
REMARK    7  A    between atoms: C_17  and  C_18
REMARK    8  A    between atoms: O_22  and  C_23
REMARK    9  A    between atoms: C_23  and  C_24
REMARK   10  A    between atoms: O_26  and  C_27
REMARK                            x       y       z     vdW  Elec       q    Type
REMARK                         _______ _______ _______ _____ _____    ______ ____
ROOT
ATOM      1  C   LIG A   1      -7.190   3.079 123.159  0.00  0.00    +0.074 C 
ATOM      2  C   LIG A   1      -6.024   3.643 123.507  0.00  0.00    +0.202 C 
ATOM      3  O   LIG A   1      -5.402   3.499 124.721  0.00  0.00    -0.460 OA
ATOM      4  C   LIG A   1      -6.238   3.015 125.786  0.00  0.00    +0.370 C 
ATOM      5  C   LIG A   1      -7.110   1.831 125.342  0.00  0.00    +0.085 C 
ATOM      6  C   LIG A   1      -7.957   2.185 124.104  0.00  0.00    +0.043 C 
ATOM      7  C   LIG A   1      -8.341   0.808 123.505  0.00  0.00    +0.054 C 
ATOM      8  C   LIG A   1      -7.494  -0.255 124.221  0.00  0.00    +0.180 C 
ATOM      9  C   LIG A   1      -6.362   0.572 124.859  0.00  0.00    +0.037 C 
ATOM     10  C   LIG A   1      -5.571  -0.152 125.931  0.00  0.00    +0.012 C 
ENDROOT
BRANCH   1  12
ATOM     11  O   LIG A   1      -8.902   3.522 121.514  0.00  0.00    -0.245 OA
ATOM     12  C   LIG A   1      -7.729   3.434 121.812  0.00  0.00    +0.338 C 
BRANCH  12  13
ATOM     13  O   LIG A   1      -6.664   3.532 120.964  0.00  0.00    -0.465 OA
ATOM     14  C   LIG A   1      -6.942   4.178 119.728  0.00  0.00    +0.280 C 
ENDBRANCH  12  13
ENDBRANCH   1  12
BRANCH   8  15
ATOM     15  O   LIG A   1      -8.271  -0.930 125.234  0.00  0.00    -0.461 OA
BRANCH  15  16
ATOM     16  C   LIG A   1      -8.739  -2.162 124.897  0.00  0.00    +0.304 C 
ATOM     17  C   LIG A   1      -7.758  -2.896 124.022  0.00  0.00    +0.136 C 
ATOM     18  O   LIG A   1      -9.805  -2.649 125.265  0.00  0.00    -0.251 OA
ENDBRANCH  15  16
ENDBRANCH   8  15
BRANCH   4  19
ATOM     19  O   LIG A   1      -7.124   4.054 126.250  0.00  0.00    -0.425 OA
BRANCH  19  20
ATOM     20  C   LIG A   1      -7.407   4.018 127.581  0.00  0.00    +0.307 C 
ATOM     21  C   LIG A   1      -6.130   3.845 128.353  0.00  0.00    +0.136 C 
ATOM     22  O   LIG A   1      -8.518   4.045 128.080  0.00  0.00    -0.251 OA
ENDBRANCH  19  20
ENDBRANCH   4  19
TORSDOF 6
ENDMDL
