MODEL 1
REMARK VINA RESULT:      -8.1      0.000      0.000
REMARK  Name = NuBBE_1276
REMARK  9 active torsions:
REMARK  status: ('A' for Active; 'I' for Inactive)
REMARK    1  A    between atoms: C_12  and  O_14
REMARK    2  A    between atoms: C_15  and  O_17
REMARK    3  A    between atoms: O_17  and  C_18
REMARK    4  A    between atoms: C_18  and  C_19
REMARK    5  A    between atoms: C_19  and  C_20
REMARK    6  A    between atoms: C_20  and  C_21
REMARK    7  A    between atoms: C_20  and  C_22
REMARK    8  A    between atoms: C_24  and  C_25
REMARK    9  A    between atoms: C_24  and  C_26
REMARK                            x       y       z     vdW  Elec       q    Type
REMARK                         _______ _______ _______ _____ _____    ______ ____
ROOT
ATOM      1  O   LIG A   1     -10.899   7.434 125.828  0.00  0.00    -0.245 OA
ATOM      2  C   LIG A   1     -11.290   7.449 126.990  0.00  0.00    +0.337 A 
ATOM      3  C   LIG A   1     -12.553   8.107 127.356  0.00  0.00    +0.092 A 
ATOM      4  C   LIG A   1     -13.018   8.114 128.608  0.00  0.00    +0.018 A 
ATOM      5  O   LIG A   1     -10.572   6.851 128.018  0.00  0.00    -0.422 OA
ATOM      6  C   LIG A   1     -11.048   6.840 129.350  0.00  0.00    +0.148 A 
ATOM      7  C   LIG A   1     -12.264   7.451 129.660  0.00  0.00    +0.018 A 
ATOM      8  C   LIG A   1     -12.723   7.413 130.975  0.00  0.00    +0.015 A 
ATOM      9  C   LIG A   1     -11.971   6.755 131.950  0.00  0.00    +0.047 A 
ATOM     10  C   LIG A   1     -10.757   6.142 131.624  0.00  0.00    +0.131 A 
ATOM     11  C   LIG A   1     -10.263   6.196 130.320  0.00  0.00    +0.069 A 
ATOM     12  C   LIG A   1      -8.926   5.600 129.974  0.00  0.00    +0.196 C 
ATOM     13  C   LIG A   1      -8.099   5.322 131.237  0.00  0.00    +0.252 C 
ATOM     14  C   LIG A   1      -8.980   4.707 132.355  0.00  0.00    +0.144 C 
ATOM     15  C   LIG A   1      -8.191   4.622 133.674  0.00  0.00    +0.059 C 
ATOM     16  C   LIG A   1      -9.470   3.288 132.018  0.00  0.00    +0.059 C 
ATOM     17  O   LIG A   1     -10.123   5.530 132.666  0.00  0.00    -0.482 OA
ENDROOT
BRANCH  12  18
ATOM     18  O   LIG A   1      -9.125   4.398 129.230  0.00  0.00    -0.383 OA
ATOM     19  H   LIG A   1      -8.705   3.683 129.742  0.00  0.00    +0.210 HD
ENDBRANCH  12  18
BRANCH  13  20
ATOM     20  O   LIG A   1      -7.523   6.568 131.724  0.00  0.00    -0.454 OA
BRANCH  20  21
ATOM     21  C   LIG A   1      -6.299   6.897 131.241  0.00  0.00    +0.308 C 
ATOM     22  O   LIG A   1      -6.099   7.625 130.271  0.00  0.00    -0.251 OA
BRANCH  21  23
ATOM     23  C   LIG A   1      -5.207   6.234 132.042  0.00  0.00    +0.123 C 
BRANCH  23  24
ATOM     24  C   LIG A   1      -3.789   6.504 131.530  0.00  0.00    -0.007 C 
ATOM     25  C   LIG A   1      -3.125   7.675 132.252  0.00  0.00    +0.007 C 
ATOM     26  C   LIG A   1      -2.902   5.261 131.602  0.00  0.00    +0.007 C 
ENDBRANCH  23  24
ENDBRANCH  21  23
ENDBRANCH  20  21
ENDBRANCH  13  20
TORSDOF 5
ENDMDL
MODEL 2
REMARK VINA RESULT:      -7.4      2.795      3.390
REMARK  Name = NuBBE_1276
REMARK  9 active torsions:
REMARK  status: ('A' for Active; 'I' for Inactive)
REMARK    1  A    between atoms: C_12  and  O_14
REMARK    2  A    between atoms: C_15  and  O_17
REMARK    3  A    between atoms: O_17  and  C_18
REMARK    4  A    between atoms: C_18  and  C_19
REMARK    5  A    between atoms: C_19  and  C_20
REMARK    6  A    between atoms: C_20  and  C_21
REMARK    7  A    between atoms: C_20  and  C_22
REMARK    8  A    between atoms: C_24  and  C_25
REMARK    9  A    between atoms: C_24  and  C_26
REMARK                            x       y       z     vdW  Elec       q    Type
REMARK                         _______ _______ _______ _____ _____    ______ ____
ROOT
ATOM      1  O   LIG A   1     -10.778   7.653 126.379  0.00  0.00    -0.245 OA
ATOM      2  C   LIG A   1     -10.625   7.344 127.555  0.00  0.00    +0.337 A 
ATOM      3  C   LIG A   1     -11.432   7.970 128.614  0.00  0.00    +0.092 A 
ATOM      4  C   LIG A   1     -11.307   7.633 129.901  0.00  0.00    +0.018 A 
ATOM      5  O   LIG A   1      -9.693   6.395 127.955  0.00  0.00    -0.422 OA
ATOM      6  C   LIG A   1      -9.548   6.017 129.310  0.00  0.00    +0.148 A 
ATOM      7  C   LIG A   1     -10.348   6.611 130.288  0.00  0.00    +0.018 A 
ATOM      8  C   LIG A   1     -10.201   6.212 131.614  0.00  0.00    +0.015 A 
ATOM      9  C   LIG A   1      -9.275   5.218 131.938  0.00  0.00    +0.047 A 
ATOM     10  C   LIG A   1      -8.485   4.627 130.947  0.00  0.00    +0.131 A 
ATOM     11  C   LIG A   1      -8.592   5.035 129.617  0.00  0.00    +0.069 A 
ATOM     12  C   LIG A   1      -7.698   4.456 128.555  0.00  0.00    +0.196 C 
ATOM     13  C   LIG A   1      -6.499   3.726 129.177  0.00  0.00    +0.252 C 
ATOM     14  C   LIG A   1      -6.935   2.880 130.400  0.00  0.00    +0.144 C 
ATOM     15  C   LIG A   1      -5.702   2.320 131.133  0.00  0.00    +0.059 C 
ATOM     16  C   LIG A   1      -7.825   1.685 130.015  0.00  0.00    +0.059 C 
ATOM     17  O   LIG A   1      -7.623   3.668 131.394  0.00  0.00    -0.482 OA
ENDROOT
BRANCH  12  18
ATOM     18  O   LIG A   1      -8.457   3.566 127.737  0.00  0.00    -0.383 OA
ATOM     19  H   LIG A   1      -8.213   2.663 128.010  0.00  0.00    +0.210 HD
ENDBRANCH  12  18
BRANCH  13  20
ATOM     20  O   LIG A   1      -5.508   4.703 129.610  0.00  0.00    -0.454 OA
BRANCH  20  21
ATOM     21  C   LIG A   1      -4.564   5.049 128.700  0.00  0.00    +0.308 C 
ATOM     22  O   LIG A   1      -4.507   6.133 128.124  0.00  0.00    -0.251 OA
BRANCH  21  23
ATOM     23  C   LIG A   1      -3.595   3.916 128.472  0.00  0.00    +0.123 C 
BRANCH  23  24
ATOM     24  C   LIG A   1      -3.205   3.699 127.007  0.00  0.00    -0.007 C 
ATOM     25  C   LIG A   1      -1.826   3.058 126.862  0.00  0.00    +0.007 C 
ATOM     26  C   LIG A   1      -4.252   2.888 126.243  0.00  0.00    +0.007 C 
ENDBRANCH  23  24
ENDBRANCH  21  23
ENDBRANCH  20  21
ENDBRANCH  13  20
TORSDOF 5
ENDMDL
MODEL 3
REMARK VINA RESULT:      -7.3      2.454      6.354
REMARK  Name = NuBBE_1276
REMARK  9 active torsions:
REMARK  status: ('A' for Active; 'I' for Inactive)
REMARK    1  A    between atoms: C_12  and  O_14
REMARK    2  A    between atoms: C_15  and  O_17
REMARK    3  A    between atoms: O_17  and  C_18
REMARK    4  A    between atoms: C_18  and  C_19
REMARK    5  A    between atoms: C_19  and  C_20
REMARK    6  A    between atoms: C_20  and  C_21
REMARK    7  A    between atoms: C_20  and  C_22
REMARK    8  A    between atoms: C_24  and  C_25
REMARK    9  A    between atoms: C_24  and  C_26
REMARK                            x       y       z     vdW  Elec       q    Type
REMARK                         _______ _______ _______ _____ _____    ______ ____
ROOT
ATOM      1  O   LIG A   1      -4.210   4.710 127.502  0.00  0.00    -0.245 OA
ATOM      2  C   LIG A   1      -5.097   4.052 128.034  0.00  0.00    +0.337 A 
ATOM      3  C   LIG A   1      -5.028   2.584 128.077  0.00  0.00    +0.092 A 
ATOM      4  C   LIG A   1      -5.965   1.842 128.676  0.00  0.00    +0.018 A 
ATOM      5  O   LIG A   1      -6.205   4.646 128.623  0.00  0.00    -0.422 OA
ATOM      6  C   LIG A   1      -7.206   3.883 129.268  0.00  0.00    +0.148 A 
ATOM      7  C   LIG A   1      -7.098   2.491 129.314  0.00  0.00    +0.018 A 
ATOM      8  C   LIG A   1      -8.085   1.760 129.970  0.00  0.00    +0.015 A 
ATOM      9  C   LIG A   1      -9.150   2.426 130.580  0.00  0.00    +0.047 A 
ATOM     10  C   LIG A   1      -9.242   3.821 130.531  0.00  0.00    +0.131 A 
ATOM     11  C   LIG A   1      -8.281   4.572 129.851  0.00  0.00    +0.069 A 
ATOM     12  C   LIG A   1      -8.408   6.066 129.733  0.00  0.00    +0.196 C 
ATOM     13  C   LIG A   1      -9.828   6.532 130.086  0.00  0.00    +0.252 C 
ATOM     14  C   LIG A   1     -10.366   5.782 131.332  0.00  0.00    +0.144 C 
ATOM     15  C   LIG A   1     -11.855   6.107 131.551  0.00  0.00    +0.059 C 
ATOM     16  C   LIG A   1      -9.618   6.153 132.623  0.00  0.00    +0.059 C 
ATOM     17  O   LIG A   1     -10.327   4.349 131.168  0.00  0.00    -0.482 OA
ENDROOT
BRANCH  12  18
ATOM     18  O   LIG A   1      -7.450   6.688 130.588  0.00  0.00    -0.383 OA
ATOM     19  H   LIG A   1      -7.467   6.195 131.428  0.00  0.00    +0.210 HD
ENDBRANCH  12  18
BRANCH  13  20
ATOM     20  O   LIG A   1     -10.717   6.273 128.961  0.00  0.00    -0.454 OA
BRANCH  20  21
ATOM     21  C   LIG A   1     -10.649   7.146 127.924  0.00  0.00    +0.308 C 
ATOM     22  O   LIG A   1     -10.180   6.889 126.819  0.00  0.00    -0.251 OA
BRANCH  21  23
ATOM     23  C   LIG A   1     -11.213   8.489 128.314  0.00  0.00    +0.123 C 
BRANCH  23  24
ATOM     24  C   LIG A   1     -12.690   8.465 128.720  0.00  0.00    -0.007 C 
ATOM     25  C   LIG A   1     -13.251   9.867 128.952  0.00  0.00    +0.007 C 
ATOM     26  C   LIG A   1     -13.554   7.706 127.712  0.00  0.00    +0.007 C 
ENDBRANCH  23  24
ENDBRANCH  21  23
ENDBRANCH  20  21
ENDBRANCH  13  20
TORSDOF 5
ENDMDL
MODEL 4
REMARK VINA RESULT:      -7.2      6.422      8.853
REMARK  Name = NuBBE_1276
REMARK  9 active torsions:
REMARK  status: ('A' for Active; 'I' for Inactive)
REMARK    1  A    between atoms: C_12  and  O_14
REMARK    2  A    between atoms: C_15  and  O_17
REMARK    3  A    between atoms: O_17  and  C_18
REMARK    4  A    between atoms: C_18  and  C_19
REMARK    5  A    between atoms: C_19  and  C_20
REMARK    6  A    between atoms: C_20  and  C_21
REMARK    7  A    between atoms: C_20  and  C_22
REMARK    8  A    between atoms: C_24  and  C_25
REMARK    9  A    between atoms: C_24  and  C_26
REMARK                            x       y       z     vdW  Elec       q    Type
REMARK                         _______ _______ _______ _____ _____    ______ ____
ROOT
ATOM      1  O   LIG A   1      -7.990  -1.094 131.322  0.00  0.00    -0.245 OA
ATOM      2  C   LIG A   1      -7.971  -1.521 130.173  0.00  0.00    +0.337 A 
ATOM      3  C   LIG A   1      -8.028  -2.965 129.901  0.00  0.00    +0.092 A 
ATOM      4  C   LIG A   1      -8.039  -3.458 128.659  0.00  0.00    +0.018 A 
ATOM      5  O   LIG A   1      -7.898  -0.677 129.072  0.00  0.00    -0.422 OA
ATOM      6  C   LIG A   1      -7.915  -1.175 127.749  0.00  0.00    +0.148 A 
ATOM      7  C   LIG A   1      -7.996  -2.551 127.524  0.00  0.00    +0.018 A 
ATOM      8  C   LIG A   1      -8.029  -3.019 126.213  0.00  0.00    +0.015 A 
ATOM      9  C   LIG A   1      -7.998  -2.111 125.153  0.00  0.00    +0.047 A 
ATOM     10  C   LIG A   1      -7.923  -0.735 125.393  0.00  0.00    +0.131 A 
ATOM     11  C   LIG A   1      -7.855  -0.245 126.698  0.00  0.00    +0.069 A 
ATOM     12  C   LIG A   1      -7.705   1.227 126.965  0.00  0.00    +0.196 C 
ATOM     13  C   LIG A   1      -7.266   1.978 125.700  0.00  0.00    +0.252 C 
ATOM     14  C   LIG A   1      -8.037   1.469 124.455  0.00  0.00    +0.144 C 
ATOM     15  C   LIG A   1      -7.447   2.082 123.172  0.00  0.00    +0.059 C 
ATOM     16  C   LIG A   1      -9.533   1.825 124.491  0.00  0.00    +0.059 C 
ATOM     17  O   LIG A   1      -7.903   0.044 124.273  0.00  0.00    -0.482 OA
ENDROOT
BRANCH  12  18
ATOM     18  O   LIG A   1      -8.942   1.746 127.453  0.00  0.00    -0.383 OA
ATOM     19  H   LIG A   1      -9.433   0.990 127.821  0.00  0.00    +0.210 HD
ENDBRANCH  12  18
BRANCH  13  20
ATOM     20  O   LIG A   1      -5.839   1.775 125.486  0.00  0.00    -0.454 OA
BRANCH  20  21
ATOM     21  C   LIG A   1      -5.036   2.846 125.709  0.00  0.00    +0.308 C 
ATOM     22  O   LIG A   1      -5.074   3.897 125.074  0.00  0.00    -0.251 OA
BRANCH  21  23
ATOM     23  C   LIG A   1      -4.072   2.570 126.835  0.00  0.00    +0.123 C 
BRANCH  23  24
ATOM     24  C   LIG A   1      -2.923   3.576 126.950  0.00  0.00    -0.007 C 
ATOM     25  C   LIG A   1      -2.836   4.201 128.341  0.00  0.00    +0.007 C 
ATOM     26  C   LIG A   1      -1.578   2.967 126.554  0.00  0.00    +0.007 C 
ENDBRANCH  23  24
ENDBRANCH  21  23
ENDBRANCH  20  21
ENDBRANCH  13  20
TORSDOF 5
ENDMDL
MODEL 5
REMARK VINA RESULT:      -7.2      3.206      6.741
REMARK  Name = NuBBE_1276
REMARK  9 active torsions:
REMARK  status: ('A' for Active; 'I' for Inactive)
REMARK    1  A    between atoms: C_12  and  O_14
REMARK    2  A    between atoms: C_15  and  O_17
REMARK    3  A    between atoms: O_17  and  C_18
REMARK    4  A    between atoms: C_18  and  C_19
REMARK    5  A    between atoms: C_19  and  C_20
REMARK    6  A    between atoms: C_20  and  C_21
REMARK    7  A    between atoms: C_20  and  C_22
REMARK    8  A    between atoms: C_24  and  C_25
REMARK    9  A    between atoms: C_24  and  C_26
REMARK                            x       y       z     vdW  Elec       q    Type
REMARK                         _______ _______ _______ _____ _____    ______ ____
ROOT
ATOM      1  O   LIG A   1      -3.106   5.906 127.712  0.00  0.00    -0.245 OA
ATOM      2  C   LIG A   1      -3.931   5.031 127.474  0.00  0.00    +0.337 A 
ATOM      3  C   LIG A   1      -3.672   4.002 126.455  0.00  0.00    +0.092 A 
ATOM      4  C   LIG A   1      -4.539   3.020 126.195  0.00  0.00    +0.018 A 
ATOM      5  O   LIG A   1      -5.146   4.958 128.144  0.00  0.00    -0.422 OA
ATOM      6  C   LIG A   1      -6.076   3.924 127.890  0.00  0.00    +0.148 A 
ATOM      7  C   LIG A   1      -5.788   2.947 126.935  0.00  0.00    +0.018 A 
ATOM      8  C   LIG A   1      -6.710   1.927 126.713  0.00  0.00    +0.015 A 
ATOM      9  C   LIG A   1      -7.892   1.890 127.456  0.00  0.00    +0.047 A 
ATOM     10  C   LIG A   1      -8.165   2.872 128.414  0.00  0.00    +0.131 A 
ATOM     11  C   LIG A   1      -7.270   3.921 128.630  0.00  0.00    +0.069 A 
ATOM     12  C   LIG A   1      -7.586   5.019 129.607  0.00  0.00    +0.196 C 
ATOM     13  C   LIG A   1      -9.076   5.018 129.980  0.00  0.00    +0.252 C 
ATOM     14  C   LIG A   1      -9.591   3.574 130.210  0.00  0.00    +0.144 C 
ATOM     15  C   LIG A   1     -11.120   3.572 130.382  0.00  0.00    +0.059 C 
ATOM     16  C   LIG A   1      -8.985   2.915 131.461  0.00  0.00    +0.059 C 
ATOM     17  O   LIG A   1      -9.350   2.720 129.073  0.00  0.00    -0.482 OA
ENDROOT
BRANCH  12  18
ATOM     18  O   LIG A   1      -6.778   4.859 130.773  0.00  0.00    -0.383 OA
ATOM     19  H   LIG A   1      -7.080   5.528 131.413  0.00  0.00    +0.210 HD
ENDBRANCH  12  18
BRANCH  13  20
ATOM     20  O   LIG A   1      -9.846   5.626 128.904  0.00  0.00    -0.454 OA
BRANCH  20  21
ATOM     21  C   LIG A   1     -10.066   6.962 128.998  0.00  0.00    +0.308 C 
ATOM     22  O   LIG A   1      -9.424   7.731 129.710  0.00  0.00    -0.251 OA
BRANCH  21  23
ATOM     23  C   LIG A   1     -11.220   7.380 128.123  0.00  0.00    +0.123 C 
BRANCH  23  24
ATOM     24  C   LIG A   1     -12.540   7.594 128.870  0.00  0.00    -0.007 C 
ATOM     25  C   LIG A   1     -12.762   9.056 129.251  0.00  0.00    +0.007 C 
ATOM     26  C   LIG A   1     -13.740   7.059 128.089  0.00  0.00    +0.007 C 
ENDBRANCH  23  24
ENDBRANCH  21  23
ENDBRANCH  20  21
ENDBRANCH  13  20
TORSDOF 5
ENDMDL
MODEL 6
REMARK VINA RESULT:      -7.1      7.702      9.841
REMARK  Name = NuBBE_1276
REMARK  9 active torsions:
REMARK  status: ('A' for Active; 'I' for Inactive)
REMARK    1  A    between atoms: C_12  and  O_14
REMARK    2  A    between atoms: C_15  and  O_17
REMARK    3  A    between atoms: O_17  and  C_18
REMARK    4  A    between atoms: C_18  and  C_19
REMARK    5  A    between atoms: C_19  and  C_20
REMARK    6  A    between atoms: C_20  and  C_21
REMARK    7  A    between atoms: C_20  and  C_22
REMARK    8  A    between atoms: C_24  and  C_25
REMARK    9  A    between atoms: C_24  and  C_26
REMARK                            x       y       z     vdW  Elec       q    Type
REMARK                         _______ _______ _______ _____ _____    ______ ____
ROOT
ATOM      1  O   LIG A   1      -4.032   2.850 126.407  0.00  0.00    -0.245 OA
ATOM      2  C   LIG A   1      -5.102   2.798 125.810  0.00  0.00    +0.337 A 
ATOM      3  C   LIG A   1      -5.782   4.025 125.367  0.00  0.00    +0.092 A 
ATOM      4  C   LIG A   1      -6.933   3.998 124.689  0.00  0.00    +0.018 A 
ATOM      5  O   LIG A   1      -5.728   1.593 125.517  0.00  0.00    -0.422 OA
ATOM      6  C   LIG A   1      -6.943   1.540 124.795  0.00  0.00    +0.148 A 
ATOM      7  C   LIG A   1      -7.549   2.722 124.365  0.00  0.00    +0.018 A 
ATOM      8  C   LIG A   1      -8.736   2.647 123.640  0.00  0.00    +0.015 A 
ATOM      9  C   LIG A   1      -9.286   1.398 123.343  0.00  0.00    +0.047 A 
ATOM     10  C   LIG A   1      -8.664   0.222 123.774  0.00  0.00    +0.131 A 
ATOM     11  C   LIG A   1      -7.492   0.275 124.530  0.00  0.00    +0.069 A 
ATOM     12  C   LIG A   1      -6.853  -0.980 125.057  0.00  0.00    +0.196 C 
ATOM     13  C   LIG A   1      -7.824  -2.168 124.988  0.00  0.00    +0.252 C 
ATOM     14  C   LIG A   1      -8.603  -2.172 123.647  0.00  0.00    +0.144 C 
ATOM     15  C   LIG A   1      -9.711  -3.241 123.674  0.00  0.00    +0.059 C 
ATOM     16  C   LIG A   1      -7.704  -2.469 122.434  0.00  0.00    +0.059 C 
ATOM     17  O   LIG A   1      -9.300  -0.931 123.415  0.00  0.00    -0.482 OA
ENDROOT
BRANCH  12  18
ATOM     18  O   LIG A   1      -5.670  -1.256 124.309  0.00  0.00    -0.383 OA
ATOM     19  H   LIG A   1      -4.926  -0.894 124.823  0.00  0.00    +0.210 HD
ENDBRANCH  12  18
BRANCH  13  20
ATOM     20  O   LIG A   1      -8.778  -2.079 126.085  0.00  0.00    -0.454 OA
BRANCH  20  21
ATOM     21  C   LIG A   1      -8.599  -2.947 127.112  0.00  0.00    +0.308 C 
ATOM     22  O   LIG A   1      -9.230  -3.990 127.269  0.00  0.00    -0.251 OA
BRANCH  21  23
ATOM     23  C   LIG A   1      -7.531  -2.453 128.055  0.00  0.00    +0.123 C 
BRANCH  23  24
ATOM     24  C   LIG A   1      -7.808  -2.735 129.535  0.00  0.00    -0.007 C 
ATOM     25  C   LIG A   1      -6.765  -3.662 130.155  0.00  0.00    +0.007 C 
ATOM     26  C   LIG A   1      -7.933  -1.450 130.354  0.00  0.00    +0.007 C 
ENDBRANCH  23  24
ENDBRANCH  21  23
ENDBRANCH  20  21
ENDBRANCH  13  20
TORSDOF 5
ENDMDL
MODEL 7
REMARK VINA RESULT:      -7.0      3.940      6.098
REMARK  Name = NuBBE_1276
REMARK  9 active torsions:
REMARK  status: ('A' for Active; 'I' for Inactive)
REMARK    1  A    between atoms: C_12  and  O_14
REMARK    2  A    between atoms: C_15  and  O_17
REMARK    3  A    between atoms: O_17  and  C_18
REMARK    4  A    between atoms: C_18  and  C_19
REMARK    5  A    between atoms: C_19  and  C_20
REMARK    6  A    between atoms: C_20  and  C_21
REMARK    7  A    between atoms: C_20  and  C_22
REMARK    8  A    between atoms: C_24  and  C_25
REMARK    9  A    between atoms: C_24  and  C_26
REMARK                            x       y       z     vdW  Elec       q    Type
REMARK                         _______ _______ _______ _____ _____    ______ ____
ROOT
ATOM      1  O   LIG A   1     -11.372   4.335 129.944  0.00  0.00    -0.245 OA
ATOM      2  C   LIG A   1     -10.326   4.834 130.343  0.00  0.00    +0.337 A 
ATOM      3  C   LIG A   1     -10.319   5.775 131.474  0.00  0.00    +0.092 A 
ATOM      4  C   LIG A   1      -9.191   6.311 131.949  0.00  0.00    +0.018 A 
ATOM      5  O   LIG A   1      -9.099   4.543 129.760  0.00  0.00    -0.422 OA
ATOM      6  C   LIG A   1      -7.892   5.094 130.251  0.00  0.00    +0.148 A 
ATOM      7  C   LIG A   1      -7.917   5.964 131.343  0.00  0.00    +0.018 A 
ATOM      8  C   LIG A   1      -6.715   6.480 131.821  0.00  0.00    +0.015 A 
ATOM      9  C   LIG A   1      -5.513   6.109 131.215  0.00  0.00    +0.047 A 
ATOM     10  C   LIG A   1      -5.503   5.232 130.125  0.00  0.00    +0.131 A 
ATOM     11  C   LIG A   1      -6.698   4.728 129.609  0.00  0.00    +0.069 A 
ATOM     12  C   LIG A   1      -6.703   3.840 128.396  0.00  0.00    +0.196 C 
ATOM     13  C   LIG A   1      -5.362   3.910 127.651  0.00  0.00    +0.252 C 
ATOM     14  C   LIG A   1      -4.172   3.894 128.646  0.00  0.00    +0.144 C 
ATOM     15  C   LIG A   1      -2.851   4.168 127.905  0.00  0.00    +0.059 C 
ATOM     16  C   LIG A   1      -4.021   2.548 129.377  0.00  0.00    +0.059 C 
ATOM     17  O   LIG A   1      -4.265   4.947 129.627  0.00  0.00    -0.482 OA
ENDROOT
BRANCH  12  18
ATOM     18  O   LIG A   1      -6.985   2.499 128.795  0.00  0.00    -0.383 OA
ATOM     19  H   LIG A   1      -7.934   2.355 128.632  0.00  0.00    +0.210 HD
ENDBRANCH  12  18
BRANCH  13  20
ATOM     20  O   LIG A   1      -5.304   5.137 126.869  0.00  0.00    -0.454 OA
BRANCH  20  21
ATOM     21  C   LIG A   1      -5.765   5.063 125.595  0.00  0.00    +0.308 C 
ATOM     22  O   LIG A   1      -6.368   5.961 125.013  0.00  0.00    -0.251 OA
BRANCH  21  23
ATOM     23  C   LIG A   1      -5.454   3.719 124.988  0.00  0.00    +0.123 C 
BRANCH  23  24
ATOM     24  C   LIG A   1      -6.515   3.201 124.011  0.00  0.00    -0.007 C 
ATOM     25  C   LIG A   1      -6.136   3.456 122.553  0.00  0.00    +0.007 C 
ATOM     26  C   LIG A   1      -6.829   1.721 124.229  0.00  0.00    +0.007 C 
ENDBRANCH  23  24
ENDBRANCH  21  23
ENDBRANCH  20  21
ENDBRANCH  13  20
TORSDOF 5
ENDMDL
MODEL 8
REMARK VINA RESULT:      -6.9      6.663      8.907
REMARK  Name = NuBBE_1276
REMARK  9 active torsions:
REMARK  status: ('A' for Active; 'I' for Inactive)
REMARK    1  A    between atoms: C_12  and  O_14
REMARK    2  A    between atoms: C_15  and  O_17
REMARK    3  A    between atoms: O_17  and  C_18
REMARK    4  A    between atoms: C_18  and  C_19
REMARK    5  A    between atoms: C_19  and  C_20
REMARK    6  A    between atoms: C_20  and  C_21
REMARK    7  A    between atoms: C_20  and  C_22
REMARK    8  A    between atoms: C_24  and  C_25
REMARK    9  A    between atoms: C_24  and  C_26
REMARK                            x       y       z     vdW  Elec       q    Type
REMARK                         _______ _______ _______ _____ _____    ______ ____
ROOT
ATOM      1  O   LIG A   1      -6.275  -1.310 123.454  0.00  0.00    -0.245 OA
ATOM      2  C   LIG A   1      -6.895  -1.889 124.339  0.00  0.00    +0.337 A 
ATOM      3  C   LIG A   1      -7.835  -2.974 124.019  0.00  0.00    +0.092 A 
ATOM      4  C   LIG A   1      -8.502  -3.642 124.965  0.00  0.00    +0.018 A 
ATOM      5  O   LIG A   1      -6.750  -1.559 125.680  0.00  0.00    -0.422 OA
ATOM      6  C   LIG A   1      -7.441  -2.257 126.698  0.00  0.00    +0.148 A 
ATOM      7  C   LIG A   1      -8.306  -3.300 126.364  0.00  0.00    +0.018 A 
ATOM      8  C   LIG A   1      -8.962  -3.986 127.383  0.00  0.00    +0.015 A 
ATOM      9  C   LIG A   1      -8.734  -3.631 128.714  0.00  0.00    +0.047 A 
ATOM     10  C   LIG A   1      -7.860  -2.587 129.035  0.00  0.00    +0.131 A 
ATOM     11  C   LIG A   1      -7.216  -1.865 128.028  0.00  0.00    +0.069 A 
ATOM     12  C   LIG A   1      -6.329  -0.697 128.360  0.00  0.00    +0.196 C 
ATOM     13  C   LIG A   1      -6.554  -0.221 129.802  0.00  0.00    +0.252 C 
ATOM     14  C   LIG A   1      -6.683  -1.425 130.771  0.00  0.00    +0.144 C 
ATOM     15  C   LIG A   1      -7.108  -0.943 132.170  0.00  0.00    +0.059 C 
ATOM     16  C   LIG A   1      -5.367  -2.206 130.933  0.00  0.00    +0.059 C 
ATOM     17  O   LIG A   1      -7.721  -2.342 130.370  0.00  0.00    -0.482 OA
ENDROOT
BRANCH  12  18
ATOM     18  O   LIG A   1      -4.966  -1.070 128.162  0.00  0.00    -0.383 OA
ATOM     19  H   LIG A   1      -4.588  -1.215 129.048  0.00  0.00    +0.210 HD
ENDBRANCH  12  18
BRANCH  13  20
ATOM     20  O   LIG A   1      -7.777   0.568 129.868  0.00  0.00    -0.454 OA
BRANCH  20  21
ATOM     21  C   LIG A   1      -7.633   1.914 129.777  0.00  0.00    +0.308 C 
ATOM     22  O   LIG A   1      -6.569   2.516 129.895  0.00  0.00    -0.251 OA
BRANCH  21  23
ATOM     23  C   LIG A   1      -8.962   2.582 129.531  0.00  0.00    +0.123 C 
BRANCH  23  24
ATOM     24  C   LIG A   1      -9.639   3.135 130.788  0.00  0.00    -0.007 C 
ATOM     25  C   LIG A   1     -10.896   3.940 130.465  0.00  0.00    +0.007 C 
ATOM     26  C   LIG A   1      -9.957   2.037 131.804  0.00  0.00    +0.007 C 
ENDBRANCH  23  24
ENDBRANCH  21  23
ENDBRANCH  20  21
ENDBRANCH  13  20
TORSDOF 5
ENDMDL
MODEL 9
REMARK VINA RESULT:      -6.9      6.896      9.304
REMARK  Name = NuBBE_1276
REMARK  9 active torsions:
REMARK  status: ('A' for Active; 'I' for Inactive)
REMARK    1  A    between atoms: C_12  and  O_14
REMARK    2  A    between atoms: C_15  and  O_17
REMARK    3  A    between atoms: O_17  and  C_18
REMARK    4  A    between atoms: C_18  and  C_19
REMARK    5  A    between atoms: C_19  and  C_20
REMARK    6  A    between atoms: C_20  and  C_21
REMARK    7  A    between atoms: C_20  and  C_22
REMARK    8  A    between atoms: C_24  and  C_25
REMARK    9  A    between atoms: C_24  and  C_26
REMARK                            x       y       z     vdW  Elec       q    Type
REMARK                         _______ _______ _______ _____ _____    ______ ____
ROOT
ATOM      1  O   LIG A   1      -9.879   3.188 129.521  0.00  0.00    -0.245 OA
ATOM      2  C   LIG A   1      -8.958   2.432 129.233  0.00  0.00    +0.337 A 
ATOM      3  C   LIG A   1      -7.886   2.142 130.198  0.00  0.00    +0.092 A 
ATOM      4  C   LIG A   1      -6.886   1.301 129.922  0.00  0.00    +0.018 A 
ATOM      5  O   LIG A   1      -8.872   1.811 127.994  0.00  0.00    -0.422 OA
ATOM      6  C   LIG A   1      -7.826   0.912 127.682  0.00  0.00    +0.148 A 
ATOM      7  C   LIG A   1      -6.838   0.637 128.630  0.00  0.00    +0.018 A 
ATOM      8  C   LIG A   1      -5.828  -0.265 128.308  0.00  0.00    +0.015 A 
ATOM      9  C   LIG A   1      -5.828  -0.889 127.059  0.00  0.00    +0.047 A 
ATOM     10  C   LIG A   1      -6.828  -0.609 126.121  0.00  0.00    +0.131 A 
ATOM     11  C   LIG A   1      -7.832   0.317 126.410  0.00  0.00    +0.069 A 
ATOM     12  C   LIG A   1      -8.871   0.676 125.384  0.00  0.00    +0.196 C 
ATOM     13  C   LIG A   1      -8.446   0.220 123.980  0.00  0.00    +0.252 C 
ATOM     14  C   LIG A   1      -7.824  -1.199 124.021  0.00  0.00    +0.144 C 
ATOM     15  C   LIG A   1      -7.221  -1.560 122.652  0.00  0.00    +0.059 C 
ATOM     16  C   LIG A   1      -8.848  -2.291 124.376  0.00  0.00    +0.059 C 
ATOM     17  O   LIG A   1      -6.717  -1.286 124.942  0.00  0.00    -0.482 OA
ENDROOT
BRANCH  12  18
ATOM     18  O   LIG A   1     -10.117   0.083 125.748  0.00  0.00    -0.383 OA
ATOM     19  H   LIG A   1     -10.501  -0.279 124.929  0.00  0.00    +0.210 HD
ENDBRANCH  12  18
BRANCH  13  20
ATOM     20  O   LIG A   1      -7.460   1.150 123.446  0.00  0.00    -0.454 OA
BRANCH  20  21
ATOM     21  C   LIG A   1      -7.944   2.283 122.877  0.00  0.00    +0.308 C 
ATOM     22  O   LIG A   1      -9.092   2.426 122.462  0.00  0.00    -0.251 OA
BRANCH  21  23
ATOM     23  C   LIG A   1      -6.877   3.346 122.802  0.00  0.00    +0.123 C 
BRANCH  23  24
ATOM     24  C   LIG A   1      -6.182   3.454 121.442  0.00  0.00    -0.007 C 
ATOM     25  C   LIG A   1      -7.118   3.970 120.350  0.00  0.00    +0.007 C 
ATOM     26  C   LIG A   1      -4.916   4.309 121.506  0.00  0.00    +0.007 C 
ENDBRANCH  23  24
ENDBRANCH  21  23
ENDBRANCH  20  21
ENDBRANCH  13  20
TORSDOF 5
ENDMDL
