MODEL 1
REMARK VINA RESULT:      -7.0      0.000      0.000
REMARK  Name = NuBBE_1606
REMARK  5 active torsions:
REMARK  status: ('A' for Active; 'I' for Inactive)
REMARK    1  A    between atoms: C_1  and  C_15
REMARK    2  A    between atoms: C_5  and  C_14
REMARK    3  A    between atoms: C_10  and  C_13
REMARK    4  A    between atoms: C_15  and  C_16
REMARK    5  A    between atoms: C_15  and  C_17
REMARK                            x       y       z     vdW  Elec       q    Type
REMARK                         _______ _______ _______ _____ _____    ______ ____
ROOT
ATOM      1  C   LIG A   1      -7.721  -1.706 126.425  0.00  0.00    +0.022 C 
ATOM      2  C   LIG A   1      -8.038  -0.207 126.599  0.00  0.00    +0.009 C 
ATOM      3  C   LIG A   1      -8.946   0.285 125.480  0.00  0.00    +0.008 C 
ATOM      4  C   LIG A   1      -8.296   0.123 124.094  0.00  0.00    +0.016 C 
ATOM      5  C   LIG A   1      -7.336  -1.054 123.980  0.00  0.00    -0.041 A 
ATOM      6  C   LIG A   1      -7.028  -1.881 125.079  0.00  0.00    -0.040 A 
ATOM      7  C   LIG A   1      -6.041  -2.877 124.939  0.00  0.00    +0.007 A 
ATOM      8  C   LIG A   1      -5.385  -3.091 123.723  0.00  0.00    -0.050 A 
ATOM      9  C   LIG A   1      -5.689  -2.265 122.641  0.00  0.00    +0.003 A 
ATOM     10  C   LIG A   1      -6.646  -1.258 122.771  0.00  0.00    +0.004 A 
ATOM     11  C   LIG A   1      -4.324  -4.144 123.601  0.00  0.00    +0.044 C 
ATOM     12  C   LIG A   1      -9.398   0.092 123.026  0.00  0.00    +0.012 C 
ENDROOT
BRANCH   1  13
ATOM     13  C   LIG A   1      -8.966  -2.643 126.570  0.00  0.00    -0.010 C 
ATOM     14  C   LIG A   1      -9.339  -3.333 125.250  0.00  0.00    +0.008 C 
ATOM     15  C   LIG A   1      -8.753  -3.734 127.630  0.00  0.00    +0.008 C 
ENDBRANCH   1  13
TORSDOF 1
ENDMDL
MODEL 2
REMARK VINA RESULT:      -6.9      1.687      4.391
REMARK  Name = NuBBE_1606
REMARK  5 active torsions:
REMARK  status: ('A' for Active; 'I' for Inactive)
REMARK    1  A    between atoms: C_1  and  C_15
REMARK    2  A    between atoms: C_5  and  C_14
REMARK    3  A    between atoms: C_10  and  C_13
REMARK    4  A    between atoms: C_15  and  C_16
REMARK    5  A    between atoms: C_15  and  C_17
REMARK                            x       y       z     vdW  Elec       q    Type
REMARK                         _______ _______ _______ _____ _____    ______ ____
ROOT
ATOM      1  C   LIG A   1      -5.731  -1.594 125.603  0.00  0.00    +0.022 C 
ATOM      2  C   LIG A   1      -5.424  -2.372 124.308  0.00  0.00    +0.009 C 
ATOM      3  C   LIG A   1      -6.665  -2.465 123.430  0.00  0.00    +0.008 C 
ATOM      4  C   LIG A   1      -7.818  -3.203 124.133  0.00  0.00    +0.016 C 
ATOM      5  C   LIG A   1      -7.837  -3.048 125.648  0.00  0.00    -0.041 A 
ATOM      6  C   LIG A   1      -6.837  -2.337 126.343  0.00  0.00    -0.040 A 
ATOM      7  C   LIG A   1      -6.843  -2.333 127.751  0.00  0.00    +0.007 A 
ATOM      8  C   LIG A   1      -7.843  -2.987 128.480  0.00  0.00    -0.050 A 
ATOM      9  C   LIG A   1      -8.825  -3.693 127.788  0.00  0.00    +0.003 A 
ATOM     10  C   LIG A   1      -8.818  -3.728 126.392  0.00  0.00    +0.004 A 
ATOM     11  C   LIG A   1      -7.821  -2.986 129.979  0.00  0.00    +0.044 C 
ATOM     12  C   LIG A   1      -9.145  -2.791 123.481  0.00  0.00    +0.012 C 
ENDROOT
BRANCH   1  13
ATOM     13  C   LIG A   1      -6.089  -0.087 125.373  0.00  0.00    -0.010 C 
ATOM     14  C   LIG A   1      -7.556   0.225 125.708  0.00  0.00    +0.008 C 
ATOM     15  C   LIG A   1      -5.204   0.855 126.201  0.00  0.00    +0.008 C 
ENDBRANCH   1  13
TORSDOF 1
ENDMDL
MODEL 3
REMARK VINA RESULT:      -6.3      1.265      3.819
REMARK  Name = NuBBE_1606
REMARK  5 active torsions:
REMARK  status: ('A' for Active; 'I' for Inactive)
REMARK    1  A    between atoms: C_1  and  C_15
REMARK    2  A    between atoms: C_5  and  C_14
REMARK    3  A    between atoms: C_10  and  C_13
REMARK    4  A    between atoms: C_15  and  C_16
REMARK    5  A    between atoms: C_15  and  C_17
REMARK                            x       y       z     vdW  Elec       q    Type
REMARK                         _______ _______ _______ _____ _____    ______ ____
ROOT
ATOM      1  C   LIG A   1      -8.792  -2.292 125.855  0.00  0.00    +0.022 C 
ATOM      2  C   LIG A   1      -8.838  -3.541 124.952  0.00  0.00    +0.009 C 
ATOM      3  C   LIG A   1      -7.446  -3.885 124.438  0.00  0.00    +0.008 C 
ATOM      4  C   LIG A   1      -6.842  -2.747 123.596  0.00  0.00    +0.016 C 
ATOM      5  C   LIG A   1      -7.298  -1.351 124.001  0.00  0.00    -0.041 A 
ATOM      6  C   LIG A   1      -8.245  -1.138 125.024  0.00  0.00    -0.040 A 
ATOM      7  C   LIG A   1      -8.716   0.167 125.269  0.00  0.00    +0.007 A 
ATOM      8  C   LIG A   1      -8.237   1.265 124.546  0.00  0.00    -0.050 A 
ATOM      9  C   LIG A   1      -7.306   1.047 123.532  0.00  0.00    +0.003 A 
ATOM     10  C   LIG A   1      -6.849  -0.243 123.260  0.00  0.00    +0.004 A 
ATOM     11  C   LIG A   1      -8.765   2.643 124.810  0.00  0.00    +0.044 C 
ATOM     12  C   LIG A   1      -5.314  -2.889 123.586  0.00  0.00    +0.012 C 
ENDROOT
BRANCH   1  13
ATOM     13  C   LIG A   1      -7.986  -2.493 127.182  0.00  0.00    -0.010 C 
ATOM     14  C   LIG A   1      -7.830  -1.187 127.977  0.00  0.00    +0.008 C 
ATOM     15  C   LIG A   1      -8.634  -3.534 128.105  0.00  0.00    +0.008 C 
ENDBRANCH   1  13
TORSDOF 1
ENDMDL
MODEL 4
REMARK VINA RESULT:      -6.3      1.618      4.269
REMARK  Name = NuBBE_1606
REMARK  5 active torsions:
REMARK  status: ('A' for Active; 'I' for Inactive)
REMARK    1  A    between atoms: C_1  and  C_15
REMARK    2  A    between atoms: C_5  and  C_14
REMARK    3  A    between atoms: C_10  and  C_13
REMARK    4  A    between atoms: C_15  and  C_16
REMARK    5  A    between atoms: C_15  and  C_17
REMARK                            x       y       z     vdW  Elec       q    Type
REMARK                         _______ _______ _______ _____ _____    ______ ____
ROOT
ATOM      1  C   LIG A   1      -7.319  -2.292 123.468  0.00  0.00    +0.022 C 
ATOM      2  C   LIG A   1      -5.901  -2.874 123.635  0.00  0.00    +0.009 C 
ATOM      3  C   LIG A   1      -5.440  -2.760 125.082  0.00  0.00    +0.008 C 
ATOM      4  C   LIG A   1      -5.381  -1.297 125.557  0.00  0.00    +0.016 C 
ATOM      5  C   LIG A   1      -6.397  -0.376 124.894  0.00  0.00    -0.041 A 
ATOM      6  C   LIG A   1      -7.272  -0.826 123.884  0.00  0.00    -0.040 A 
ATOM      7  C   LIG A   1      -8.103   0.101 123.226  0.00  0.00    +0.007 A 
ATOM      8  C   LIG A   1      -8.111   1.455 123.578  0.00  0.00    -0.050 A 
ATOM      9  C   LIG A   1      -7.239   1.895 124.573  0.00  0.00    +0.003 A 
ATOM     10  C   LIG A   1      -6.391   0.993 125.217  0.00  0.00    +0.004 A 
ATOM     11  C   LIG A   1      -8.990   2.429 122.853  0.00  0.00    +0.044 C 
ATOM     12  C   LIG A   1      -5.467  -1.266 127.089  0.00  0.00    +0.012 C 
ENDROOT
BRANCH   1  13
ATOM     13  C   LIG A   1      -8.430  -3.084 124.235  0.00  0.00    -0.010 C 
ATOM     14  C   LIG A   1      -8.938  -2.330 125.473  0.00  0.00    +0.008 C 
ATOM     15  C   LIG A   1      -9.639  -3.402 123.345  0.00  0.00    +0.008 C 
ENDBRANCH   1  13
TORSDOF 1
ENDMDL
MODEL 5
REMARK VINA RESULT:      -5.8      1.431      2.329
REMARK  Name = NuBBE_1606
REMARK  5 active torsions:
REMARK  status: ('A' for Active; 'I' for Inactive)
REMARK    1  A    between atoms: C_1  and  C_15
REMARK    2  A    between atoms: C_5  and  C_14
REMARK    3  A    between atoms: C_10  and  C_13
REMARK    4  A    between atoms: C_15  and  C_16
REMARK    5  A    between atoms: C_15  and  C_17
REMARK                            x       y       z     vdW  Elec       q    Type
REMARK                         _______ _______ _______ _____ _____    ______ ____
ROOT
ATOM      1  C   LIG A   1      -8.619  -2.932 125.105  0.00  0.00    +0.022 C 
ATOM      2  C   LIG A   1      -8.938  -2.107 126.369  0.00  0.00    +0.009 C 
ATOM      3  C   LIG A   1      -8.600  -0.638 126.152  0.00  0.00    +0.008 C 
ATOM      4  C   LIG A   1      -7.106  -0.427 125.845  0.00  0.00    +0.016 C 
ATOM      5  C   LIG A   1      -6.440  -1.588 125.118  0.00  0.00    -0.041 A 
ATOM      6  C   LIG A   1      -7.131  -2.779 124.813  0.00  0.00    -0.040 A 
ATOM      7  C   LIG A   1      -6.428  -3.861 124.249  0.00  0.00    +0.007 A 
ATOM      8  C   LIG A   1      -5.065  -3.770 123.947  0.00  0.00    -0.050 A 
ATOM      9  C   LIG A   1      -4.386  -2.592 124.257  0.00  0.00    +0.003 A 
ATOM     10  C   LIG A   1      -5.063  -1.520 124.839  0.00  0.00    +0.004 A 
ATOM     11  C   LIG A   1      -4.330  -4.940 123.364  0.00  0.00    +0.044 C 
ATOM     12  C   LIG A   1      -6.931   0.908 125.109  0.00  0.00    +0.012 C 
ENDROOT
BRANCH   1  13
ATOM     13  C   LIG A   1      -9.501  -2.567 123.865  0.00  0.00    -0.010 C 
ATOM     14  C   LIG A   1      -8.733  -1.739 122.823  0.00  0.00    +0.008 C 
ATOM     15  C   LIG A   1     -10.061  -3.811 123.162  0.00  0.00    +0.008 C 
ENDBRANCH   1  13
TORSDOF 1
ENDMDL
MODEL 6
REMARK VINA RESULT:      -5.8      1.881      4.217
REMARK  Name = NuBBE_1606
REMARK  5 active torsions:
REMARK  status: ('A' for Active; 'I' for Inactive)
REMARK    1  A    between atoms: C_1  and  C_15
REMARK    2  A    between atoms: C_5  and  C_14
REMARK    3  A    between atoms: C_10  and  C_13
REMARK    4  A    between atoms: C_15  and  C_16
REMARK    5  A    between atoms: C_15  and  C_17
REMARK                            x       y       z     vdW  Elec       q    Type
REMARK                         _______ _______ _______ _____ _____    ______ ____
ROOT
ATOM      1  C   LIG A   1      -8.142  -0.489 123.384  0.00  0.00    +0.022 C 
ATOM      2  C   LIG A   1      -8.354  -1.914 122.834  0.00  0.00    +0.009 C 
ATOM      3  C   LIG A   1      -9.044  -2.793 123.869  0.00  0.00    +0.008 C 
ATOM      4  C   LIG A   1      -8.213  -2.930 125.157  0.00  0.00    +0.016 C 
ATOM      5  C   LIG A   1      -7.349  -1.719 125.484  0.00  0.00    -0.041 A 
ATOM      6  C   LIG A   1      -7.277  -0.597 124.634  0.00  0.00    -0.040 A 
ATOM      7  C   LIG A   1      -6.368   0.438 124.930  0.00  0.00    +0.007 A 
ATOM      8  C   LIG A   1      -5.560   0.397 126.071  0.00  0.00    -0.050 A 
ATOM      9  C   LIG A   1      -5.631  -0.718 126.905  0.00  0.00    +0.003 A 
ATOM     10  C   LIG A   1      -6.509  -1.763 126.611  0.00  0.00    +0.004 A 
ATOM     11  C   LIG A   1      -4.585   1.500 126.359  0.00  0.00    +0.044 C 
ATOM     12  C   LIG A   1      -9.145  -3.319 126.313  0.00  0.00    +0.012 C 
ENDROOT
BRANCH   1  13
ATOM     13  C   LIG A   1      -9.470   0.295 123.656  0.00  0.00    -0.010 C 
ATOM     14  C   LIG A   1      -9.659   0.630 125.142  0.00  0.00    +0.008 C 
ATOM     15  C   LIG A   1      -9.545   1.606 122.861  0.00  0.00    +0.008 C 
ENDBRANCH   1  13
TORSDOF 1
ENDMDL
MODEL 7
REMARK VINA RESULT:      -5.8      2.504      4.631
REMARK  Name = NuBBE_1606
REMARK  5 active torsions:
REMARK  status: ('A' for Active; 'I' for Inactive)
REMARK    1  A    between atoms: C_1  and  C_15
REMARK    2  A    between atoms: C_5  and  C_14
REMARK    3  A    between atoms: C_10  and  C_13
REMARK    4  A    between atoms: C_15  and  C_16
REMARK    5  A    between atoms: C_15  and  C_17
REMARK                            x       y       z     vdW  Elec       q    Type
REMARK                         _______ _______ _______ _____ _____    ______ ____
ROOT
ATOM      1  C   LIG A   1      -7.535  -2.185 128.834  0.00  0.00    +0.022 C 
ATOM      2  C   LIG A   1      -8.550  -3.345 128.853  0.00  0.00    +0.009 C 
ATOM      3  C   LIG A   1      -8.606  -4.034 127.496  0.00  0.00    +0.008 C 
ATOM      4  C   LIG A   1      -9.047  -3.072 126.377  0.00  0.00    +0.016 C 
ATOM      5  C   LIG A   1      -8.645  -1.620 126.598  0.00  0.00    -0.041 A 
ATOM      6  C   LIG A   1      -7.981  -1.193 127.766  0.00  0.00    -0.040 A 
ATOM      7  C   LIG A   1      -7.746   0.181 127.965  0.00  0.00    +0.007 A 
ATOM      8  C   LIG A   1      -8.122   1.133 127.012  0.00  0.00    -0.050 A 
ATOM      9  C   LIG A   1      -8.784   0.707 125.862  0.00  0.00    +0.003 A 
ATOM     10  C   LIG A   1      -9.047  -0.650 125.661  0.00  0.00    +0.004 A 
ATOM     11  C   LIG A   1      -7.879   2.593 127.251  0.00  0.00    +0.044 C 
ATOM     12  C   LIG A   1      -8.561  -3.620 125.028  0.00  0.00    +0.012 C 
ENDROOT
BRANCH   1  13
ATOM     13  C   LIG A   1      -6.050  -2.639 128.628  0.00  0.00    -0.010 C 
ATOM     14  C   LIG A   1      -5.463  -2.141 127.300  0.00  0.00    +0.008 C 
ATOM     15  C   LIG A   1      -5.132  -2.159 129.761  0.00  0.00    +0.008 C 
ENDBRANCH   1  13
TORSDOF 1
ENDMDL
MODEL 8
REMARK VINA RESULT:      -5.7      1.386      4.409
REMARK  Name = NuBBE_1606
REMARK  5 active torsions:
REMARK  status: ('A' for Active; 'I' for Inactive)
REMARK    1  A    between atoms: C_1  and  C_15
REMARK    2  A    between atoms: C_5  and  C_14
REMARK    3  A    between atoms: C_10  and  C_13
REMARK    4  A    between atoms: C_15  and  C_16
REMARK    5  A    between atoms: C_15  and  C_17
REMARK                            x       y       z     vdW  Elec       q    Type
REMARK                         _______ _______ _______ _____ _____    ______ ____
ROOT
ATOM      1  C   LIG A   1      -5.929  -0.994 124.461  0.00  0.00    +0.022 C 
ATOM      2  C   LIG A   1      -5.765  -1.577 125.878  0.00  0.00    +0.009 C 
ATOM      3  C   LIG A   1      -6.953  -2.461 126.238  0.00  0.00    +0.008 C 
ATOM      4  C   LIG A   1      -8.279  -1.680 126.226  0.00  0.00    +0.016 C 
ATOM      5  C   LIG A   1      -8.324  -0.526 125.233  0.00  0.00    -0.041 A 
ATOM      6  C   LIG A   1      -7.212  -0.172 124.442  0.00  0.00    -0.040 A 
ATOM      7  C   LIG A   1      -7.278   0.979 123.632  0.00  0.00    +0.007 A 
ATOM      8  C   LIG A   1      -8.435   1.761 123.566  0.00  0.00    -0.050 A 
ATOM      9  C   LIG A   1      -9.529   1.411 124.356  0.00  0.00    +0.003 A 
ATOM     10  C   LIG A   1      -9.471   0.287 125.182  0.00  0.00    +0.004 A 
ATOM     11  C   LIG A   1      -8.478   2.994 122.712  0.00  0.00    +0.044 C 
ATOM     12  C   LIG A   1      -9.438  -2.667 126.036  0.00  0.00    +0.012 C 
ENDROOT
BRANCH   1  13
ATOM     13  C   LIG A   1      -5.903  -2.067 123.321  0.00  0.00    -0.010 C 
ATOM     14  C   LIG A   1      -5.172  -3.351 123.742  0.00  0.00    +0.008 C 
ATOM     15  C   LIG A   1      -7.313  -2.457 122.855  0.00  0.00    +0.008 C 
ENDBRANCH   1  13
TORSDOF 1
ENDMDL
MODEL 9
REMARK VINA RESULT:      -5.7      2.211      4.501
REMARK  Name = NuBBE_1606
REMARK  5 active torsions:
REMARK  status: ('A' for Active; 'I' for Inactive)
REMARK    1  A    between atoms: C_1  and  C_15
REMARK    2  A    between atoms: C_5  and  C_14
REMARK    3  A    between atoms: C_10  and  C_13
REMARK    4  A    between atoms: C_15  and  C_16
REMARK    5  A    between atoms: C_15  and  C_17
REMARK                            x       y       z     vdW  Elec       q    Type
REMARK                         _______ _______ _______ _____ _____    ______ ____
ROOT
ATOM      1  C   LIG A   1      -7.447   0.148 126.895  0.00  0.00    +0.022 C 
ATOM      2  C   LIG A   1      -7.885   0.377 128.356  0.00  0.00    +0.009 C 
ATOM      3  C   LIG A   1      -7.338  -0.719 129.260  0.00  0.00    +0.008 C 
ATOM      4  C   LIG A   1      -7.848  -2.113 128.854  0.00  0.00    +0.016 C 
ATOM      5  C   LIG A   1      -8.127  -2.274 127.365  0.00  0.00    -0.041 A 
ATOM      6  C   LIG A   1      -7.987  -1.207 126.455  0.00  0.00    -0.040 A 
ATOM      7  C   LIG A   1      -8.377  -1.387 125.113  0.00  0.00    +0.007 A 
ATOM      8  C   LIG A   1      -8.866  -2.613 124.652  0.00  0.00    -0.050 A 
ATOM      9  C   LIG A   1      -9.009  -3.663 125.557  0.00  0.00    +0.003 A 
ATOM     10  C   LIG A   1      -8.650  -3.493 126.896  0.00  0.00    +0.004 A 
ATOM     11  C   LIG A   1      -9.293  -2.778 123.224  0.00  0.00    +0.044 C 
ATOM     12  C   LIG A   1      -6.880  -3.176 129.390  0.00  0.00    +0.012 C 
ENDROOT
BRANCH   1  13
ATOM     13  C   LIG A   1      -5.903   0.267 126.666  0.00  0.00    -0.010 C 
ATOM     14  C   LIG A   1      -5.337  -0.913 125.861  0.00  0.00    +0.008 C 
ATOM     15  C   LIG A   1      -5.520   1.563 125.939  0.00  0.00    +0.008 C 
ENDBRANCH   1  13
TORSDOF 1
ENDMDL
