MODEL 1
REMARK VINA RESULT:      -9.1      0.000      0.000
REMARK  Name = NuBBE_329
REMARK  3 active torsions:
REMARK  status: ('A' for Active; 'I' for Inactive)
REMARK    1  A    between atoms: C_23  and  C_24
REMARK    2  A    between atoms: C_24  and  O_25
REMARK    3  A    between atoms: C_29  and  C_31
REMARK                            x       y       z     vdW  Elec       q    Type
REMARK                         _______ _______ _______ _____ _____    ______ ____
ROOT
ATOM      1  H   LIG A   1      -6.941   4.771 125.174  0.00  0.00    +0.155 HD
ATOM      2  N   LIG A   1      -7.110   4.061 124.476  0.00  0.00    -0.284 N 
ATOM      3  C   LIG A   1      -6.366   3.868 123.325  0.00  0.00    +0.038 A 
ATOM      4  C   LIG A   1      -5.262   4.587 122.920  0.00  0.00    +0.023 A 
ATOM      5  C   LIG A   1      -4.662   4.215 121.715  0.00  0.00    +0.002 A 
ATOM      6  C   LIG A   1      -5.179   3.147 120.959  0.00  0.00    +0.000 A 
ATOM      7  C   LIG A   1      -6.302   2.435 121.392  0.00  0.00    +0.006 A 
ATOM      8  C   LIG A   1      -6.893   2.808 122.587  0.00  0.00    -0.010 A 
ATOM      9  C   LIG A   1      -8.087   2.237 123.315  0.00  0.00    +0.090 C 
ATOM     10  C   LIG A   1      -8.157   3.155 124.566  0.00  0.00    +0.229 C 
ATOM     11  O   LIG A   1      -8.973   3.125 125.473  0.00  0.00    -0.274 OA
ATOM     12  C   LIG A   1      -7.989   0.740 123.632  0.00  0.00    +0.077 C 
ATOM     13  C   LIG A   1      -7.067   0.322 124.784  0.00  0.00    +0.029 C 
ATOM     14  C   LIG A   1      -7.362  -1.127 125.217  0.00  0.00    +0.038 C 
ATOM     15  C   LIG A   1      -8.794  -1.167 125.801  0.00  0.00    +0.051 C 
ATOM     16  C   LIG A   1      -9.759  -0.184 125.085  0.00  0.00    +0.092 C 
ATOM     17  N   LIG A   1      -9.370   0.218 123.727  0.00  0.00    -0.298 NA
ATOM     18  C   LIG A   1     -10.271   1.265 123.204  0.00  0.00    +0.086 C 
ATOM     19  C   LIG A   1      -9.388   2.307 122.524  0.00  0.00    +0.038 C 
ATOM     20  C   LIG A   1      -7.210  -2.150 124.118  0.00  0.00    +0.074 C 
ATOM     21  C   LIG A   1      -8.123  -3.104 123.886  0.00  0.00    +0.198 C 
ATOM     22  O   LIG A   1      -9.273  -3.299 124.598  0.00  0.00    -0.496 OA
ATOM     23  C   LIG A   1      -9.350  -2.604 125.850  0.00  0.00    +0.174 C 
ATOM     24  C   LIG A   1      -8.676  -3.458 126.930  0.00  0.00    +0.052 C 
ENDROOT
BRANCH  20  25
ATOM     25  C   LIG A   1      -5.999  -2.107 123.277  0.00  0.00    +0.336 C 
ATOM     26  O   LIG A   1      -6.012  -1.797 122.098  0.00  0.00    -0.245 OA
BRANCH  25  27
ATOM     27  O   LIG A   1      -4.895  -2.538 123.924  0.00  0.00    -0.477 OA
ATOM     28  H   LIG A   1      -4.739  -2.074 124.770  0.00  0.00    +0.295 HD
ENDBRANCH  25  27
ENDBRANCH  20  25
TORSDOF 2
ENDMDL
MODEL 2
REMARK VINA RESULT:      -7.9      2.016      2.737
REMARK  Name = NuBBE_329
REMARK  3 active torsions:
REMARK  status: ('A' for Active; 'I' for Inactive)
REMARK    1  A    between atoms: C_23  and  C_24
REMARK    2  A    between atoms: C_24  and  O_25
REMARK    3  A    between atoms: C_29  and  C_31
REMARK                            x       y       z     vdW  Elec       q    Type
REMARK                         _______ _______ _______ _____ _____    ______ ____
ROOT
ATOM      1  H   LIG A   1      -4.339   4.244 122.659  0.00  0.00    +0.155 HD
ATOM      2  N   LIG A   1      -5.289   3.947 122.827  0.00  0.00    -0.284 N 
ATOM      3  C   LIG A   1      -6.304   3.920 121.886  0.00  0.00    +0.038 A 
ATOM      4  C   LIG A   1      -6.213   4.276 120.558  0.00  0.00    +0.023 A 
ATOM      5  C   LIG A   1      -7.371   4.167 119.785  0.00  0.00    +0.002 A 
ATOM      6  C   LIG A   1      -8.573   3.712 120.357  0.00  0.00    +0.000 A 
ATOM      7  C   LIG A   1      -8.638   3.359 121.709  0.00  0.00    +0.006 A 
ATOM      8  C   LIG A   1      -7.487   3.468 122.470  0.00  0.00    -0.010 A 
ATOM      9  C   LIG A   1      -7.238   3.156 123.927  0.00  0.00    +0.090 C 
ATOM     10  C   LIG A   1      -5.735   3.522 124.071  0.00  0.00    +0.229 C 
ATOM     11  O   LIG A   1      -5.044   3.472 125.075  0.00  0.00    -0.274 OA
ATOM     12  C   LIG A   1      -7.584   1.723 124.346  0.00  0.00    +0.077 C 
ATOM     13  C   LIG A   1      -6.614   0.613 123.925  0.00  0.00    +0.029 C 
ATOM     14  C   LIG A   1      -6.887  -0.678 124.723  0.00  0.00    +0.038 C 
ATOM     15  C   LIG A   1      -6.569  -0.395 126.210  0.00  0.00    +0.051 C 
ATOM     16  C   LIG A   1      -6.913   1.061 126.628  0.00  0.00    +0.092 C 
ATOM     17  N   LIG A   1      -7.903   1.750 125.790  0.00  0.00    -0.298 NA
ATOM     18  C   LIG A   1      -8.039   3.166 126.182  0.00  0.00    +0.086 C 
ATOM     19  C   LIG A   1      -8.085   3.979 124.892  0.00  0.00    +0.038 C 
ATOM     20  C   LIG A   1      -8.289  -1.217 124.574  0.00  0.00    +0.074 C 
ATOM     21  C   LIG A   1      -9.025  -1.617 125.621  0.00  0.00    +0.198 C 
ATOM     22  O   LIG A   1      -8.623  -1.616 126.928  0.00  0.00    -0.496 OA
ATOM     23  C   LIG A   1      -7.215  -1.441 127.140  0.00  0.00    +0.174 C 
ATOM     24  C   LIG A   1      -6.528  -2.808 127.053  0.00  0.00    +0.052 C 
ENDROOT
BRANCH  20  25
ATOM     25  C   LIG A   1      -8.864  -1.325 123.220  0.00  0.00    +0.336 C 
ATOM     26  O   LIG A   1      -9.830  -0.681 122.850  0.00  0.00    -0.245 OA
BRANCH  25  27
ATOM     27  O   LIG A   1      -8.268  -2.277 122.472  0.00  0.00    -0.477 OA
ATOM     28  H   LIG A   1      -8.358  -3.175 122.848  0.00  0.00    +0.295 HD
ENDBRANCH  25  27
ENDBRANCH  20  25
TORSDOF 2
ENDMDL
MODEL 3
REMARK VINA RESULT:      -7.8      4.912      8.020
REMARK  Name = NuBBE_329
REMARK  3 active torsions:
REMARK  status: ('A' for Active; 'I' for Inactive)
REMARK    1  A    between atoms: C_23  and  C_24
REMARK    2  A    between atoms: C_24  and  O_25
REMARK    3  A    between atoms: C_29  and  C_31
REMARK                            x       y       z     vdW  Elec       q    Type
REMARK                         _______ _______ _______ _____ _____    ______ ____
ROOT
ATOM      1  H   LIG A   1      -3.987  -0.734 127.843  0.00  0.00    +0.155 HD
ATOM      2  N   LIG A   1      -4.979  -0.744 128.027  0.00  0.00    -0.284 N 
ATOM      3  C   LIG A   1      -5.659  -1.724 128.730  0.00  0.00    +0.038 A 
ATOM      4  C   LIG A   1      -5.121  -2.850 129.315  0.00  0.00    +0.023 A 
ATOM      5  C   LIG A   1      -5.999  -3.707 129.981  0.00  0.00    +0.002 A 
ATOM      6  C   LIG A   1      -7.374  -3.418 130.041  0.00  0.00    +0.000 A 
ATOM      7  C   LIG A   1      -7.894  -2.270 129.436  0.00  0.00    +0.006 A 
ATOM      8  C   LIG A   1      -7.020  -1.422 128.778  0.00  0.00    -0.010 A 
ATOM      9  C   LIG A   1      -7.270  -0.121 128.051  0.00  0.00    +0.090 C 
ATOM     10  C   LIG A   1      -5.838   0.248 127.574  0.00  0.00    +0.229 C 
ATOM     11  O   LIG A   1      -5.494   1.213 126.911  0.00  0.00    -0.274 OA
ATOM     12  C   LIG A   1      -7.956   0.961 128.892  0.00  0.00    +0.077 C 
ATOM     13  C   LIG A   1      -7.102   1.690 129.936  0.00  0.00    +0.029 C 
ATOM     14  C   LIG A   1      -7.808   2.972 130.417  0.00  0.00    +0.038 C 
ATOM     15  C   LIG A   1      -7.905   3.942 129.215  0.00  0.00    +0.051 C 
ATOM     16  C   LIG A   1      -8.112   3.202 127.866  0.00  0.00    +0.092 C 
ATOM     17  N   LIG A   1      -8.681   1.851 127.958  0.00  0.00    -0.298 NA
ATOM     18  C   LIG A   1      -8.691   1.187 126.639  0.00  0.00    +0.086 C 
ATOM     19  C   LIG A   1      -8.216  -0.246 126.863  0.00  0.00    +0.038 C 
ATOM     20  C   LIG A   1      -9.172   2.743 131.022  0.00  0.00    +0.074 C 
ATOM     21  C   LIG A   1     -10.242   3.485 130.699  0.00  0.00    +0.198 C 
ATOM     22  O   LIG A   1     -10.251   4.534 129.822  0.00  0.00    -0.496 OA
ATOM     23  C   LIG A   1      -8.960   5.040 129.451  0.00  0.00    +0.174 C 
ATOM     24  C   LIG A   1      -8.515   6.069 130.495  0.00  0.00    +0.052 C 
ENDROOT
BRANCH  20  25
ATOM     25  C   LIG A   1      -9.329   1.671 132.022  0.00  0.00    +0.336 C 
ATOM     26  O   LIG A   1     -10.041   0.696 131.854  0.00  0.00    -0.245 OA
BRANCH  25  27
ATOM     27  O   LIG A   1      -8.679   1.931 133.177  0.00  0.00    -0.477 OA
ATOM     28  H   LIG A   1      -8.394   1.124 133.649  0.00  0.00    +0.295 HD
ENDBRANCH  25  27
ENDBRANCH  20  25
TORSDOF 2
ENDMDL
MODEL 4
REMARK VINA RESULT:      -7.7      3.314      6.453
REMARK  Name = NuBBE_329
REMARK  3 active torsions:
REMARK  status: ('A' for Active; 'I' for Inactive)
REMARK    1  A    between atoms: C_23  and  C_24
REMARK    2  A    between atoms: C_24  and  O_25
REMARK    3  A    between atoms: C_29  and  C_31
REMARK                            x       y       z     vdW  Elec       q    Type
REMARK                         _______ _______ _______ _____ _____    ______ ____
ROOT
ATOM      1  H   LIG A   1      -9.694  -3.685 126.924  0.00  0.00    +0.155 HD
ATOM      2  N   LIG A   1      -8.984  -3.062 126.568  0.00  0.00    -0.284 N 
ATOM      3  C   LIG A   1      -8.734  -2.804 125.232  0.00  0.00    +0.038 A 
ATOM      4  C   LIG A   1      -9.403  -3.327 124.146  0.00  0.00    +0.023 A 
ATOM      5  C   LIG A   1      -8.981  -2.922 122.878  0.00  0.00    +0.002 A 
ATOM      6  C   LIG A   1      -7.915  -2.017 122.734  0.00  0.00    +0.000 A 
ATOM      7  C   LIG A   1      -7.251  -1.502 123.853  0.00  0.00    +0.006 A 
ATOM      8  C   LIG A   1      -7.674  -1.907 125.108  0.00  0.00    -0.010 A 
ATOM      9  C   LIG A   1      -7.178  -1.525 126.483  0.00  0.00    +0.090 C 
ATOM     10  C   LIG A   1      -8.115  -2.363 127.395  0.00  0.00    +0.229 C 
ATOM     11  O   LIG A   1      -8.111  -2.432 128.613  0.00  0.00    -0.274 OA
ATOM     12  C   LIG A   1      -7.190  -0.020 126.775  0.00  0.00    +0.077 C 
ATOM     13  C   LIG A   1      -8.547   0.631 127.066  0.00  0.00    +0.029 C 
ATOM     14  C   LIG A   1      -8.357   2.023 127.699  0.00  0.00    +0.038 C 
ATOM     15  C   LIG A   1      -7.688   1.831 129.081  0.00  0.00    +0.051 C 
ATOM     16  C   LIG A   1      -6.687   0.643 129.099  0.00  0.00    +0.092 C 
ATOM     17  N   LIG A   1      -6.149   0.240 127.794  0.00  0.00    -0.298 NA
ATOM     18  C   LIG A   1      -5.334  -0.986 127.910  0.00  0.00    +0.086 C 
ATOM     19  C   LIG A   1      -5.718  -1.884 126.738  0.00  0.00    +0.038 C 
ATOM     20  C   LIG A   1      -7.561   2.988 126.855  0.00  0.00    +0.074 C 
ATOM     21  C   LIG A   1      -6.570   3.740 127.356  0.00  0.00    +0.198 C 
ATOM     22  O   LIG A   1      -6.163   3.759 128.661  0.00  0.00    -0.496 OA
ATOM     23  C   LIG A   1      -7.057   3.139 129.596  0.00  0.00    +0.174 C 
ATOM     24  C   LIG A   1      -8.107   4.167 130.031  0.00  0.00    +0.052 C 
ENDROOT
BRANCH  20  25
ATOM     25  C   LIG A   1      -7.899   3.121 125.426  0.00  0.00    +0.336 C 
ATOM     26  O   LIG A   1      -7.172   2.739 124.526  0.00  0.00    -0.245 OA
BRANCH  25  27
ATOM     27  O   LIG A   1      -9.051   3.796 125.220  0.00  0.00    -0.477 OA
ATOM     28  H   LIG A   1      -9.308   3.840 124.278  0.00  0.00    +0.295 HD
ENDBRANCH  25  27
ENDBRANCH  20  25
TORSDOF 2
ENDMDL
MODEL 5
REMARK VINA RESULT:      -7.7      3.178      6.250
REMARK  Name = NuBBE_329
REMARK  3 active torsions:
REMARK  status: ('A' for Active; 'I' for Inactive)
REMARK    1  A    between atoms: C_23  and  C_24
REMARK    2  A    between atoms: C_24  and  O_25
REMARK    3  A    between atoms: C_29  and  C_31
REMARK                            x       y       z     vdW  Elec       q    Type
REMARK                         _______ _______ _______ _____ _____    ______ ____
ROOT
ATOM      1  H   LIG A   1      -6.870  -1.205 122.187  0.00  0.00    +0.155 HD
ATOM      2  N   LIG A   1      -7.224  -0.889 123.078  0.00  0.00    -0.284 N 
ATOM      3  C   LIG A   1      -7.781  -1.695 124.055  0.00  0.00    +0.038 A 
ATOM      4  C   LIG A   1      -7.946  -3.063 124.008  0.00  0.00    +0.023 A 
ATOM      5  C   LIG A   1      -8.533  -3.675 125.117  0.00  0.00    +0.002 A 
ATOM      6  C   LIG A   1      -8.935  -2.911 126.228  0.00  0.00    +0.000 A 
ATOM      7  C   LIG A   1      -8.758  -1.524 126.248  0.00  0.00    +0.006 A 
ATOM      8  C   LIG A   1      -8.175  -0.922 125.147  0.00  0.00    -0.010 A 
ATOM      9  C   LIG A   1      -7.843   0.527 124.879  0.00  0.00    +0.090 C 
ATOM     10  C   LIG A   1      -7.219   0.445 123.459  0.00  0.00    +0.229 C 
ATOM     11  O   LIG A   1      -6.802   1.362 122.769  0.00  0.00    -0.274 OA
ATOM     12  C   LIG A   1      -6.942   1.185 125.930  0.00  0.00    +0.077 C 
ATOM     13  C   LIG A   1      -5.452   0.822 125.907  0.00  0.00    +0.029 C 
ATOM     14  C   LIG A   1      -4.637   1.823 126.749  0.00  0.00    +0.038 C 
ATOM     15  C   LIG A   1      -4.734   3.209 126.067  0.00  0.00    +0.051 C 
ATOM     16  C   LIG A   1      -6.113   3.448 125.394  0.00  0.00    +0.092 C 
ATOM     17  N   LIG A   1      -7.224   2.637 125.908  0.00  0.00    -0.298 NA
ATOM     18  C   LIG A   1      -8.444   2.833 125.100  0.00  0.00    +0.086 C 
ATOM     19  C   LIG A   1      -9.055   1.452 124.880  0.00  0.00    +0.038 C 
ATOM     20  C   LIG A   1      -5.061   1.914 128.194  0.00  0.00    +0.074 C 
ATOM     21  C   LIG A   1      -5.244   3.085 128.823  0.00  0.00    +0.198 C 
ATOM     22  O   LIG A   1      -5.058   4.323 128.275  0.00  0.00    -0.496 OA
ATOM     23  C   LIG A   1      -4.345   4.347 127.031  0.00  0.00    +0.174 C 
ATOM     24  C   LIG A   1      -2.841   4.381 127.324  0.00  0.00    +0.052 C 
ENDROOT
BRANCH  20  25
ATOM     25  C   LIG A   1      -5.267   0.664 128.949  0.00  0.00    +0.336 C 
ATOM     26  O   LIG A   1      -6.361   0.280 129.325  0.00  0.00    -0.245 OA
BRANCH  25  27
ATOM     27  O   LIG A   1      -4.109   0.043 129.261  0.00  0.00    -0.477 OA
ATOM     28  H   LIG A   1      -3.322   0.607 129.127  0.00  0.00    +0.295 HD
ENDBRANCH  25  27
ENDBRANCH  20  25
TORSDOF 2
ENDMDL
MODEL 6
REMARK VINA RESULT:      -7.6      5.931      8.874
REMARK  Name = NuBBE_329
REMARK  3 active torsions:
REMARK  status: ('A' for Active; 'I' for Inactive)
REMARK    1  A    between atoms: C_23  and  C_24
REMARK    2  A    between atoms: C_24  and  O_25
REMARK    3  A    between atoms: C_29  and  C_31
REMARK                            x       y       z     vdW  Elec       q    Type
REMARK                         _______ _______ _______ _____ _____    ______ ____
ROOT
ATOM      1  H   LIG A   1      -8.080  -4.039 130.953  0.00  0.00    +0.155 HD
ATOM      2  N   LIG A   1      -7.772  -3.199 130.486  0.00  0.00    -0.284 N 
ATOM      3  C   LIG A   1      -8.014  -2.877 129.162  0.00  0.00    +0.038 A 
ATOM      4  C   LIG A   1      -8.721  -3.623 128.243  0.00  0.00    +0.023 A 
ATOM      5  C   LIG A   1      -8.844  -3.101 126.954  0.00  0.00    +0.002 A 
ATOM      6  C   LIG A   1      -8.262  -1.863 126.624  0.00  0.00    +0.000 A 
ATOM      7  C   LIG A   1      -7.548  -1.128 127.576  0.00  0.00    +0.006 A 
ATOM      8  C   LIG A   1      -7.430  -1.650 128.853  0.00  0.00    -0.010 A 
ATOM      9  C   LIG A   1      -6.745  -1.098 130.081  0.00  0.00    +0.090 C 
ATOM     10  C   LIG A   1      -7.023  -2.218 131.121  0.00  0.00    +0.229 C 
ATOM     11  O   LIG A   1      -6.656  -2.269 132.283  0.00  0.00    -0.274 OA
ATOM     12  C   LIG A   1      -7.219   0.295 130.509  0.00  0.00    +0.077 C 
ATOM     13  C   LIG A   1      -8.582   0.393 131.205  0.00  0.00    +0.029 C 
ATOM     14  C   LIG A   1      -8.742   1.761 131.897  0.00  0.00    +0.038 C 
ATOM     15  C   LIG A   1      -7.693   1.845 133.032  0.00  0.00    +0.051 C 
ATOM     16  C   LIG A   1      -6.368   1.119 132.675  0.00  0.00    +0.092 C 
ATOM     17  N   LIG A   1      -6.105   0.935 131.243  0.00  0.00    -0.298 NA
ATOM     18  C   LIG A   1      -4.904   0.105 131.025  0.00  0.00    +0.086 C 
ATOM     19  C   LIG A   1      -5.246  -0.882 129.912  0.00  0.00    +0.038 C 
ATOM     20  C   LIG A   1      -8.616   2.947 130.972  0.00  0.00    +0.074 C 
ATOM     21  C   LIG A   1      -7.867   4.019 131.267  0.00  0.00    +0.198 C 
ATOM     22  O   LIG A   1      -7.150   4.201 132.417  0.00  0.00    -0.496 OA
ATOM     23  C   LIG A   1      -7.462   3.299 133.488  0.00  0.00    +0.174 C 
ATOM     24  C   LIG A   1      -8.648   3.863 134.278  0.00  0.00    +0.052 C 
ENDROOT
BRANCH  20  25
ATOM     25  C   LIG A   1      -9.362   2.931 129.700  0.00  0.00    +0.336 C 
ATOM     26  O   LIG A   1      -8.854   2.650 128.628  0.00  0.00    -0.245 OA
BRANCH  25  27
ATOM     27  O   LIG A   1     -10.638   3.352 129.834  0.00  0.00    -0.477 OA
ATOM     28  H   LIG A   1     -10.990   3.232 130.738  0.00  0.00    +0.295 HD
ENDBRANCH  25  27
ENDBRANCH  20  25
TORSDOF 2
ENDMDL
MODEL 7
REMARK VINA RESULT:      -7.6      2.462      4.138
REMARK  Name = NuBBE_329
REMARK  3 active torsions:
REMARK  status: ('A' for Active; 'I' for Inactive)
REMARK    1  A    between atoms: C_23  and  C_24
REMARK    2  A    between atoms: C_24  and  O_25
REMARK    3  A    between atoms: C_29  and  C_31
REMARK                            x       y       z     vdW  Elec       q    Type
REMARK                         _______ _______ _______ _____ _____    ______ ____
ROOT
ATOM      1  H   LIG A   1     -10.693   0.364 122.630  0.00  0.00    +0.155 HD
ATOM      2  N   LIG A   1      -9.721   0.317 122.899  0.00  0.00    -0.284 N 
ATOM      3  C   LIG A   1      -8.799   1.342 122.771  0.00  0.00    +0.038 A 
ATOM      4  C   LIG A   1      -9.027   2.606 122.272  0.00  0.00    +0.023 A 
ATOM      5  C   LIG A   1      -7.944   3.486 122.238  0.00  0.00    +0.002 A 
ATOM      6  C   LIG A   1      -6.678   3.081 122.698  0.00  0.00    +0.000 A 
ATOM      7  C   LIG A   1      -6.473   1.791 123.198  0.00  0.00    +0.006 A 
ATOM      8  C   LIG A   1      -7.551   0.922 123.230  0.00  0.00    -0.010 A 
ATOM      9  C   LIG A   1      -7.650  -0.504 123.717  0.00  0.00    +0.090 C 
ATOM     10  C   LIG A   1      -9.145  -0.823 123.441  0.00  0.00    +0.229 C 
ATOM     11  O   LIG A   1      -9.736  -1.873 123.637  0.00  0.00    -0.274 OA
ATOM     12  C   LIG A   1      -7.214  -0.719 125.170  0.00  0.00    +0.077 C 
ATOM     13  C   LIG A   1      -8.178  -0.260 126.270  0.00  0.00    +0.029 C 
ATOM     14  C   LIG A   1      -7.785  -0.873 127.628  0.00  0.00    +0.038 C 
ATOM     15  C   LIG A   1      -7.971  -2.406 127.531  0.00  0.00    +0.051 C 
ATOM     16  C   LIG A   1      -7.642  -2.958 126.118  0.00  0.00    +0.092 C 
ATOM     17  N   LIG A   1      -6.761  -2.122 125.293  0.00  0.00    -0.298 NA
ATOM     18  C   LIG A   1      -6.640  -2.664 123.925  0.00  0.00    +0.086 C 
ATOM     19  C   LIG A   1      -6.746  -1.479 122.970  0.00  0.00    +0.038 C 
ATOM     20  C   LIG A   1      -6.384  -0.537 128.081  0.00  0.00    +0.074 C 
ATOM     21  C   LIG A   1      -5.539  -1.460 128.562  0.00  0.00    +0.198 C 
ATOM     22  O   LIG A   1      -5.816  -2.789 128.728  0.00  0.00    -0.496 OA
ATOM     23  C   LIG A   1      -7.203  -3.145 128.644  0.00  0.00    +0.174 C 
ATOM     24  C   LIG A   1      -7.845  -2.960 130.024  0.00  0.00    +0.052 C 
ENDROOT
BRANCH  20  25
ATOM     25  C   LIG A   1      -5.936   0.866 128.007  0.00  0.00    +0.336 C 
ATOM     26  O   LIG A   1      -6.518   1.785 128.556  0.00  0.00    -0.245 OA
BRANCH  25  27
ATOM     27  O   LIG A   1      -4.874   1.034 127.191  0.00  0.00    -0.477 OA
ATOM     28  H   LIG A   1      -4.017   0.954 127.653  0.00  0.00    +0.295 HD
ENDBRANCH  25  27
ENDBRANCH  20  25
TORSDOF 2
ENDMDL
MODEL 8
REMARK VINA RESULT:      -7.4      3.034      4.781
REMARK  Name = NuBBE_329
REMARK  3 active torsions:
REMARK  status: ('A' for Active; 'I' for Inactive)
REMARK    1  A    between atoms: C_23  and  C_24
REMARK    2  A    between atoms: C_24  and  O_25
REMARK    3  A    between atoms: C_29  and  C_31
REMARK                            x       y       z     vdW  Elec       q    Type
REMARK                         _______ _______ _______ _____ _____    ______ ____
ROOT
ATOM      1  H   LIG A   1     -10.420   2.701 122.031  0.00  0.00    +0.155 HD
ATOM      2  N   LIG A   1      -9.469   2.527 122.322  0.00  0.00    -0.284 N 
ATOM      3  C   LIG A   1      -8.334   3.016 121.699  0.00  0.00    +0.038 A 
ATOM      4  C   LIG A   1      -8.282   3.829 120.587  0.00  0.00    +0.023 A 
ATOM      5  C   LIG A   1      -7.019   4.206 120.127  0.00  0.00    +0.002 A 
ATOM      6  C   LIG A   1      -5.857   3.762 120.784  0.00  0.00    +0.000 A 
ATOM      7  C   LIG A   1      -5.937   2.935 121.909  0.00  0.00    +0.006 A 
ATOM      8  C   LIG A   1      -7.193   2.565 122.361  0.00  0.00    -0.010 A 
ATOM      9  C   LIG A   1      -7.602   1.708 123.536  0.00  0.00    +0.090 C 
ATOM     10  C   LIG A   1      -9.150   1.735 123.416  0.00  0.00    +0.229 C 
ATOM     11  O   LIG A   1      -9.967   1.168 124.123  0.00  0.00    -0.274 OA
ATOM     12  C   LIG A   1      -7.063   2.178 124.892  0.00  0.00    +0.077 C 
ATOM     13  C   LIG A   1      -7.732   3.401 125.530  0.00  0.00    +0.029 C 
ATOM     14  C   LIG A   1      -7.350   3.514 127.019  0.00  0.00    +0.038 C 
ATOM     15  C   LIG A   1      -7.941   2.290 127.757  0.00  0.00    +0.051 C 
ATOM     16  C   LIG A   1      -7.944   1.008 126.880  0.00  0.00    +0.092 C 
ATOM     17  N   LIG A   1      -6.982   0.990 125.770  0.00  0.00    -0.298 NA
ATOM     18  C   LIG A   1      -7.176  -0.199 124.918  0.00  0.00    +0.086 C 
ATOM     19  C   LIG A   1      -7.083   0.276 123.470  0.00  0.00    +0.038 C 
ATOM     20  C   LIG A   1      -5.866   3.620 127.275  0.00  0.00    +0.074 C 
ATOM     21  C   LIG A   1      -5.239   2.893 128.212  0.00  0.00    +0.198 C 
ATOM     22  O   LIG A   1      -5.832   1.997 129.057  0.00  0.00    -0.496 OA
ATOM     23  C   LIG A   1      -7.264   2.065 129.123  0.00  0.00    +0.174 C 
ATOM     24  C   LIG A   1      -7.661   3.124 130.157  0.00  0.00    +0.052 C 
ENDROOT
BRANCH  20  25
ATOM     25  C   LIG A   1      -5.078   4.575 126.474  0.00  0.00    +0.336 C 
ATOM     26  O   LIG A   1      -5.245   5.782 126.514  0.00  0.00    -0.245 OA
BRANCH  25  27
ATOM     27  O   LIG A   1      -4.223   3.967 125.624  0.00  0.00    -0.477 OA
ATOM     28  H   LIG A   1      -3.822   3.157 125.995  0.00  0.00    +0.295 HD
ENDBRANCH  25  27
ENDBRANCH  20  25
TORSDOF 2
ENDMDL
MODEL 9
REMARK VINA RESULT:      -7.4      7.892      9.565
REMARK  Name = NuBBE_329
REMARK  3 active torsions:
REMARK  status: ('A' for Active; 'I' for Inactive)
REMARK    1  A    between atoms: C_23  and  C_24
REMARK    2  A    between atoms: C_24  and  O_25
REMARK    3  A    between atoms: C_29  and  C_31
REMARK                            x       y       z     vdW  Elec       q    Type
REMARK                         _______ _______ _______ _____ _____    ______ ____
ROOT
ATOM      1  H   LIG A   1     -11.910   8.314 131.062  0.00  0.00    +0.155 HD
ATOM      2  N   LIG A   1     -11.328   7.602 130.643  0.00  0.00    -0.284 N 
ATOM      3  C   LIG A   1     -11.027   7.497 129.297  0.00  0.00    +0.038 A 
ATOM      4  C   LIG A   1     -11.444   8.334 128.284  0.00  0.00    +0.023 A 
ATOM      5  C   LIG A   1     -11.013   8.038 126.990  0.00  0.00    +0.002 A 
ATOM      6  C   LIG A   1     -10.188   6.925 126.747  0.00  0.00    +0.000 A 
ATOM      7  C   LIG A   1      -9.781   6.089 127.792  0.00  0.00    +0.006 A 
ATOM      8  C   LIG A   1     -10.211   6.388 129.074  0.00  0.00    -0.010 A 
ATOM      9  C   LIG A   1      -9.935   5.698 130.390  0.00  0.00    +0.090 C 
ATOM     10  C   LIG A   1     -10.740   6.584 131.380  0.00  0.00    +0.229 C 
ATOM     11  O   LIG A   1     -10.867   6.437 132.584  0.00  0.00    -0.274 OA
ATOM     12  C   LIG A   1      -8.450   5.548 130.737  0.00  0.00    +0.077 C 
ATOM     13  C   LIG A   1      -7.709   6.800 131.221  0.00  0.00    +0.029 C 
ATOM     14  C   LIG A   1      -6.368   6.419 131.877  0.00  0.00    +0.038 C 
ATOM     15  C   LIG A   1      -6.678   5.604 133.156  0.00  0.00    +0.051 C 
ATOM     16  C   LIG A   1      -7.939   4.712 133.004  0.00  0.00    +0.092 C 
ATOM     17  N   LIG A   1      -8.321   4.373 131.627  0.00  0.00    -0.298 NA
ATOM     18  C   LIG A   1      -9.611   3.655 131.594  0.00  0.00    +0.086 C 
ATOM     19  C   LIG A   1     -10.419   4.253 130.446  0.00  0.00    +0.038 C 
ATOM     20  C   LIG A   1      -5.429   5.653 130.977  0.00  0.00    +0.074 C 
ATOM     21  C   LIG A   1      -4.782   4.549 131.377  0.00  0.00    +0.198 C 
ATOM     22  O   LIG A   1      -4.857   3.985 132.621  0.00  0.00    -0.496 OA
ATOM     23  C   LIG A   1      -5.449   4.808 133.636  0.00  0.00    +0.174 C 
ATOM     24  C   LIG A   1      -4.364   5.707 134.238  0.00  0.00    +0.052 C 
ENDROOT
BRANCH  20  25
ATOM     25  C   LIG A   1      -5.202   6.151 129.607  0.00  0.00    +0.336 C 
ATOM     26  O   LIG A   1      -5.383   5.475 128.609  0.00  0.00    -0.245 OA
BRANCH  25  27
ATOM     27  O   LIG A   1      -4.681   7.396 129.582  0.00  0.00    -0.477 OA
ATOM     28  H   LIG A   1      -4.216   7.636 130.407  0.00  0.00    +0.295 HD
ENDBRANCH  25  27
ENDBRANCH  20  25
TORSDOF 2
ENDMDL
