MODEL 1
REMARK VINA RESULT:      -6.9      0.000      0.000
REMARK  Name = NuBBE_1475
REMARK  5 active torsions:
REMARK  status: ('A' for Active; 'I' for Inactive)
REMARK    1  A    between atoms: O_1  and  C_2
REMARK    2  A    between atoms: C_4  and  O_5
REMARK    3  A    between atoms: C_6  and  O_19
REMARK    4  A    between atoms: C_14  and  O_15
REMARK    5  A    between atoms: O_19  and  C_20
REMARK                            x       y       z     vdW  Elec       q    Type
REMARK                         _______ _______ _______ _____ _____    ______ ____
ROOT
ATOM      1  C   LIG A   1      -6.504   3.783 124.721  0.00  0.00    +0.164 A 
ATOM      2  C   LIG A   1      -5.447   3.311 125.498  0.00  0.00    +0.095 A 
ATOM      3  C   LIG A   1      -5.325   1.939 125.745  0.00  0.00    +0.133 A 
ATOM      4  C   LIG A   1      -7.446   2.892 124.196  0.00  0.00    +0.185 A 
ATOM      5  C   LIG A   1      -7.304   1.509 124.404  0.00  0.00    +0.100 A 
ATOM      6  C   LIG A   1      -6.250   1.029 125.206  0.00  0.00    +0.091 A 
ATOM      7  C   LIG A   1      -6.169  -0.450 125.440  0.00  0.00    +0.201 A 
ATOM      8  C   LIG A   1      -7.157  -1.342 124.775  0.00  0.00    +0.049 A 
ATOM      9  C   LIG A   1      -7.079  -2.732 124.929  0.00  0.00    +0.014 A 
ATOM     10  C   LIG A   1      -8.015  -3.556 124.299  0.00  0.00    +0.004 A 
ATOM     11  C   LIG A   1      -9.028  -2.994 123.520  0.00  0.00    +0.047 A 
ATOM     12  C   LIG A   1      -9.097  -1.610 123.374  0.00  0.00    +0.141 A 
ATOM     13  C   LIG A   1      -8.161  -0.770 123.989  0.00  0.00    +0.093 A 
ATOM     14  N   LIG A   1      -8.262   0.621 123.888  0.00  0.00    -0.348 N 
ATOM     15  O   LIG A   1      -5.317  -0.962 126.159  0.00  0.00    -0.286 OA
ATOM     16  H   LIG A   1      -8.887   0.979 123.171  0.00  0.00    +0.166 HD
ENDROOT
BRANCH   1  17
ATOM     17  O   LIG A   1      -6.610   5.120 124.459  0.00  0.00    -0.503 OA
ATOM     18  H   LIG A   1      -5.981   5.366 123.762  0.00  0.00    +0.292 HD
ENDBRANCH   1  17
BRANCH   3  19
ATOM     19  O   LIG A   1      -4.281   1.506 126.511  0.00  0.00    -0.506 OA
ATOM     20  H   LIG A   1      -4.156   0.549 126.425  0.00  0.00    +0.292 HD
ENDBRANCH   3  19
BRANCH  12  21
ATOM     21  O   LIG A   1     -10.085  -1.036 122.616  0.00  0.00    -0.505 OA
ATOM     22  H   LIG A   1     -10.169  -1.535 121.788  0.00  0.00    +0.292 HD
ENDBRANCH  12  21
BRANCH   4  23
ATOM     23  O   LIG A   1      -8.492   3.297 123.400  0.00  0.00    -0.489 OA
ATOM     24  C   LIG A   1      -8.143   3.282 122.016  0.00  0.00    +0.277 C 
ENDBRANCH   4  23
TORSDOF 4
ENDMDL
MODEL 2
REMARK VINA RESULT:      -6.9      2.362      4.161
REMARK  Name = NuBBE_1475
REMARK  5 active torsions:
REMARK  status: ('A' for Active; 'I' for Inactive)
REMARK    1  A    between atoms: O_1  and  C_2
REMARK    2  A    between atoms: C_4  and  O_5
REMARK    3  A    between atoms: C_6  and  O_19
REMARK    4  A    between atoms: C_14  and  O_15
REMARK    5  A    between atoms: O_19  and  C_20
REMARK                            x       y       z     vdW  Elec       q    Type
REMARK                         _______ _______ _______ _____ _____    ______ ____
ROOT
ATOM      1  C   LIG A   1      -8.476   2.511 123.933  0.00  0.00    +0.164 A 
ATOM      2  C   LIG A   1      -9.182   1.700 123.046  0.00  0.00    +0.095 A 
ATOM      3  C   LIG A   1      -9.420   0.359 123.370  0.00  0.00    +0.133 A 
ATOM      4  C   LIG A   1      -7.998   1.988 125.139  0.00  0.00    +0.185 A 
ATOM      5  C   LIG A   1      -8.272   0.654 125.488  0.00  0.00    +0.100 A 
ATOM      6  C   LIG A   1      -8.967  -0.175 124.586  0.00  0.00    +0.091 A 
ATOM      7  C   LIG A   1      -9.192  -1.603 124.984  0.00  0.00    +0.201 A 
ATOM      8  C   LIG A   1      -8.730  -2.063 126.321  0.00  0.00    +0.049 A 
ATOM      9  C   LIG A   1      -8.971  -3.376 126.746  0.00  0.00    +0.014 A 
ATOM     10  C   LIG A   1      -8.529  -3.792 128.005  0.00  0.00    +0.004 A 
ATOM     11  C   LIG A   1      -7.849  -2.902 128.837  0.00  0.00    +0.047 A 
ATOM     12  C   LIG A   1      -7.614  -1.598 128.404  0.00  0.00    +0.141 A 
ATOM     13  C   LIG A   1      -8.058  -1.160 127.151  0.00  0.00    +0.093 A 
ATOM     14  N   LIG A   1      -7.776   0.130 126.693  0.00  0.00    -0.348 N 
ATOM     15  O   LIG A   1      -9.744  -2.416 124.250  0.00  0.00    -0.286 OA
ATOM     16  H   LIG A   1      -7.451   0.796 127.389  0.00  0.00    +0.166 HD
ENDROOT
BRANCH   1  17
ATOM     17  O   LIG A   1      -8.264   3.826 123.628  0.00  0.00    -0.503 OA
ATOM     18  H   LIG A   1      -7.377   4.090 123.923  0.00  0.00    +0.292 HD
ENDBRANCH   1  17
BRANCH   3  19
ATOM     19  O   LIG A   1     -10.113  -0.411 122.480  0.00  0.00    -0.506 OA
ATOM     20  H   LIG A   1      -9.641  -1.236 122.290  0.00  0.00    +0.292 HD
ENDBRANCH   3  19
BRANCH  12  21
ATOM     21  O   LIG A   1      -6.945  -0.707 129.203  0.00  0.00    -0.505 OA
ATOM     22  H   LIG A   1      -6.723  -1.147 130.039  0.00  0.00    +0.292 HD
ENDBRANCH  12  21
BRANCH   4  23
ATOM     23  O   LIG A   1      -7.321   2.747 126.065  0.00  0.00    -0.489 OA
ATOM     24  C   LIG A   1      -5.931   2.846 125.755  0.00  0.00    +0.277 C 
ENDBRANCH   4  23
TORSDOF 4
ENDMDL
MODEL 3
REMARK VINA RESULT:      -6.7      7.187      9.128
REMARK  Name = NuBBE_1475
REMARK  5 active torsions:
REMARK  status: ('A' for Active; 'I' for Inactive)
REMARK    1  A    between atoms: O_1  and  C_2
REMARK    2  A    between atoms: C_4  and  O_5
REMARK    3  A    between atoms: C_6  and  O_19
REMARK    4  A    between atoms: C_14  and  O_15
REMARK    5  A    between atoms: O_19  and  C_20
REMARK                            x       y       z     vdW  Elec       q    Type
REMARK                         _______ _______ _______ _____ _____    ______ ____
ROOT
ATOM      1  C   LIG A   1      -7.453   4.439 131.168  0.00  0.00    +0.164 A 
ATOM      2  C   LIG A   1      -8.230   4.475 132.325  0.00  0.00    +0.095 A 
ATOM      3  C   LIG A   1      -9.506   5.048 132.288  0.00  0.00    +0.133 A 
ATOM      4  C   LIG A   1      -7.941   4.982 129.974  0.00  0.00    +0.185 A 
ATOM      5  C   LIG A   1      -9.239   5.519 129.921  0.00  0.00    +0.100 A 
ATOM      6  C   LIG A   1     -10.020   5.577 131.092  0.00  0.00    +0.091 A 
ATOM      7  C   LIG A   1     -11.378   6.203 130.995  0.00  0.00    +0.201 A 
ATOM      8  C   LIG A   1     -11.862   6.679 129.672  0.00  0.00    +0.049 A 
ATOM      9  C   LIG A   1     -13.147   7.221 129.535  0.00  0.00    +0.014 A 
ATOM     10  C   LIG A   1     -13.586   7.664 128.285  0.00  0.00    +0.004 A 
ATOM     11  C   LIG A   1     -12.746   7.568 127.174  0.00  0.00    +0.047 A 
ATOM     12  C   LIG A   1     -11.470   7.028 127.321  0.00  0.00    +0.141 A 
ATOM     13  C   LIG A   1     -11.017   6.569 128.564  0.00  0.00    +0.093 A 
ATOM     14  N   LIG A   1      -9.718   6.077 128.724  0.00  0.00    -0.348 N 
ATOM     15  O   LIG A   1     -12.115   6.342 131.967  0.00  0.00    -0.286 OA
ATOM     16  H   LIG A   1      -9.211   5.850 127.872  0.00  0.00    +0.166 HD
ENDROOT
BRANCH   1  17
ATOM     17  O   LIG A   1      -6.217   3.859 131.197  0.00  0.00    -0.503 OA
ATOM     18  H   LIG A   1      -6.081   3.342 130.386  0.00  0.00    +0.292 HD
ENDBRANCH   1  17
BRANCH   3  19
ATOM     19  O   LIG A   1     -10.242   5.070 133.438  0.00  0.00    -0.506 OA
ATOM     20  H   LIG A   1     -10.011   4.327 134.015  0.00  0.00    +0.292 HD
ENDBRANCH   3  19
BRANCH  12  21
ATOM     21  O   LIG A   1     -10.626   6.927 126.246  0.00  0.00    -0.505 OA
ATOM     22  H   LIG A   1      -9.731   7.172 126.529  0.00  0.00    +0.292 HD
ENDBRANCH  12  21
BRANCH   4  23
ATOM     23  O   LIG A   1      -7.232   4.950 128.795  0.00  0.00    -0.489 OA
ATOM     24  C   LIG A   1      -7.407   3.714 128.104  0.00  0.00    +0.277 C 
ENDBRANCH   4  23
TORSDOF 4
ENDMDL
MODEL 4
REMARK VINA RESULT:      -6.4      9.411     10.816
REMARK  Name = NuBBE_1475
REMARK  5 active torsions:
REMARK  status: ('A' for Active; 'I' for Inactive)
REMARK    1  A    between atoms: O_1  and  C_2
REMARK    2  A    between atoms: C_4  and  O_5
REMARK    3  A    between atoms: C_6  and  O_19
REMARK    4  A    between atoms: C_14  and  O_15
REMARK    5  A    between atoms: O_19  and  C_20
REMARK                            x       y       z     vdW  Elec       q    Type
REMARK                         _______ _______ _______ _____ _____    ______ ____
ROOT
ATOM      1  C   LIG A   1      -8.810   5.319 132.931  0.00  0.00    +0.164 A 
ATOM      2  C   LIG A   1      -8.986   6.226 131.887  0.00  0.00    +0.095 A 
ATOM      3  C   LIG A   1      -7.868   6.780 131.252  0.00  0.00    +0.133 A 
ATOM      4  C   LIG A   1      -7.522   4.970 133.352  0.00  0.00    +0.185 A 
ATOM      5  C   LIG A   1      -6.397   5.490 132.689  0.00  0.00    +0.100 A 
ATOM      6  C   LIG A   1      -6.569   6.422 131.648  0.00  0.00    +0.091 A 
ATOM      7  C   LIG A   1      -5.337   6.986 131.005  0.00  0.00    +0.201 A 
ATOM      8  C   LIG A   1      -4.003   6.499 131.448  0.00  0.00    +0.049 A 
ATOM      9  C   LIG A   1      -2.834   6.964 130.833  0.00  0.00    +0.014 A 
ATOM     10  C   LIG A   1      -1.589   6.498 131.262  0.00  0.00    +0.004 A 
ATOM     11  C   LIG A   1      -1.510   5.571 132.302  0.00  0.00    +0.047 A 
ATOM     12  C   LIG A   1      -2.679   5.115 132.908  0.00  0.00    +0.141 A 
ATOM     13  C   LIG A   1      -3.936   5.563 132.484  0.00  0.00    +0.093 A 
ATOM     14  N   LIG A   1      -5.106   5.148 133.127  0.00  0.00    -0.348 N 
ATOM     15  O   LIG A   1      -5.380   7.836 130.122  0.00  0.00    -0.286 OA
ATOM     16  H   LIG A   1      -5.024   4.343 133.742  0.00  0.00    +0.166 HD
ENDROOT
BRANCH   1  17
ATOM     17  O   LIG A   1      -9.900   4.759 133.536  0.00  0.00    -0.503 OA
ATOM     18  H   LIG A   1     -10.303   4.108 132.940  0.00  0.00    +0.292 HD
ENDBRANCH   1  17
BRANCH   3  19
ATOM     19  O   LIG A   1      -8.073   7.667 130.234  0.00  0.00    -0.506 OA
ATOM     20  H   LIG A   1      -7.659   8.522 130.427  0.00  0.00    +0.292 HD
ENDBRANCH   3  19
BRANCH  12  21
ATOM     21  O   LIG A   1      -2.626   4.207 133.934  0.00  0.00    -0.505 OA
ATOM     22  H   LIG A   1      -3.282   3.512 133.767  0.00  0.00    +0.292 HD
ENDBRANCH  12  21
BRANCH   4  23
ATOM     23  O   LIG A   1      -7.287   4.060 134.357  0.00  0.00    -0.489 OA
ATOM     24  C   LIG A   1      -7.275   2.720 133.868  0.00  0.00    +0.277 C 
ENDBRANCH   4  23
TORSDOF 4
ENDMDL
MODEL 5
REMARK VINA RESULT:      -6.1      6.748      7.844
REMARK  Name = NuBBE_1475
REMARK  5 active torsions:
REMARK  status: ('A' for Active; 'I' for Inactive)
REMARK    1  A    between atoms: O_1  and  C_2
REMARK    2  A    between atoms: C_4  and  O_5
REMARK    3  A    between atoms: C_6  and  O_19
REMARK    4  A    between atoms: C_14  and  O_15
REMARK    5  A    between atoms: O_19  and  C_20
REMARK                            x       y       z     vdW  Elec       q    Type
REMARK                         _______ _______ _______ _____ _____    ______ ____
ROOT
ATOM      1  C   LIG A   1      -9.745   5.660 132.182  0.00  0.00    +0.164 A 
ATOM      2  C   LIG A   1      -9.707   6.082 130.854  0.00  0.00    +0.095 A 
ATOM      3  C   LIG A   1      -9.316   5.187 129.852  0.00  0.00    +0.133 A 
ATOM      4  C   LIG A   1      -9.386   4.351 132.516  0.00  0.00    +0.185 A 
ATOM      5  C   LIG A   1      -9.034   3.435 131.509  0.00  0.00    +0.100 A 
ATOM      6  C   LIG A   1      -8.974   3.863 130.168  0.00  0.00    +0.091 A 
ATOM      7  C   LIG A   1      -8.546   2.863 129.136  0.00  0.00    +0.201 A 
ATOM      8  C   LIG A   1      -8.264   1.464 129.557  0.00  0.00    +0.049 A 
ATOM      9  C   LIG A   1      -7.914   0.491 128.612  0.00  0.00    +0.014 A 
ATOM     10  C   LIG A   1      -7.651  -0.818 129.025  0.00  0.00    +0.004 A 
ATOM     11  C   LIG A   1      -7.736  -1.155 130.376  0.00  0.00    +0.047 A 
ATOM     12  C   LIG A   1      -8.085  -0.179 131.309  0.00  0.00    +0.141 A 
ATOM     13  C   LIG A   1      -8.362   1.134 130.912  0.00  0.00    +0.093 A 
ATOM     14  N   LIG A   1      -8.658   2.126 131.852  0.00  0.00    -0.348 N 
ATOM     15  O   LIG A   1      -8.418   3.148 127.950  0.00  0.00    -0.286 OA
ATOM     16  H   LIG A   1      -8.893   1.807 132.788  0.00  0.00    +0.166 HD
ENDROOT
BRANCH   1  17
ATOM     17  O   LIG A   1     -10.150   6.526 133.159  0.00  0.00    -0.503 OA
ATOM     18  H   LIG A   1     -11.001   6.232 133.523  0.00  0.00    +0.292 HD
ENDBRANCH   1  17
BRANCH   3  19
ATOM     19  O   LIG A   1      -9.286   5.630 128.560  0.00  0.00    -0.506 OA
ATOM     20  H   LIG A   1      -8.777   6.451 128.484  0.00  0.00    +0.292 HD
ENDBRANCH   3  19
BRANCH  12  21
ATOM     21  O   LIG A   1      -8.171  -0.487 132.642  0.00  0.00    -0.505 OA
ATOM     22  H   LIG A   1      -7.568   0.093 133.134  0.00  0.00    +0.292 HD
ENDBRANCH  12  21
BRANCH   4  23
ATOM     23  O   LIG A   1      -9.431   3.870 133.805  0.00  0.00    -0.489 OA
ATOM     24  C   LIG A   1      -8.271   4.239 134.550  0.00  0.00    +0.277 C 
ENDBRANCH   4  23
TORSDOF 4
ENDMDL
MODEL 6
REMARK VINA RESULT:      -6.1      1.209      3.442
REMARK  Name = NuBBE_1475
REMARK  5 active torsions:
REMARK  status: ('A' for Active; 'I' for Inactive)
REMARK    1  A    between atoms: O_1  and  C_2
REMARK    2  A    between atoms: C_4  and  O_5
REMARK    3  A    between atoms: C_6  and  O_19
REMARK    4  A    between atoms: C_14  and  O_15
REMARK    5  A    between atoms: O_19  and  C_20
REMARK                            x       y       z     vdW  Elec       q    Type
REMARK                         _______ _______ _______ _____ _____    ______ ____
ROOT
ATOM      1  C   LIG A   1      -5.808   3.411 125.136  0.00  0.00    +0.164 A 
ATOM      2  C   LIG A   1      -6.812   3.916 124.312  0.00  0.00    +0.095 A 
ATOM      3  C   LIG A   1      -7.718   3.039 123.703  0.00  0.00    +0.133 A 
ATOM      4  C   LIG A   1      -5.697   2.033 125.349  0.00  0.00    +0.185 A 
ATOM      5  C   LIG A   1      -6.630   1.152 124.775  0.00  0.00    +0.100 A 
ATOM      6  C   LIG A   1      -7.634   1.655 123.925  0.00  0.00    +0.091 A 
ATOM      7  C   LIG A   1      -8.575   0.671 123.298  0.00  0.00    +0.201 A 
ATOM      8  C   LIG A   1      -8.448  -0.770 123.642  0.00  0.00    +0.049 A 
ATOM      9  C   LIG A   1      -9.344  -1.711 123.116  0.00  0.00    +0.014 A 
ATOM     10  C   LIG A   1      -9.210  -3.061 123.448  0.00  0.00    +0.004 A 
ATOM     11  C   LIG A   1      -8.185  -3.473 124.301  0.00  0.00    +0.047 A 
ATOM     12  C   LIG A   1      -7.299  -2.530 124.818  0.00  0.00    +0.141 A 
ATOM     13  C   LIG A   1      -7.425  -1.171 124.505  0.00  0.00    +0.093 A 
ATOM     14  N   LIG A   1      -6.504  -0.232 124.979  0.00  0.00    -0.348 N 
ATOM     15  O   LIG A   1      -9.453   1.004 122.508  0.00  0.00    -0.286 OA
ATOM     16  H   LIG A   1      -5.897  -0.535 125.736  0.00  0.00    +0.166 HD
ENDROOT
BRANCH   1  17
ATOM     17  O   LIG A   1      -4.938   4.268 125.750  0.00  0.00    -0.503 OA
ATOM     18  H   LIG A   1      -4.081   3.829 125.873  0.00  0.00    +0.292 HD
ENDBRANCH   1  17
BRANCH   3  19
ATOM     19  O   LIG A   1      -8.689   3.564 122.899  0.00  0.00    -0.506 OA
ATOM     20  H   LIG A   1      -8.939   4.454 123.188  0.00  0.00    +0.292 HD
ENDBRANCH   3  19
BRANCH  12  21
ATOM     21  O   LIG A   1      -6.283  -2.912 125.655  0.00  0.00    -0.505 OA
ATOM     22  H   LIG A   1      -5.730  -2.137 125.845  0.00  0.00    +0.292 HD
ENDBRANCH  12  21
BRANCH   4  23
ATOM     23  O   LIG A   1      -4.745   1.480 126.174  0.00  0.00    -0.489 OA
ATOM     24  C   LIG A   1      -5.142   1.519 127.544  0.00  0.00    +0.277 C 
ENDBRANCH   4  23
TORSDOF 4
ENDMDL
MODEL 7
REMARK VINA RESULT:      -6.1      1.279      5.052
REMARK  Name = NuBBE_1475
REMARK  5 active torsions:
REMARK  status: ('A' for Active; 'I' for Inactive)
REMARK    1  A    between atoms: O_1  and  C_2
REMARK    2  A    between atoms: C_4  and  O_5
REMARK    3  A    between atoms: C_6  and  O_19
REMARK    4  A    between atoms: C_14  and  O_15
REMARK    5  A    between atoms: O_19  and  C_20
REMARK                            x       y       z     vdW  Elec       q    Type
REMARK                         _______ _______ _______ _____ _____    ______ ____
ROOT
ATOM      1  C   LIG A   1      -9.081  -2.281 124.043  0.00  0.00    +0.164 A 
ATOM      2  C   LIG A   1      -8.413  -2.691 125.196  0.00  0.00    +0.095 A 
ATOM      3  C   LIG A   1      -7.475  -1.842 125.793  0.00  0.00    +0.133 A 
ATOM      4  C   LIG A   1      -8.811  -1.031 123.478  0.00  0.00    +0.185 A 
ATOM      5  C   LIG A   1      -7.901  -0.156 124.099  0.00  0.00    +0.100 A 
ATOM      6  C   LIG A   1      -7.208  -0.574 125.252  0.00  0.00    +0.091 A 
ATOM      7  C   LIG A   1      -6.213   0.375 125.849  0.00  0.00    +0.201 A 
ATOM      8  C   LIG A   1      -6.044   1.722 125.242  0.00  0.00    +0.049 A 
ATOM      9  C   LIG A   1      -5.161   2.653 125.806  0.00  0.00    +0.014 A 
ATOM     10  C   LIG A   1      -5.014   3.914 125.222  0.00  0.00    +0.004 A 
ATOM     11  C   LIG A   1      -5.743   4.246 124.079  0.00  0.00    +0.047 A 
ATOM     12  C   LIG A   1      -6.617   3.312 123.526  0.00  0.00    +0.141 A 
ATOM     13  C   LIG A   1      -6.786   2.048 124.103  0.00  0.00    +0.093 A 
ATOM     14  N   LIG A   1      -7.622   1.092 123.518  0.00  0.00    -0.348 N 
ATOM     15  O   LIG A   1      -5.526   0.088 126.824  0.00  0.00    -0.286 OA
ATOM     16  H   LIG A   1      -8.268   1.428 122.809  0.00  0.00    +0.166 HD
ENDROOT
BRANCH   1  17
ATOM     17  O   LIG A   1     -10.015  -3.099 123.472  0.00  0.00    -0.503 OA
ATOM     18  H   LIG A   1      -9.793  -4.026 123.657  0.00  0.00    +0.292 HD
ENDBRANCH   1  17
BRANCH   3  19
ATOM     19  O   LIG A   1      -6.835  -2.272 126.921  0.00  0.00    -0.506 OA
ATOM     20  H   LIG A   1      -7.404  -2.186 127.700  0.00  0.00    +0.292 HD
ENDBRANCH   3  19
BRANCH  12  21
ATOM     21  O   LIG A   1      -7.341   3.614 122.402  0.00  0.00    -0.505 OA
ATOM     22  H   LIG A   1      -8.092   3.001 122.342  0.00  0.00    +0.292 HD
ENDBRANCH  12  21
BRANCH   4  23
ATOM     23  O   LIG A   1      -9.459  -0.561 122.358  0.00  0.00    -0.489 OA
ATOM     24  C   LIG A   1     -10.456   0.405 122.688  0.00  0.00    +0.277 C 
ENDBRANCH   4  23
TORSDOF 4
ENDMDL
MODEL 8
REMARK VINA RESULT:      -6.1      1.780      5.579
REMARK  Name = NuBBE_1475
REMARK  5 active torsions:
REMARK  status: ('A' for Active; 'I' for Inactive)
REMARK    1  A    between atoms: O_1  and  C_2
REMARK    2  A    between atoms: C_4  and  O_5
REMARK    3  A    between atoms: C_6  and  O_19
REMARK    4  A    between atoms: C_14  and  O_15
REMARK    5  A    between atoms: O_19  and  C_20
REMARK                            x       y       z     vdW  Elec       q    Type
REMARK                         _______ _______ _______ _____ _____    ______ ____
ROOT
ATOM      1  C   LIG A   1      -9.440   0.504 122.950  0.00  0.00    +0.164 A 
ATOM      2  C   LIG A   1      -9.431   1.727 122.280  0.00  0.00    +0.095 A 
ATOM      3  C   LIG A   1      -8.498   2.707 122.638  0.00  0.00    +0.133 A 
ATOM      4  C   LIG A   1      -8.529   0.258 123.982  0.00  0.00    +0.185 A 
ATOM      5  C   LIG A   1      -7.562   1.223 124.315  0.00  0.00    +0.100 A 
ATOM      6  C   LIG A   1      -7.561   2.468 123.656  0.00  0.00    +0.091 A 
ATOM      7  C   LIG A   1      -6.542   3.481 124.081  0.00  0.00    +0.201 A 
ATOM      8  C   LIG A   1      -5.549   3.114 125.126  0.00  0.00    +0.049 A 
ATOM      9  C   LIG A   1      -4.549   4.018 125.509  0.00  0.00    +0.014 A 
ATOM     10  C   LIG A   1      -3.625   3.658 126.493  0.00  0.00    +0.004 A 
ATOM     11  C   LIG A   1      -3.698   2.401 127.094  0.00  0.00    +0.047 A 
ATOM     12  C   LIG A   1      -4.697   1.509 126.706  0.00  0.00    +0.141 A 
ATOM     13  C   LIG A   1      -5.625   1.849 125.714  0.00  0.00    +0.093 A 
ATOM     14  N   LIG A   1      -6.660   0.977 125.363  0.00  0.00    -0.348 N 
ATOM     15  O   LIG A   1      -6.489   4.609 123.601  0.00  0.00    -0.286 OA
ATOM     16  H   LIG A   1      -6.569   0.015 125.680  0.00  0.00    +0.166 HD
ENDROOT
BRANCH   1  17
ATOM     17  O   LIG A   1     -10.335  -0.463 122.586  0.00  0.00    -0.503 OA
ATOM     18  H   LIG A   1     -11.001  -0.569 123.283  0.00  0.00    +0.292 HD
ENDBRANCH   1  17
BRANCH   3  19
ATOM     19  O   LIG A   1      -8.514   3.896 121.965  0.00  0.00    -0.506 OA
ATOM     20  H   LIG A   1      -8.232   4.625 122.537  0.00  0.00    +0.292 HD
ENDBRANCH   3  19
BRANCH  12  21
ATOM     21  O   LIG A   1      -4.790   0.270 127.285  0.00  0.00    -0.505 OA
ATOM     22  H   LIG A   1      -5.591   0.243 127.834  0.00  0.00    +0.292 HD
ENDBRANCH  12  21
BRANCH   4  23
ATOM     23  O   LIG A   1      -8.473  -0.938 124.659  0.00  0.00    -0.489 OA
ATOM     24  C   LIG A   1      -9.285  -0.923 125.832  0.00  0.00    +0.277 C 
ENDBRANCH   4  23
TORSDOF 4
ENDMDL
MODEL 9
REMARK VINA RESULT:      -6.1      1.484      6.121
REMARK  Name = NuBBE_1475
REMARK  5 active torsions:
REMARK  status: ('A' for Active; 'I' for Inactive)
REMARK    1  A    between atoms: O_1  and  C_2
REMARK    2  A    between atoms: C_4  and  O_5
REMARK    3  A    between atoms: C_6  and  O_19
REMARK    4  A    between atoms: C_14  and  O_15
REMARK    5  A    between atoms: O_19  and  C_20
REMARK                            x       y       z     vdW  Elec       q    Type
REMARK                         _______ _______ _______ _____ _____    ______ ____
ROOT
ATOM      1  C   LIG A   1      -8.188  -2.877 124.540  0.00  0.00    +0.164 A 
ATOM      2  C   LIG A   1      -9.105  -2.373 123.618  0.00  0.00    +0.095 A 
ATOM      3  C   LIG A   1      -9.099  -1.008 123.309  0.00  0.00    +0.133 A 
ATOM      4  C   LIG A   1      -7.272  -2.024 125.162  0.00  0.00    +0.185 A 
ATOM      5  C   LIG A   1      -7.234  -0.660 124.823  0.00  0.00    +0.100 A 
ATOM      6  C   LIG A   1      -8.171  -0.141 123.908  0.00  0.00    +0.091 A 
ATOM      7  C   LIG A   1      -8.121   1.328 123.617  0.00  0.00    +0.201 A 
ATOM      8  C   LIG A   1      -7.061   2.156 124.251  0.00  0.00    +0.049 A 
ATOM      9  C   LIG A   1      -6.953   3.523 123.960  0.00  0.00    +0.014 A 
ATOM     10  C   LIG A   1      -5.952   4.286 124.565  0.00  0.00    +0.004 A 
ATOM     11  C   LIG A   1      -5.062   3.690 125.461  0.00  0.00    +0.047 A 
ATOM     12  C   LIG A   1      -5.179   2.330 125.744  0.00  0.00    +0.141 A 
ATOM     13  C   LIG A   1      -6.169   1.547 125.138  0.00  0.00    +0.093 A 
ATOM     14  N   LIG A   1      -6.322   0.196 125.464  0.00  0.00    -0.348 N 
ATOM     15  O   LIG A   1      -8.922   1.883 122.871  0.00  0.00    -0.286 OA
ATOM     16  H   LIG A   1      -5.552  -0.239 125.965  0.00  0.00    +0.166 HD
ENDROOT
BRANCH   1  17
ATOM     17  O   LIG A   1      -8.176  -4.214 124.824  0.00  0.00    -0.503 OA
ATOM     18  H   LIG A   1      -7.925  -4.713 124.031  0.00  0.00    +0.292 HD
ENDBRANCH   1  17
BRANCH   3  19
ATOM     19  O   LIG A   1     -10.011  -0.543 122.404  0.00  0.00    -0.506 OA
ATOM     20  H   LIG A   1     -10.742  -0.088 122.847  0.00  0.00    +0.292 HD
ENDBRANCH   3  19
BRANCH  12  21
ATOM     21  O   LIG A   1      -4.319   1.724 126.623  0.00  0.00    -0.505 OA
ATOM     22  H   LIG A   1      -3.518   2.268 126.698  0.00  0.00    +0.292 HD
ENDBRANCH  12  21
BRANCH   4  23
ATOM     23  O   LIG A   1      -6.327  -2.469 126.058  0.00  0.00    -0.489 OA
ATOM     24  C   LIG A   1      -6.809  -2.433 127.400  0.00  0.00    +0.277 C 
ENDBRANCH   4  23
TORSDOF 4
ENDMDL
