MODEL 1
REMARK VINA RESULT:      -8.6      0.000      0.000
REMARK  Name = NuBBE_1229
REMARK  15 active torsions:
REMARK  status: ('A' for Active; 'I' for Inactive)
REMARK    1  A    between atoms: C_1  and  C_2
REMARK    2  A    between atoms: C_9  and  O_11
REMARK    3  A    between atoms: C_12  and  O_14
REMARK    4  A    between atoms: C_16  and  C_17
REMARK    5  A    between atoms: C_24  and  C_26
REMARK    6  A    between atoms: C_26  and  O_27
REMARK    7  A    between atoms: C_26  and  C_28
REMARK    8  A    between atoms: C_26  and  C_29
REMARK    9  A    between atoms: C_29  and  O_31
REMARK   10  A    between atoms: C_29  and  C_32
REMARK   11  A    between atoms: C_32  and  C_33
REMARK   12  A    between atoms: C_33  and  C_34
REMARK   13  A    between atoms: C_34  and  C_35
REMARK   14  A    between atoms: C_34  and  O_36
REMARK   15  A    between atoms: C_34  and  C_37
REMARK                            x       y       z     vdW  Elec       q    Type
REMARK                         _______ _______ _______ _____ _____    ______ ____
ROOT
ATOM      1  C   LIG A   1      -5.950  -3.271 123.389  0.00  0.00    +0.016 C 
ATOM      2  C   LIG A   1      -6.750  -2.409 124.420  0.00  0.00    -0.001 C 
ATOM      3  C   LIG A   1      -7.281  -1.166 123.727  0.00  0.00    -0.041 C 
ATOM      4  C   LIG A   1      -6.737   0.168 123.946  0.00  0.00    -0.037 C 
ATOM      5  C   LIG A   1      -7.131   1.217 123.199  0.00  0.00    +0.050 C 
ATOM      6  C   LIG A   1      -6.740   2.609 123.529  0.00  0.00    +0.160 C 
ATOM      7  C   LIG A   1      -5.797   2.841 124.695  0.00  0.00    +0.069 C 
ATOM      8  C   LIG A   1      -5.873   4.277 125.228  0.00  0.00    +0.045 C 
ATOM      9  C   LIG A   1      -4.820   4.521 126.307  0.00  0.00    +0.144 C 
ATOM     10  C   LIG A   1      -4.838   3.465 127.423  0.00  0.00    +0.144 C 
ATOM     11  C   LIG A   1      -4.891   2.031 126.890  0.00  0.00    +0.042 C 
ATOM     12  C   LIG A   1      -5.990   1.782 125.810  0.00  0.00    -0.013 C 
ATOM     13  C   LIG A   1      -7.396   1.875 126.470  0.00  0.00    +0.012 C 
ATOM     14  C   LIG A   1      -5.801   0.364 125.146  0.00  0.00    +0.026 C 
ATOM     15  C   LIG A   1      -5.910  -0.762 126.188  0.00  0.00    +0.009 C 
ATOM     16  C   LIG A   1      -5.762  -2.136 125.559  0.00  0.00    +0.012 C 
ATOM     17  O   LIG A   1      -7.149   3.525 122.809  0.00  0.00    -0.292 OA
ATOM     18  C   LIG A   1      -8.444  -1.455 123.114  0.00  0.00    -0.022 C 
ATOM     19  C   LIG A   1      -8.915  -2.838 123.449  0.00  0.00    +0.034 C 
ATOM     20  C   LIG A   1      -8.110  -3.152 124.749  0.00  0.00    +0.037 C 
ENDROOT
BRANCH   9  21
ATOM     21  O   LIG A   1      -5.036   5.803 126.909  0.00  0.00    -0.389 OA
ATOM     22  H   LIG A   1      -5.805   5.723 127.501  0.00  0.00    +0.210 HD
ENDBRANCH   9  21
BRANCH  10  23
ATOM     23  O   LIG A   1      -5.950   3.698 128.291  0.00  0.00    -0.389 OA
ATOM     24  H   LIG A   1      -5.737   3.198 129.105  0.00  0.00    +0.210 HD
ENDBRANCH  10  23
BRANCH  20  25
ATOM     25  C   LIG A   1      -8.947  -2.791 126.057  0.00  0.00    +0.093 C 
ATOM     26  C   LIG A   1      -8.923  -1.286 126.391  0.00  0.00    +0.044 C 
BRANCH  25  27
ATOM     27  O   LIG A   1     -10.340  -3.128 125.913  0.00  0.00    -0.386 OA
ATOM     28  H   LIG A   1     -10.469  -3.548 125.044  0.00  0.00    +0.210 HD
ENDBRANCH  25  27
BRANCH  25  29
ATOM     29  C   LIG A   1      -8.457  -3.580 127.338  0.00  0.00    +0.146 C 
BRANCH  29  30
ATOM     30  O   LIG A   1      -9.565  -4.284 127.923  0.00  0.00    -0.389 OA
ATOM     31  H   LIG A   1     -10.295  -4.223 127.273  0.00  0.00    +0.210 HD
ENDBRANCH  29  30
BRANCH  29  32
ATOM     32  C   LIG A   1      -7.824  -2.688 128.412  0.00  0.00    +0.037 C 
BRANCH  32  33
ATOM     33  C   LIG A   1      -7.646  -3.400 129.763  0.00  0.00    +0.036 C 
BRANCH  33  34
ATOM     34  C   LIG A   1      -6.179  -3.435 130.245  0.00  0.00    +0.061 C 
ATOM     35  C   LIG A   1      -5.238  -2.960 129.133  0.00  0.00    +0.041 C 
ATOM     36  C   LIG A   1      -5.750  -4.827 130.716  0.00  0.00    +0.041 C 
BRANCH  34  37
ATOM     37  O   LIG A   1      -6.035  -2.546 131.357  0.00  0.00    -0.389 OA
ATOM     38  H   LIG A   1      -6.897  -2.490 131.806  0.00  0.00    +0.210 HD
ENDBRANCH  34  37
ENDBRANCH  33  34
ENDBRANCH  32  33
ENDBRANCH  29  32
ENDBRANCH  25  29
ENDBRANCH  20  25
TORSDOF 10
ENDMDL
MODEL 2
REMARK VINA RESULT:      -8.2      6.036      9.426
REMARK  Name = NuBBE_1229
REMARK  15 active torsions:
REMARK  status: ('A' for Active; 'I' for Inactive)
REMARK    1  A    between atoms: C_1  and  C_2
REMARK    2  A    between atoms: C_9  and  O_11
REMARK    3  A    between atoms: C_12  and  O_14
REMARK    4  A    between atoms: C_16  and  C_17
REMARK    5  A    between atoms: C_24  and  C_26
REMARK    6  A    between atoms: C_26  and  O_27
REMARK    7  A    between atoms: C_26  and  C_28
REMARK    8  A    between atoms: C_26  and  C_29
REMARK    9  A    between atoms: C_29  and  O_31
REMARK   10  A    between atoms: C_29  and  C_32
REMARK   11  A    between atoms: C_32  and  C_33
REMARK   12  A    between atoms: C_33  and  C_34
REMARK   13  A    between atoms: C_34  and  C_35
REMARK   14  A    between atoms: C_34  and  O_36
REMARK   15  A    between atoms: C_34  and  C_37
REMARK                            x       y       z     vdW  Elec       q    Type
REMARK                         _______ _______ _______ _____ _____    ______ ____
ROOT
ATOM      1  C   LIG A   1      -7.443   4.857 134.663  0.00  0.00    +0.016 C 
ATOM      2  C   LIG A   1      -7.761   4.799 133.132  0.00  0.00    -0.001 C 
ATOM      3  C   LIG A   1      -7.261   3.479 132.567  0.00  0.00    -0.041 C 
ATOM      4  C   LIG A   1      -6.086   3.367 131.713  0.00  0.00    -0.037 C 
ATOM      5  C   LIG A   1      -5.588   2.166 131.361  0.00  0.00    +0.050 C 
ATOM      6  C   LIG A   1      -4.520   2.026 130.343  0.00  0.00    +0.160 C 
ATOM      7  C   LIG A   1      -3.916   3.283 129.746  0.00  0.00    +0.069 C 
ATOM      8  C   LIG A   1      -3.223   3.015 128.404  0.00  0.00    +0.045 C 
ATOM      9  C   LIG A   1      -2.509   4.265 127.894  0.00  0.00    +0.144 C 
ATOM     10  C   LIG A   1      -3.408   5.510 127.867  0.00  0.00    +0.144 C 
ATOM     11  C   LIG A   1      -4.198   5.707 129.163  0.00  0.00    +0.042 C 
ATOM     12  C   LIG A   1      -4.951   4.433 129.661  0.00  0.00    -0.013 C 
ATOM     13  C   LIG A   1      -6.116   4.104 128.683  0.00  0.00    +0.012 C 
ATOM     14  C   LIG A   1      -5.517   4.660 131.116  0.00  0.00    +0.026 C 
ATOM     15  C   LIG A   1      -6.513   5.832 131.153  0.00  0.00    +0.009 C 
ATOM     16  C   LIG A   1      -7.092   6.044 132.541  0.00  0.00    +0.012 C 
ATOM     17  O   LIG A   1      -4.119   0.892 130.058  0.00  0.00    -0.292 OA
ATOM     18  C   LIG A   1      -8.190   2.526 132.765  0.00  0.00    -0.022 C 
ATOM     19  C   LIG A   1      -9.461   3.099 133.315  0.00  0.00    +0.034 C 
ATOM     20  C   LIG A   1      -9.323   4.610 132.950  0.00  0.00    +0.037 C 
ENDROOT
BRANCH   9  21
ATOM     21  O   LIG A   1      -2.031   4.037 126.562  0.00  0.00    -0.389 OA
ATOM     22  H   LIG A   1      -1.366   4.722 126.369  0.00  0.00    +0.210 HD
ENDBRANCH   9  21
BRANCH  10  23
ATOM     23  O   LIG A   1      -4.309   5.431 126.760  0.00  0.00    -0.389 OA
ATOM     24  H   LIG A   1      -4.722   4.547 126.841  0.00  0.00    +0.210 HD
ENDBRANCH  10  23
BRANCH  20  25
ATOM     25  C   LIG A   1     -10.034   4.945 131.563  0.00  0.00    +0.093 C 
ATOM     26  C   LIG A   1      -9.055   4.955 130.371  0.00  0.00    +0.044 C 
BRANCH  25  27
ATOM     27  O   LIG A   1     -11.037   3.968 131.224  0.00  0.00    -0.386 OA
ATOM     28  H   LIG A   1     -11.064   3.875 130.255  0.00  0.00    +0.210 HD
ENDBRANCH  25  27
BRANCH  25  29
ATOM     29  C   LIG A   1     -10.792   6.333 131.579  0.00  0.00    +0.146 C 
BRANCH  29  30
ATOM     30  O   LIG A   1     -12.147   6.137 132.020  0.00  0.00    -0.389 OA
ATOM     31  H   LIG A   1     -12.121   5.377 132.636  0.00  0.00    +0.210 HD
ENDBRANCH  29  30
BRANCH  29  32
ATOM     32  C   LIG A   1     -10.819   7.043 130.221  0.00  0.00    +0.037 C 
BRANCH  32  33
ATOM     33  C   LIG A   1     -12.099   7.863 129.990  0.00  0.00    +0.036 C 
BRANCH  33  34
ATOM     34  C   LIG A   1     -12.252   8.356 128.534  0.00  0.00    +0.061 C 
ATOM     35  C   LIG A   1     -13.274   7.498 127.783  0.00  0.00    +0.041 C 
ATOM     36  C   LIG A   1     -10.925   8.354 127.772  0.00  0.00    +0.041 C 
BRANCH  34  37
ATOM     37  O   LIG A   1     -12.732   9.705 128.551  0.00  0.00    -0.389 OA
ATOM     38  H   LIG A   1     -12.009  10.281 128.245  0.00  0.00    +0.210 HD
ENDBRANCH  34  37
ENDBRANCH  33  34
ENDBRANCH  32  33
ENDBRANCH  29  32
ENDBRANCH  25  29
ENDBRANCH  20  25
TORSDOF 10
ENDMDL
MODEL 3
REMARK VINA RESULT:      -8.1      4.064      7.908
REMARK  Name = NuBBE_1229
REMARK  15 active torsions:
REMARK  status: ('A' for Active; 'I' for Inactive)
REMARK    1  A    between atoms: C_1  and  C_2
REMARK    2  A    between atoms: C_9  and  O_11
REMARK    3  A    between atoms: C_12  and  O_14
REMARK    4  A    between atoms: C_16  and  C_17
REMARK    5  A    between atoms: C_24  and  C_26
REMARK    6  A    between atoms: C_26  and  O_27
REMARK    7  A    between atoms: C_26  and  C_28
REMARK    8  A    between atoms: C_26  and  C_29
REMARK    9  A    between atoms: C_29  and  O_31
REMARK   10  A    between atoms: C_29  and  C_32
REMARK   11  A    between atoms: C_32  and  C_33
REMARK   12  A    between atoms: C_33  and  C_34
REMARK   13  A    between atoms: C_34  and  C_35
REMARK   14  A    between atoms: C_34  and  O_36
REMARK   15  A    between atoms: C_34  and  C_37
REMARK                            x       y       z     vdW  Elec       q    Type
REMARK                         _______ _______ _______ _____ _____    ______ ____
ROOT
ATOM      1  C   LIG A   1      -5.108   1.582 130.319  0.00  0.00    +0.016 C 
ATOM      2  C   LIG A   1      -6.464   1.695 129.548  0.00  0.00    -0.001 C 
ATOM      3  C   LIG A   1      -7.235   0.394 129.699  0.00  0.00    -0.041 C 
ATOM      4  C   LIG A   1      -7.395  -0.572 128.619  0.00  0.00    -0.037 C 
ATOM      5  C   LIG A   1      -7.950  -1.779 128.836  0.00  0.00    +0.050 C 
ATOM      6  C   LIG A   1      -8.299  -2.695 127.724  0.00  0.00    +0.160 C 
ATOM      7  C   LIG A   1      -7.939  -2.289 126.308  0.00  0.00    +0.069 C 
ATOM      8  C   LIG A   1      -8.767  -3.039 125.258  0.00  0.00    +0.045 C 
ATOM      9  C   LIG A   1      -8.292  -2.712 123.843  0.00  0.00    +0.144 C 
ATOM     10  C   LIG A   1      -8.197  -1.204 123.567  0.00  0.00    +0.144 C 
ATOM     11  C   LIG A   1      -7.480  -0.435 124.680  0.00  0.00    +0.042 C 
ATOM     12  C   LIG A   1      -7.993  -0.751 126.120  0.00  0.00    -0.013 C 
ATOM     13  C   LIG A   1      -9.434  -0.190 126.292  0.00  0.00    +0.012 C 
ATOM     14  C   LIG A   1      -7.035  -0.115 127.200  0.00  0.00    +0.026 C 
ATOM     15  C   LIG A   1      -6.968   1.415 127.056  0.00  0.00    +0.009 C 
ATOM     16  C   LIG A   1      -6.074   2.047 128.109  0.00  0.00    +0.012 C 
ATOM     17  O   LIG A   1      -8.819  -3.783 127.995  0.00  0.00    -0.292 OA
ATOM     18  C   LIG A   1      -7.925   0.412 130.854  0.00  0.00    -0.022 C 
ATOM     19  C   LIG A   1      -7.847   1.751 131.523  0.00  0.00    +0.034 C 
ATOM     20  C   LIG A   1      -7.415   2.680 130.346  0.00  0.00    +0.037 C 
ENDROOT
BRANCH   9  21
ATOM     21  O   LIG A   1      -9.196  -3.280 122.888  0.00  0.00    -0.389 OA
ATOM     22  H   LIG A   1      -9.330  -2.621 122.184  0.00  0.00    +0.210 HD
ENDBRANCH   9  21
BRANCH  10  23
ATOM     23  O   LIG A   1      -9.508  -0.665 123.377  0.00  0.00    -0.389 OA
ATOM     24  H   LIG A   1      -9.833  -1.092 122.557  0.00  0.00    +0.210 HD
ENDBRANCH  10  23
BRANCH  20  25
ATOM     25  C   LIG A   1      -8.675   3.354 129.640  0.00  0.00    +0.093 C 
ATOM     26  C   LIG A   1      -8.301   4.578 128.779  0.00  0.00    +0.044 C 
BRANCH  25  27
ATOM     27  O   LIG A   1      -9.339   2.445 128.743  0.00  0.00    -0.386 OA
ATOM     28  H   LIG A   1      -8.671   1.858 128.346  0.00  0.00    +0.210 HD
ENDBRANCH  25  27
BRANCH  25  29
ATOM     29  C   LIG A   1      -9.786   3.809 130.671  0.00  0.00    +0.146 C 
BRANCH  29  30
ATOM     30  O   LIG A   1     -11.088   3.494 130.146  0.00  0.00    -0.389 OA
ATOM     31  H   LIG A   1     -11.581   4.339 130.128  0.00  0.00    +0.210 HD
ENDBRANCH  29  30
BRANCH  29  32
ATOM     32  C   LIG A   1      -9.747   5.304 131.009  0.00  0.00    +0.037 C 
BRANCH  32  33
ATOM     33  C   LIG A   1     -11.143   5.934 131.135  0.00  0.00    +0.036 C 
BRANCH  33  34
ATOM     34  C   LIG A   1     -11.495   6.877 129.963  0.00  0.00    +0.061 C 
ATOM     35  C   LIG A   1     -10.253   7.647 129.503  0.00  0.00    +0.041 C 
ATOM     36  C   LIG A   1     -12.606   7.867 130.321  0.00  0.00    +0.041 C 
BRANCH  34  37
ATOM     37  O   LIG A   1     -11.963   6.090 128.862  0.00  0.00    -0.389 OA
ATOM     38  H   LIG A   1     -11.710   6.548 128.042  0.00  0.00    +0.210 HD
ENDBRANCH  34  37
ENDBRANCH  33  34
ENDBRANCH  32  33
ENDBRANCH  29  32
ENDBRANCH  25  29
ENDBRANCH  20  25
TORSDOF 10
ENDMDL
MODEL 4
REMARK VINA RESULT:      -8.0      5.139      8.593
REMARK  Name = NuBBE_1229
REMARK  15 active torsions:
REMARK  status: ('A' for Active; 'I' for Inactive)
REMARK    1  A    between atoms: C_1  and  C_2
REMARK    2  A    between atoms: C_9  and  O_11
REMARK    3  A    between atoms: C_12  and  O_14
REMARK    4  A    between atoms: C_16  and  C_17
REMARK    5  A    between atoms: C_24  and  C_26
REMARK    6  A    between atoms: C_26  and  O_27
REMARK    7  A    between atoms: C_26  and  C_28
REMARK    8  A    between atoms: C_26  and  C_29
REMARK    9  A    between atoms: C_29  and  O_31
REMARK   10  A    between atoms: C_29  and  C_32
REMARK   11  A    between atoms: C_32  and  C_33
REMARK   12  A    between atoms: C_33  and  C_34
REMARK   13  A    between atoms: C_34  and  C_35
REMARK   14  A    between atoms: C_34  and  O_36
REMARK   15  A    between atoms: C_34  and  C_37
REMARK                            x       y       z     vdW  Elec       q    Type
REMARK                         _______ _______ _______ _____ _____    ______ ____
ROOT
ATOM      1  C   LIG A   1      -8.467   1.996 132.569  0.00  0.00    +0.016 C 
ATOM      2  C   LIG A   1      -8.112   3.168 131.596  0.00  0.00    -0.001 C 
ATOM      3  C   LIG A   1      -8.149   2.659 130.165  0.00  0.00    -0.041 C 
ATOM      4  C   LIG A   1      -6.954   2.433 129.363  0.00  0.00    -0.037 C 
ATOM      5  C   LIG A   1      -7.021   1.837 128.158  0.00  0.00    +0.050 C 
ATOM      6  C   LIG A   1      -5.853   1.773 127.246  0.00  0.00    +0.160 C 
ATOM      7  C   LIG A   1      -4.525   2.323 127.728  0.00  0.00    +0.069 C 
ATOM      8  C   LIG A   1      -3.575   2.650 126.569  0.00  0.00    +0.045 C 
ATOM      9  C   LIG A   1      -2.201   3.072 127.084  0.00  0.00    +0.144 C 
ATOM     10  C   LIG A   1      -2.263   4.186 128.140  0.00  0.00    +0.144 C 
ATOM     11  C   LIG A   1      -3.304   3.919 129.231  0.00  0.00    +0.042 C 
ATOM     12  C   LIG A   1      -4.715   3.519 128.696  0.00  0.00    -0.013 C 
ATOM     13  C   LIG A   1      -5.370   4.743 127.994  0.00  0.00    +0.012 C 
ATOM     14  C   LIG A   1      -5.633   3.021 129.878  0.00  0.00    +0.026 C 
ATOM     15  C   LIG A   1      -5.833   4.122 130.934  0.00  0.00    +0.009 C 
ATOM     16  C   LIG A   1      -6.741   3.669 132.063  0.00  0.00    +0.012 C 
ATOM     17  O   LIG A   1      -5.990   1.222 126.148  0.00  0.00    -0.292 OA
ATOM     18  C   LIG A   1      -9.414   2.702 129.706  0.00  0.00    -0.022 C 
ATOM     19  C   LIG A   1     -10.330   3.384 130.676  0.00  0.00    +0.034 C 
ATOM     20  C   LIG A   1      -9.328   4.184 131.567  0.00  0.00    +0.037 C 
ENDROOT
BRANCH   9  21
ATOM     21  O   LIG A   1      -1.401   3.544 125.993  0.00  0.00    -0.389 OA
ATOM     22  H   LIG A   1      -1.303   4.507 126.097  0.00  0.00    +0.210 HD
ENDBRANCH   9  21
BRANCH  10  23
ATOM     23  O   LIG A   1      -2.539   5.437 127.507  0.00  0.00    -0.389 OA
ATOM     24  H   LIG A   1      -2.948   5.985 128.209  0.00  0.00    +0.210 HD
ENDBRANCH  10  23
BRANCH  20  25
ATOM     25  C   LIG A   1      -9.139   5.676 131.039  0.00  0.00    +0.093 C 
ATOM     26  C   LIG A   1      -7.997   6.427 131.754  0.00  0.00    +0.044 C 
BRANCH  25  27
ATOM     27  O   LIG A   1      -8.801   5.712 129.639  0.00  0.00    -0.386 OA
ATOM     28  H   LIG A   1      -8.787   6.642 129.348  0.00  0.00    +0.210 HD
ENDBRANCH  25  27
BRANCH  25  29
ATOM     29  C   LIG A   1     -10.452   6.547 131.175  0.00  0.00    +0.146 C 
BRANCH  29  30
ATOM     30  O   LIG A   1     -11.251   6.048 132.262  0.00  0.00    -0.389 OA
ATOM     31  H   LIG A   1     -10.915   6.493 133.067  0.00  0.00    +0.210 HD
ENDBRANCH  29  30
BRANCH  29  32
ATOM     32  C   LIG A   1     -11.315   6.574 129.909  0.00  0.00    +0.037 C 
BRANCH  32  33
ATOM     33  C   LIG A   1     -12.361   7.700 129.910  0.00  0.00    +0.036 C 
BRANCH  33  34
ATOM     34  C   LIG A   1     -12.512   8.394 128.539  0.00  0.00    +0.061 C 
ATOM     35  C   LIG A   1     -13.682   7.788 127.757  0.00  0.00    +0.041 C 
ATOM     36  C   LIG A   1     -11.237   8.309 127.696  0.00  0.00    +0.041 C 
BRANCH  34  37
ATOM     37  O   LIG A   1     -12.791   9.782 128.751  0.00  0.00    -0.389 OA
ATOM     38  H   LIG A   1     -12.066  10.295 128.353  0.00  0.00    +0.210 HD
ENDBRANCH  34  37
ENDBRANCH  33  34
ENDBRANCH  32  33
ENDBRANCH  29  32
ENDBRANCH  25  29
ENDBRANCH  20  25
TORSDOF 10
ENDMDL
MODEL 5
REMARK VINA RESULT:      -8.0      4.784      8.235
REMARK  Name = NuBBE_1229
REMARK  15 active torsions:
REMARK  status: ('A' for Active; 'I' for Inactive)
REMARK    1  A    between atoms: C_1  and  C_2
REMARK    2  A    between atoms: C_9  and  O_11
REMARK    3  A    between atoms: C_12  and  O_14
REMARK    4  A    between atoms: C_16  and  C_17
REMARK    5  A    between atoms: C_24  and  C_26
REMARK    6  A    between atoms: C_26  and  O_27
REMARK    7  A    between atoms: C_26  and  C_28
REMARK    8  A    between atoms: C_26  and  C_29
REMARK    9  A    between atoms: C_29  and  O_31
REMARK   10  A    between atoms: C_29  and  C_32
REMARK   11  A    between atoms: C_32  and  C_33
REMARK   12  A    between atoms: C_33  and  C_34
REMARK   13  A    between atoms: C_34  and  C_35
REMARK   14  A    between atoms: C_34  and  O_36
REMARK   15  A    between atoms: C_34  and  C_37
REMARK                            x       y       z     vdW  Elec       q    Type
REMARK                         _______ _______ _______ _____ _____    ______ ____
ROOT
ATOM      1  C   LIG A   1      -6.958   2.277 132.028  0.00  0.00    +0.016 C 
ATOM      2  C   LIG A   1      -7.479   3.320 130.985  0.00  0.00    -0.001 C 
ATOM      3  C   LIG A   1      -8.373   2.616 129.977  0.00  0.00    -0.041 C 
ATOM      4  C   LIG A   1      -7.971   2.343 128.604  0.00  0.00    -0.037 C 
ATOM      5  C   LIG A   1      -8.729   1.582 127.790  0.00  0.00    +0.050 C 
ATOM      6  C   LIG A   1      -8.441   1.453 126.341  0.00  0.00    +0.160 C 
ATOM      7  C   LIG A   1      -7.205   2.132 125.783  0.00  0.00    +0.069 C 
ATOM      8  C   LIG A   1      -7.293   2.344 124.266  0.00  0.00    +0.045 C 
ATOM      9  C   LIG A   1      -5.985   2.904 123.711  0.00  0.00    +0.144 C 
ATOM     10  C   LIG A   1      -5.489   4.148 124.463  0.00  0.00    +0.144 C 
ATOM     11  C   LIG A   1      -5.522   3.982 125.985  0.00  0.00    +0.042 C 
ATOM     12  C   LIG A   1      -6.873   3.440 126.547  0.00  0.00    -0.013 C 
ATOM     13  C   LIG A   1      -7.980   4.519 126.371  0.00  0.00    +0.012 C 
ATOM     14  C   LIG A   1      -6.726   3.064 128.072  0.00  0.00    +0.026 C 
ATOM     15  C   LIG A   1      -6.331   4.288 128.915  0.00  0.00    +0.009 C 
ATOM     16  C   LIG A   1      -6.216   3.950 130.391  0.00  0.00    +0.012 C 
ATOM     17  O   LIG A   1      -9.186   0.749 125.651  0.00  0.00    -0.292 OA
ATOM     18  C   LIG A   1      -9.622   2.529 130.469  0.00  0.00    -0.022 C 
ATOM     19  C   LIG A   1      -9.765   3.291 131.751  0.00  0.00    +0.034 C 
ATOM     20  C   LIG A   1      -8.540   4.257 131.696  0.00  0.00    +0.037 C 
ENDROOT
BRANCH   9  21
ATOM     21  O   LIG A   1      -6.159   3.260 122.335  0.00  0.00    -0.389 OA
ATOM     22  H   LIG A   1      -7.097   3.491 122.208  0.00  0.00    +0.210 HD
ENDBRANCH   9  21
BRANCH  10  23
ATOM     23  O   LIG A   1      -6.271   5.284 124.085  0.00  0.00    -0.389 OA
ATOM     24  H   LIG A   1      -7.182   4.937 123.993  0.00  0.00    +0.210 HD
ENDBRANCH  10  23
BRANCH  20  25
ATOM     25  C   LIG A   1      -8.936   5.669 131.073  0.00  0.00    +0.093 C 
ATOM     26  C   LIG A   1      -7.797   6.706 131.158  0.00  0.00    +0.044 C 
BRANCH  25  27
ATOM     27  O   LIG A   1      -9.256   5.568 129.672  0.00  0.00    -0.386 OA
ATOM     28  H   LIG A   1     -10.089   6.046 129.509  0.00  0.00    +0.210 HD
ENDBRANCH  25  27
BRANCH  25  29
ATOM     29  C   LIG A   1     -10.219   6.302 131.749  0.00  0.00    +0.146 C 
BRANCH  29  30
ATOM     30  O   LIG A   1     -10.424   5.708 133.043  0.00  0.00    -0.389 OA
ATOM     31  H   LIG A   1     -10.142   4.774 132.957  0.00  0.00    +0.210 HD
ENDBRANCH  29  30
BRANCH  29  32
ATOM     32  C   LIG A   1     -11.502   6.135 130.928  0.00  0.00    +0.037 C 
BRANCH  32  33
ATOM     33  C   LIG A   1     -12.057   7.464 130.392  0.00  0.00    +0.036 C 
BRANCH  33  34
ATOM     34  C   LIG A   1     -12.021   7.562 128.850  0.00  0.00    +0.061 C 
ATOM     35  C   LIG A   1     -10.857   8.451 128.398  0.00  0.00    +0.041 C 
ATOM     36  C   LIG A   1     -13.330   8.099 128.267  0.00  0.00    +0.041 C 
BRANCH  34  37
ATOM     37  O   LIG A   1     -11.817   6.253 128.308  0.00  0.00    -0.389 OA
ATOM     38  H   LIG A   1     -12.138   6.260 127.389  0.00  0.00    +0.210 HD
ENDBRANCH  34  37
ENDBRANCH  33  34
ENDBRANCH  32  33
ENDBRANCH  29  32
ENDBRANCH  25  29
ENDBRANCH  20  25
TORSDOF 10
ENDMDL
MODEL 6
REMARK VINA RESULT:      -7.9      6.737      9.749
REMARK  Name = NuBBE_1229
REMARK  15 active torsions:
REMARK  status: ('A' for Active; 'I' for Inactive)
REMARK    1  A    between atoms: C_1  and  C_2
REMARK    2  A    between atoms: C_9  and  O_11
REMARK    3  A    between atoms: C_12  and  O_14
REMARK    4  A    between atoms: C_16  and  C_17
REMARK    5  A    between atoms: C_24  and  C_26
REMARK    6  A    between atoms: C_26  and  O_27
REMARK    7  A    between atoms: C_26  and  C_28
REMARK    8  A    between atoms: C_26  and  C_29
REMARK    9  A    between atoms: C_29  and  O_31
REMARK   10  A    between atoms: C_29  and  C_32
REMARK   11  A    between atoms: C_32  and  C_33
REMARK   12  A    between atoms: C_33  and  C_34
REMARK   13  A    between atoms: C_34  and  C_35
REMARK   14  A    between atoms: C_34  and  O_36
REMARK   15  A    between atoms: C_34  and  C_37
REMARK                            x       y       z     vdW  Elec       q    Type
REMARK                         _______ _______ _______ _____ _____    ______ ____
ROOT
ATOM      1  C   LIG A   1      -9.383   2.467 132.973  0.00  0.00    +0.016 C 
ATOM      2  C   LIG A   1      -8.917   3.750 132.210  0.00  0.00    -0.001 C 
ATOM      3  C   LIG A   1      -7.881   3.364 131.167  0.00  0.00    -0.041 C 
ATOM      4  C   LIG A   1      -6.461   3.659 131.300  0.00  0.00    -0.037 C 
ATOM      5  C   LIG A   1      -5.558   3.165 130.432  0.00  0.00    +0.050 C 
ATOM      6  C   LIG A   1      -4.143   3.608 130.433  0.00  0.00    +0.160 C 
ATOM      7  C   LIG A   1      -3.687   4.583 131.502  0.00  0.00    +0.069 C 
ATOM      8  C   LIG A   1      -2.402   5.321 131.106  0.00  0.00    +0.045 C 
ATOM      9  C   LIG A   1      -1.893   6.193 132.252  0.00  0.00    +0.144 C 
ATOM     10  C   LIG A   1      -2.967   7.126 132.831  0.00  0.00    +0.144 C 
ATOM     11  C   LIG A   1      -4.294   6.413 133.107  0.00  0.00    +0.042 C 
ATOM     12  C   LIG A   1      -4.824   5.550 131.919  0.00  0.00    -0.013 C 
ATOM     13  C   LIG A   1      -5.258   6.484 130.752  0.00  0.00    +0.012 C 
ATOM     14  C   LIG A   1      -6.044   4.664 132.382  0.00  0.00    +0.026 C 
ATOM     15  C   LIG A   1      -7.211   5.534 132.881  0.00  0.00    +0.009 C 
ATOM     16  C   LIG A   1      -8.406   4.696 133.301  0.00  0.00    +0.012 C 
ATOM     17  O   LIG A   1      -3.371   3.123 129.598  0.00  0.00    -0.292 OA
ATOM     18  C   LIG A   1      -8.504   2.959 130.044  0.00  0.00    -0.022 C 
ATOM     19  C   LIG A   1      -9.984   3.179 130.124  0.00  0.00    +0.034 C 
ATOM     20  C   LIG A   1     -10.097   4.233 131.269  0.00  0.00    +0.037 C 
ENDROOT
BRANCH   9  21
ATOM     21  O   LIG A   1      -0.805   7.004 131.793  0.00  0.00    -0.389 OA
ATOM     22  H   LIG A   1      -0.711   6.854 130.836  0.00  0.00    +0.210 HD
ENDBRANCH   9  21
BRANCH  10  23
ATOM     23  O   LIG A   1      -3.186   8.222 131.939  0.00  0.00    -0.389 OA
ATOM     24  H   LIG A   1      -4.079   8.067 131.570  0.00  0.00    +0.210 HD
ENDBRANCH  10  23
BRANCH  20  25
ATOM     25  C   LIG A   1     -10.133   5.719 130.695  0.00  0.00    +0.093 C 
ATOM     26  C   LIG A   1      -8.774   6.440 130.803  0.00  0.00    +0.044 C 
BRANCH  25  27
ATOM     27  O   LIG A   1     -10.468   5.746 129.294  0.00  0.00    -0.386 OA
ATOM     28  H   LIG A   1     -10.999   4.956 129.087  0.00  0.00    +0.210 HD
ENDBRANCH  25  27
BRANCH  25  29
ATOM     29  C   LIG A   1     -11.221   6.626 131.401  0.00  0.00    +0.146 C 
BRANCH  29  30
ATOM     30  O   LIG A   1     -11.632   6.011 132.634  0.00  0.00    -0.389 OA
ATOM     31  H   LIG A   1     -10.846   6.027 133.217  0.00  0.00    +0.210 HD
ENDBRANCH  29  30
BRANCH  29  32
ATOM     32  C   LIG A   1     -12.466   6.884 130.546  0.00  0.00    +0.037 C 
BRANCH  32  33
ATOM     33  C   LIG A   1     -12.716   8.375 130.272  0.00  0.00    +0.036 C 
BRANCH  33  34
ATOM     34  C   LIG A   1     -12.675   8.735 128.770  0.00  0.00    +0.061 C 
ATOM     35  C   LIG A   1     -13.589   7.800 127.970  0.00  0.00    +0.041 C 
ATOM     36  C   LIG A   1     -11.259   8.680 128.193  0.00  0.00    +0.041 C 
BRANCH  34  37
ATOM     37  O   LIG A   1     -13.153  10.074 128.602  0.00  0.00    -0.389 OA
ATOM     38  H   LIG A   1     -13.889  10.207 129.224  0.00  0.00    +0.210 HD
ENDBRANCH  34  37
ENDBRANCH  33  34
ENDBRANCH  32  33
ENDBRANCH  29  32
ENDBRANCH  25  29
ENDBRANCH  20  25
TORSDOF 10
ENDMDL
MODEL 7
REMARK VINA RESULT:      -7.9      2.347      4.183
REMARK  Name = NuBBE_1229
REMARK  15 active torsions:
REMARK  status: ('A' for Active; 'I' for Inactive)
REMARK    1  A    between atoms: C_1  and  C_2
REMARK    2  A    between atoms: C_9  and  O_11
REMARK    3  A    between atoms: C_12  and  O_14
REMARK    4  A    between atoms: C_16  and  C_17
REMARK    5  A    between atoms: C_24  and  C_26
REMARK    6  A    between atoms: C_26  and  O_27
REMARK    7  A    between atoms: C_26  and  C_28
REMARK    8  A    between atoms: C_26  and  C_29
REMARK    9  A    between atoms: C_29  and  O_31
REMARK   10  A    between atoms: C_29  and  C_32
REMARK   11  A    between atoms: C_32  and  C_33
REMARK   12  A    between atoms: C_33  and  C_34
REMARK   13  A    between atoms: C_34  and  C_35
REMARK   14  A    between atoms: C_34  and  O_36
REMARK   15  A    between atoms: C_34  and  C_37
REMARK                            x       y       z     vdW  Elec       q    Type
REMARK                         _______ _______ _______ _____ _____    ______ ____
ROOT
ATOM      1  C   LIG A   1      -5.024  -2.863 127.992  0.00  0.00    +0.016 C 
ATOM      2  C   LIG A   1      -6.010  -1.659 128.149  0.00  0.00    -0.001 C 
ATOM      3  C   LIG A   1      -7.225  -1.889 127.266  0.00  0.00    -0.041 C 
ATOM      4  C   LIG A   1      -7.472  -1.150 126.035  0.00  0.00    -0.037 C 
ATOM      5  C   LIG A   1      -8.476  -1.489 125.203  0.00  0.00    +0.050 C 
ATOM      6  C   LIG A   1      -8.865  -0.638 124.053  0.00  0.00    +0.160 C 
ATOM      7  C   LIG A   1      -8.049   0.607 123.761  0.00  0.00    +0.069 C 
ATOM      8  C   LIG A   1      -8.821   1.622 122.909  0.00  0.00    +0.045 C 
ATOM      9  C   LIG A   1      -7.932   2.802 122.517  0.00  0.00    +0.144 C 
ATOM     10  C   LIG A   1      -7.215   3.445 123.713  0.00  0.00    +0.144 C 
ATOM     11  C   LIG A   1      -6.551   2.419 124.636  0.00  0.00    +0.042 C 
ATOM     12  C   LIG A   1      -7.475   1.234 125.057  0.00  0.00    -0.013 C 
ATOM     13  C   LIG A   1      -8.595   1.760 126.001  0.00  0.00    +0.012 C 
ATOM     14  C   LIG A   1      -6.638   0.114 125.787  0.00  0.00    +0.026 C 
ATOM     15  C   LIG A   1      -5.968   0.655 127.061  0.00  0.00    +0.009 C 
ATOM     16  C   LIG A   1      -5.183  -0.420 127.792  0.00  0.00    +0.012 C 
ATOM     17  O   LIG A   1      -9.804  -1.004 123.338  0.00  0.00    -0.292 OA
ATOM     18  C   LIG A   1      -8.114  -2.662 127.916  0.00  0.00    -0.022 C 
ATOM     19  C   LIG A   1      -7.701  -2.901 129.337  0.00  0.00    +0.034 C 
ATOM     20  C   LIG A   1      -6.683  -1.744 129.581  0.00  0.00    +0.037 C 
ENDROOT
BRANCH   9  21
ATOM     21  O   LIG A   1      -8.726   3.812 121.883  0.00  0.00    -0.389 OA
ATOM     22  H   LIG A   1      -8.163   4.254 121.222  0.00  0.00    +0.210 HD
ENDBRANCH   9  21
BRANCH  10  23
ATOM     23  O   LIG A   1      -8.139   4.239 124.461  0.00  0.00    -0.389 OA
ATOM     24  H   LIG A   1      -7.615   4.587 125.211  0.00  0.00    +0.210 HD
ENDBRANCH  10  23
BRANCH  20  25
ATOM     25  C   LIG A   1      -7.388  -0.472 130.234  0.00  0.00    +0.093 C 
ATOM     26  C   LIG A   1      -6.381   0.560 130.783  0.00  0.00    +0.044 C 
BRANCH  25  27
ATOM     27  O   LIG A   1      -8.188   0.249 129.277  0.00  0.00    -0.386 OA
ATOM     28  H   LIG A   1      -8.178   1.193 129.514  0.00  0.00    +0.210 HD
ENDBRANCH  25  27
BRANCH  25  29
ATOM     29  C   LIG A   1      -8.380  -0.852 131.406  0.00  0.00    +0.146 C 
BRANCH  29  30
ATOM     30  O   LIG A   1      -9.275   0.245 131.654  0.00  0.00    -0.389 OA
ATOM     31  H   LIG A   1      -8.719   0.972 132.002  0.00  0.00    +0.210 HD
ENDBRANCH  29  30
BRANCH  29  32
ATOM     32  C   LIG A   1      -7.680  -1.216 132.720  0.00  0.00    +0.037 C 
BRANCH  32  33
ATOM     33  C   LIG A   1      -7.616  -2.730 132.975  0.00  0.00    +0.036 C 
BRANCH  33  34
ATOM     34  C   LIG A   1      -6.176  -3.256 133.165  0.00  0.00    +0.061 C 
ATOM     35  C   LIG A   1      -5.166  -2.112 133.037  0.00  0.00    +0.041 C 
ATOM     36  C   LIG A   1      -5.821  -4.364 132.170  0.00  0.00    +0.041 C 
BRANCH  34  37
ATOM     37  O   LIG A   1      -6.055  -3.810 134.480  0.00  0.00    -0.389 OA
ATOM     38  H   LIG A   1      -6.712  -4.523 134.563  0.00  0.00    +0.210 HD
ENDBRANCH  34  37
ENDBRANCH  33  34
ENDBRANCH  32  33
ENDBRANCH  29  32
ENDBRANCH  25  29
ENDBRANCH  20  25
TORSDOF 10
ENDMDL
MODEL 8
REMARK VINA RESULT:      -7.7      3.143      5.200
REMARK  Name = NuBBE_1229
REMARK  15 active torsions:
REMARK  status: ('A' for Active; 'I' for Inactive)
REMARK    1  A    between atoms: C_1  and  C_2
REMARK    2  A    between atoms: C_9  and  O_11
REMARK    3  A    between atoms: C_12  and  O_14
REMARK    4  A    between atoms: C_16  and  C_17
REMARK    5  A    between atoms: C_24  and  C_26
REMARK    6  A    between atoms: C_26  and  O_27
REMARK    7  A    between atoms: C_26  and  C_28
REMARK    8  A    between atoms: C_26  and  C_29
REMARK    9  A    between atoms: C_29  and  O_31
REMARK   10  A    between atoms: C_29  and  C_32
REMARK   11  A    between atoms: C_32  and  C_33
REMARK   12  A    between atoms: C_33  and  C_34
REMARK   13  A    between atoms: C_34  and  C_35
REMARK   14  A    between atoms: C_34  and  O_36
REMARK   15  A    between atoms: C_34  and  C_37
REMARK                            x       y       z     vdW  Elec       q    Type
REMARK                         _______ _______ _______ _____ _____    ______ ____
ROOT
ATOM      1  C   LIG A   1      -4.911  -2.678 128.470  0.00  0.00    +0.016 C 
ATOM      2  C   LIG A   1      -5.933  -1.498 128.556  0.00  0.00    -0.001 C 
ATOM      3  C   LIG A   1      -7.117  -1.794 127.650  0.00  0.00    -0.041 C 
ATOM      4  C   LIG A   1      -7.349  -1.106 126.386  0.00  0.00    -0.037 C 
ATOM      5  C   LIG A   1      -8.319  -1.504 125.541  0.00  0.00    +0.050 C 
ATOM      6  C   LIG A   1      -8.699  -0.706 124.350  0.00  0.00    +0.160 C 
ATOM      7  C   LIG A   1      -7.910   0.550 124.035  0.00  0.00    +0.069 C 
ATOM      8  C   LIG A   1      -8.685   1.512 123.125  0.00  0.00    +0.045 C 
ATOM      9  C   LIG A   1      -7.818   2.701 122.715  0.00  0.00    +0.144 C 
ATOM     10  C   LIG A   1      -7.152   3.407 123.905  0.00  0.00    +0.144 C 
ATOM     11  C   LIG A   1      -6.487   2.434 124.882  0.00  0.00    +0.042 C 
ATOM     12  C   LIG A   1      -7.389   1.240 125.322  0.00  0.00    -0.013 C 
ATOM     13  C   LIG A   1      -8.549   1.767 126.215  0.00  0.00    +0.012 C 
ATOM     14  C   LIG A   1      -6.543   0.170 126.114  0.00  0.00    +0.026 C 
ATOM     15  C   LIG A   1      -5.924   0.776 127.385  0.00  0.00    +0.009 C 
ATOM     16  C   LIG A   1      -5.131  -0.250 128.177  0.00  0.00    +0.012 C 
ATOM     17  O   LIG A   1      -9.608  -1.124 123.624  0.00  0.00    -0.292 OA
ATOM     18  C   LIG A   1      -8.001  -2.568 128.304  0.00  0.00    -0.022 C 
ATOM     19  C   LIG A   1      -7.622  -2.744 129.743  0.00  0.00    +0.034 C 
ATOM     20  C   LIG A   1      -6.643  -1.550 129.972  0.00  0.00    +0.037 C 
ENDROOT
BRANCH   9  21
ATOM     21  O   LIG A   1      -8.621   3.665 122.022  0.00  0.00    -0.389 OA
ATOM     22  H   LIG A   1      -8.400   4.542 122.383  0.00  0.00    +0.210 HD
ENDBRANCH   9  21
BRANCH  10  23
ATOM     23  O   LIG A   1      -8.118   4.201 124.598  0.00  0.00    -0.389 OA
ATOM     24  H   LIG A   1      -8.973   3.971 124.179  0.00  0.00    +0.210 HD
ENDBRANCH  10  23
BRANCH  20  25
ATOM     25  C   LIG A   1      -7.400  -0.276 130.558  0.00  0.00    +0.093 C 
ATOM     26  C   LIG A   1      -8.214   0.484 129.491  0.00  0.00    +0.044 C 
BRANCH  25  27
ATOM     27  O   LIG A   1      -8.352  -0.638 131.577  0.00  0.00    -0.386 OA
ATOM     28  H   LIG A   1      -8.169  -0.108 132.374  0.00  0.00    +0.210 HD
ENDBRANCH  25  27
BRANCH  25  29
ATOM     29  C   LIG A   1      -6.422   0.757 131.249  0.00  0.00    +0.146 C 
BRANCH  29  30
ATOM     30  O   LIG A   1      -6.324   0.463 132.653  0.00  0.00    -0.389 OA
ATOM     31  H   LIG A   1      -7.139   0.823 133.059  0.00  0.00    +0.210 HD
ENDBRANCH  29  30
BRANCH  29  32
ATOM     32  C   LIG A   1      -6.847   2.221 131.086  0.00  0.00    +0.037 C 
BRANCH  32  33
ATOM     33  C   LIG A   1      -7.210   2.899 132.417  0.00  0.00    +0.036 C 
BRANCH  33  34
ATOM     34  C   LIG A   1      -8.733   2.993 132.658  0.00  0.00    +0.061 C 
ATOM     35  C   LIG A   1      -9.432   3.605 131.439  0.00  0.00    +0.041 C 
ATOM     36  C   LIG A   1      -9.080   3.807 133.907  0.00  0.00    +0.041 C 
BRANCH  34  37
ATOM     37  O   LIG A   1      -9.253   1.673 132.851  0.00  0.00    -0.389 OA
ATOM     38  H   LIG A   1      -9.503   1.587 133.788  0.00  0.00    +0.210 HD
ENDBRANCH  34  37
ENDBRANCH  33  34
ENDBRANCH  32  33
ENDBRANCH  29  32
ENDBRANCH  25  29
ENDBRANCH  20  25
TORSDOF 10
ENDMDL
MODEL 9
REMARK VINA RESULT:      -7.7      3.639      5.831
REMARK  Name = NuBBE_1229
REMARK  15 active torsions:
REMARK  status: ('A' for Active; 'I' for Inactive)
REMARK    1  A    between atoms: C_1  and  C_2
REMARK    2  A    between atoms: C_9  and  O_11
REMARK    3  A    between atoms: C_12  and  O_14
REMARK    4  A    between atoms: C_16  and  C_17
REMARK    5  A    between atoms: C_24  and  C_26
REMARK    6  A    between atoms: C_26  and  O_27
REMARK    7  A    between atoms: C_26  and  C_28
REMARK    8  A    between atoms: C_26  and  C_29
REMARK    9  A    between atoms: C_29  and  O_31
REMARK   10  A    between atoms: C_29  and  C_32
REMARK   11  A    between atoms: C_32  and  C_33
REMARK   12  A    between atoms: C_33  and  C_34
REMARK   13  A    between atoms: C_34  and  C_35
REMARK   14  A    between atoms: C_34  and  O_36
REMARK   15  A    between atoms: C_34  and  C_37
REMARK                            x       y       z     vdW  Elec       q    Type
REMARK                         _______ _______ _______ _____ _____    ______ ____
ROOT
ATOM      1  C   LIG A   1      -8.661  -3.520 128.879  0.00  0.00    +0.016 C 
ATOM      2  C   LIG A   1      -7.514  -2.471 129.055  0.00  0.00    -0.001 C 
ATOM      3  C   LIG A   1      -7.679  -1.769 130.393  0.00  0.00    -0.041 C 
ATOM      4  C   LIG A   1      -8.139  -0.393 130.525  0.00  0.00    -0.037 C 
ATOM      5  C   LIG A   1      -8.420   0.140 131.729  0.00  0.00    +0.050 C 
ATOM      6  C   LIG A   1      -8.699   1.586 131.903  0.00  0.00    +0.160 C 
ATOM      7  C   LIG A   1      -8.753   2.469 130.672  0.00  0.00    +0.069 C 
ATOM      8  C   LIG A   1      -8.549   3.951 131.009  0.00  0.00    +0.045 C 
ATOM      9  C   LIG A   1      -8.742   4.829 129.773  0.00  0.00    +0.144 C 
ATOM     10  C   LIG A   1      -7.913   4.369 128.565  0.00  0.00    +0.144 C 
ATOM     11  C   LIG A   1      -8.016   2.864 128.306  0.00  0.00    +0.042 C 
ATOM     12  C   LIG A   1      -7.786   1.972 129.566  0.00  0.00    -0.013 C 
ATOM     13  C   LIG A   1      -6.296   2.068 130.004  0.00  0.00    +0.012 C 
ATOM     14  C   LIG A   1      -8.162   0.472 129.257  0.00  0.00    +0.026 C 
ATOM     15  C   LIG A   1      -7.297  -0.100 128.121  0.00  0.00    +0.009 C 
ATOM     16  C   LIG A   1      -7.624  -1.554 127.833  0.00  0.00    +0.012 C 
ATOM     17  O   LIG A   1      -8.936   2.010 133.040  0.00  0.00    -0.292 OA
ATOM     18  C   LIG A   1      -7.109  -2.509 131.362  0.00  0.00    -0.022 C 
ATOM     19  C   LIG A   1      -6.362  -3.678 130.795  0.00  0.00    +0.034 C 
ATOM     20  C   LIG A   1      -6.157  -3.247 129.309  0.00  0.00    +0.037 C 
ENDROOT
BRANCH   9  21
ATOM     21  O   LIG A   1      -8.367   6.178 130.078  0.00  0.00    -0.389 OA
ATOM     22  H   LIG A   1      -8.168   6.218 131.031  0.00  0.00    +0.210 HD
ENDBRANCH   9  21
BRANCH  10  23
ATOM     23  O   LIG A   1      -6.543   4.733 128.753  0.00  0.00    -0.389 OA
ATOM     24  H   LIG A   1      -6.035   4.001 128.346  0.00  0.00    +0.210 HD
ENDBRANCH  10  23
BRANCH  20  25
ATOM     25  C   LIG A   1      -4.749  -2.530 129.098  0.00  0.00    +0.093 C 
ATOM     26  C   LIG A   1      -3.557  -3.506 129.178  0.00  0.00    +0.044 C 
BRANCH  25  27
ATOM     27  O   LIG A   1      -4.650  -1.913 127.800  0.00  0.00    -0.386 OA
ATOM     28  H   LIG A   1      -4.263  -2.557 127.180  0.00  0.00    +0.210 HD
ENDBRANCH  25  27
BRANCH  25  29
ATOM     29  C   LIG A   1      -4.491  -1.364 130.135  0.00  0.00    +0.146 C 
BRANCH  29  30
ATOM     30  O   LIG A   1      -4.116  -0.167 129.431  0.00  0.00    -0.389 OA
ATOM     31  H   LIG A   1      -3.145  -0.089 129.534  0.00  0.00    +0.210 HD
ENDBRANCH  29  30
BRANCH  29  32
ATOM     32  C   LIG A   1      -3.405  -1.681 131.170  0.00  0.00    +0.037 C 
BRANCH  32  33
ATOM     33  C   LIG A   1      -3.885  -1.520 132.622  0.00  0.00    +0.036 C 
BRANCH  33  34
ATOM     34  C   LIG A   1      -3.304  -2.585 133.578  0.00  0.00    +0.061 C 
ATOM     35  C   LIG A   1      -3.511  -3.990 133.003  0.00  0.00    +0.041 C 
ATOM     36  C   LIG A   1      -3.917  -2.511 134.978  0.00  0.00    +0.041 C 
BRANCH  34  37
ATOM     37  O   LIG A   1      -1.896  -2.364 133.716  0.00  0.00    -0.389 OA
ATOM     38  H   LIG A   1      -1.766  -1.439 133.986  0.00  0.00    +0.210 HD
ENDBRANCH  34  37
ENDBRANCH  33  34
ENDBRANCH  32  33
ENDBRANCH  29  32
ENDBRANCH  25  29
ENDBRANCH  20  25
TORSDOF 10
ENDMDL
