MODEL 1
REMARK VINA RESULT:      -7.0      0.000      0.000
REMARK  Name = NuBBE_1929
REMARK  6 active torsions:
REMARK  status: ('A' for Active; 'I' for Inactive)
REMARK    1  A    between atoms: C_1  and  C_2
REMARK    2  A    between atoms: C_1  and  C_3
REMARK    3  A    between atoms: C_1  and  C_4
REMARK    4  A    between atoms: C_10  and  C_13
REMARK    5  A    between atoms: C_10  and  O_14
REMARK    6  A    between atoms: C_17  and  C_19
REMARK                            x       y       z     vdW  Elec       q    Type
REMARK                         _______ _______ _______ _____ _____    ______ ____
ROOT
ATOM      1  C   LIG A   1      -7.540  -1.863 126.282  0.00  0.00    -0.001 C 
ATOM      2  C   LIG A   1      -6.241  -1.556 125.457  0.00  0.00    +0.021 C 
ATOM      3  C   LIG A   1      -6.345  -0.566 124.256  0.00  0.00    +0.028 C 
ATOM      4  C   LIG A   1      -7.285   0.630 124.545  0.00  0.00    +0.067 C 
ATOM      5  C   LIG A   1      -8.632   0.162 125.099  0.00  0.00    +0.035 C 
ATOM      6  C   LIG A   1      -8.493  -0.656 126.377  0.00  0.00    +0.007 C 
ATOM      7  C   LIG A   1      -7.520   1.524 123.321  0.00  0.00    +0.041 C 
ATOM      8  C   LIG A   1      -6.646  -1.297 122.939  0.00  0.00    +0.011 C 
ATOM      9  C   LIG A   1      -5.653  -2.427 122.648  0.00  0.00    +0.030 C 
ATOM     10  C   LIG A   1      -5.193  -3.198 123.854  0.00  0.00    -0.076 C 
ATOM     11  C   LIG A   1      -5.463  -2.799 125.108  0.00  0.00    -0.024 C 
ATOM     12  C   LIG A   1      -4.394  -4.438 123.571  0.00  0.00    +0.038 C 
ENDROOT
BRANCH   1  13
ATOM     13  C   LIG A   1      -8.260  -3.236 126.043  0.00  0.00    -0.013 C 
ATOM     14  C   LIG A   1      -9.009  -3.708 127.303  0.00  0.00    +0.007 C 
ATOM     15  C   LIG A   1      -9.217  -3.293 124.856  0.00  0.00    +0.007 C 
ENDBRANCH   1  13
BRANCH   4  16
ATOM     16  O   LIG A   1      -6.660   1.493 125.510  0.00  0.00    -0.389 OA
ATOM     17  H   LIG A   1      -6.385   0.971 126.280  0.00  0.00    +0.210 HD
ENDBRANCH   4  16
TORSDOF 2
ENDMDL
MODEL 2
REMARK VINA RESULT:      -6.6      1.710      3.974
REMARK  Name = NuBBE_1929
REMARK  6 active torsions:
REMARK  status: ('A' for Active; 'I' for Inactive)
REMARK    1  A    between atoms: C_1  and  C_2
REMARK    2  A    between atoms: C_1  and  C_3
REMARK    3  A    between atoms: C_1  and  C_4
REMARK    4  A    between atoms: C_10  and  C_13
REMARK    5  A    between atoms: C_10  and  O_14
REMARK    6  A    between atoms: C_17  and  C_19
REMARK                            x       y       z     vdW  Elec       q    Type
REMARK                         _______ _______ _______ _____ _____    ______ ____
ROOT
ATOM      1  C   LIG A   1      -7.191  -2.840 123.929  0.00  0.00    -0.001 C 
ATOM      2  C   LIG A   1      -8.418  -2.611 124.879  0.00  0.00    +0.021 C 
ATOM      3  C   LIG A   1      -8.950  -1.156 125.061  0.00  0.00    +0.028 C 
ATOM      4  C   LIG A   1      -8.927  -0.341 123.745  0.00  0.00    +0.067 C 
ATOM      5  C   LIG A   1      -7.566  -0.437 123.050  0.00  0.00    +0.035 C 
ATOM      6  C   LIG A   1      -7.166  -1.871 122.732  0.00  0.00    +0.007 C 
ATOM      7  C   LIG A   1      -9.297   1.135 123.940  0.00  0.00    +0.041 C 
ATOM      8  C   LIG A   1      -8.281  -0.448 126.249  0.00  0.00    +0.011 C 
ATOM      9  C   LIG A   1      -8.386  -1.248 127.551  0.00  0.00    +0.030 C 
ATOM     10  C   LIG A   1      -8.270  -2.740 127.394  0.00  0.00    -0.076 C 
ATOM     11  C   LIG A   1      -8.284  -3.339 126.193  0.00  0.00    -0.024 C 
ATOM     12  C   LIG A   1      -8.154  -3.523 128.671  0.00  0.00    +0.038 C 
ENDROOT
BRANCH   1  13
ATOM     13  C   LIG A   1      -5.787  -3.094 124.582  0.00  0.00    -0.013 C 
ATOM     14  C   LIG A   1      -4.803  -3.723 123.579  0.00  0.00    +0.007 C 
ATOM     15  C   LIG A   1      -5.120  -1.884 125.228  0.00  0.00    +0.007 C 
ENDBRANCH   1  13
BRANCH   4  16
ATOM     16  O   LIG A   1      -9.937  -0.853 122.860  0.00  0.00    -0.389 OA
ATOM     17  H   LIG A   1      -9.951  -0.326 122.045  0.00  0.00    +0.210 HD
ENDBRANCH   4  16
TORSDOF 2
ENDMDL
MODEL 3
REMARK VINA RESULT:      -6.3      1.995      4.001
REMARK  Name = NuBBE_1929
REMARK  6 active torsions:
REMARK  status: ('A' for Active; 'I' for Inactive)
REMARK    1  A    between atoms: C_1  and  C_2
REMARK    2  A    between atoms: C_1  and  C_3
REMARK    3  A    between atoms: C_1  and  C_4
REMARK    4  A    between atoms: C_10  and  C_13
REMARK    5  A    between atoms: C_10  and  O_14
REMARK    6  A    between atoms: C_17  and  C_19
REMARK                            x       y       z     vdW  Elec       q    Type
REMARK                         _______ _______ _______ _____ _____    ______ ____
ROOT
ATOM      1  C   LIG A   1      -8.894  -2.520 125.954  0.00  0.00    -0.001 C 
ATOM      2  C   LIG A   1      -8.763  -1.112 125.273  0.00  0.00    +0.021 C 
ATOM      3  C   LIG A   1      -7.594  -0.886 124.264  0.00  0.00    +0.028 C 
ATOM      4  C   LIG A   1      -7.328  -2.120 123.369  0.00  0.00    +0.067 C 
ATOM      5  C   LIG A   1      -7.210  -3.400 124.199  0.00  0.00    +0.035 C 
ATOM      6  C   LIG A   1      -8.451  -3.676 125.038  0.00  0.00    +0.007 C 
ATOM      7  C   LIG A   1      -6.084  -1.968 122.484  0.00  0.00    +0.041 C 
ATOM      8  C   LIG A   1      -6.341  -0.332 124.959  0.00  0.00    +0.011 C 
ATOM      9  C   LIG A   1      -6.625   0.931 125.778  0.00  0.00    +0.030 C 
ATOM     10  C   LIG A   1      -7.953   0.947 126.485  0.00  0.00    -0.076 C 
ATOM     11  C   LIG A   1      -8.902   0.026 126.252  0.00  0.00    -0.024 C 
ATOM     12  C   LIG A   1      -8.160   2.070 127.460  0.00  0.00    +0.038 C 
ENDROOT
BRANCH   1  13
ATOM     13  C   LIG A   1      -8.432  -2.665 127.446  0.00  0.00    -0.013 C 
ATOM     14  C   LIG A   1      -8.924  -3.988 128.063  0.00  0.00    +0.007 C 
ATOM     15  C   LIG A   1      -6.934  -2.536 127.699  0.00  0.00    +0.007 C 
ENDBRANCH   1  13
BRANCH   4  16
ATOM     16  O   LIG A   1      -8.416  -2.268 122.441  0.00  0.00    -0.389 OA
ATOM     17  H   LIG A   1      -8.907  -3.079 122.645  0.00  0.00    +0.210 HD
ENDBRANCH   4  16
TORSDOF 2
ENDMDL
MODEL 4
REMARK VINA RESULT:      -6.0      2.311      4.336
REMARK  Name = NuBBE_1929
REMARK  6 active torsions:
REMARK  status: ('A' for Active; 'I' for Inactive)
REMARK    1  A    between atoms: C_1  and  C_2
REMARK    2  A    between atoms: C_1  and  C_3
REMARK    3  A    between atoms: C_1  and  C_4
REMARK    4  A    between atoms: C_10  and  C_13
REMARK    5  A    between atoms: C_10  and  O_14
REMARK    6  A    between atoms: C_17  and  C_19
REMARK                            x       y       z     vdW  Elec       q    Type
REMARK                         _______ _______ _______ _____ _____    ______ ____
ROOT
ATOM      1  C   LIG A   1      -7.006  -0.471 126.052  0.00  0.00    -0.001 C 
ATOM      2  C   LIG A   1      -6.928  -2.018 126.306  0.00  0.00    +0.021 C 
ATOM      3  C   LIG A   1      -7.968  -2.937 125.595  0.00  0.00    +0.028 C 
ATOM      4  C   LIG A   1      -8.276  -2.485 124.147  0.00  0.00    +0.067 C 
ATOM      5  C   LIG A   1      -8.603  -0.991 124.085  0.00  0.00    +0.035 C 
ATOM      6  C   LIG A   1      -7.481  -0.118 124.629  0.00  0.00    +0.007 C 
ATOM      7  C   LIG A   1      -9.411  -3.284 123.493  0.00  0.00    +0.041 C 
ATOM      8  C   LIG A   1      -9.216  -3.163 126.462  0.00  0.00    +0.011 C 
ATOM      9  C   LIG A   1      -8.879  -3.680 127.864  0.00  0.00    +0.030 C 
ATOM     10  C   LIG A   1      -7.628  -3.106 128.472  0.00  0.00    -0.076 C 
ATOM     11  C   LIG A   1      -6.762  -2.363 127.765  0.00  0.00    -0.024 C 
ATOM     12  C   LIG A   1      -7.397  -3.432 129.919  0.00  0.00    +0.038 C 
ENDROOT
BRANCH   1  13
ATOM     13  C   LIG A   1      -7.617   0.433 127.179  0.00  0.00    -0.013 C 
ATOM     14  C   LIG A   1      -6.618   1.508 127.644  0.00  0.00    +0.007 C 
ATOM     15  C   LIG A   1      -8.944   1.109 126.850  0.00  0.00    +0.007 C 
ENDBRANCH   1  13
BRANCH   4  16
ATOM     16  O   LIG A   1      -7.128  -2.744 123.322  0.00  0.00    -0.389 OA
ATOM     17  H   LIG A   1      -7.169  -3.654 122.988  0.00  0.00    +0.210 HD
ENDBRANCH   4  16
TORSDOF 2
ENDMDL
MODEL 5
REMARK VINA RESULT:      -6.0      1.542      3.943
REMARK  Name = NuBBE_1929
REMARK  6 active torsions:
REMARK  status: ('A' for Active; 'I' for Inactive)
REMARK    1  A    between atoms: C_1  and  C_2
REMARK    2  A    between atoms: C_1  and  C_3
REMARK    3  A    between atoms: C_1  and  C_4
REMARK    4  A    between atoms: C_10  and  C_13
REMARK    5  A    between atoms: C_10  and  O_14
REMARK    6  A    between atoms: C_17  and  C_19
REMARK                            x       y       z     vdW  Elec       q    Type
REMARK                         _______ _______ _______ _____ _____    ______ ____
ROOT
ATOM      1  C   LIG A   1      -7.930  -0.918 124.045  0.00  0.00    -0.001 C 
ATOM      2  C   LIG A   1      -8.802  -0.932 125.349  0.00  0.00    +0.021 C 
ATOM      3  C   LIG A   1      -8.530   0.159 126.431  0.00  0.00    +0.028 C 
ATOM      4  C   LIG A   1      -8.216   1.545 125.818  0.00  0.00    +0.067 C 
ATOM      5  C   LIG A   1      -7.141   1.447 124.732  0.00  0.00    +0.035 C 
ATOM      6  C   LIG A   1      -7.528   0.502 123.603  0.00  0.00    +0.007 C 
ATOM      7  C   LIG A   1      -7.793   2.587 126.862  0.00  0.00    +0.041 C 
ATOM      8  C   LIG A   1      -7.505  -0.314 127.473  0.00  0.00    +0.011 C 
ATOM      9  C   LIG A   1      -7.884  -1.654 128.112  0.00  0.00    +0.030 C 
ATOM     10  C   LIG A   1      -8.532  -2.643 127.183  0.00  0.00    -0.076 C 
ATOM     11  C   LIG A   1      -8.938  -2.309 125.947  0.00  0.00    -0.024 C 
ATOM     12  C   LIG A   1      -8.714  -4.030 127.730  0.00  0.00    +0.038 C 
ENDROOT
BRANCH   1  13
ATOM     13  C   LIG A   1      -6.786  -1.984 123.909  0.00  0.00    -0.013 C 
ATOM     14  C   LIG A   1      -6.278  -2.086 122.459  0.00  0.00    +0.007 C 
ATOM     15  C   LIG A   1      -5.587  -1.801 124.835  0.00  0.00    +0.007 C 
ENDBRANCH   1  13
BRANCH   4  16
ATOM     16  O   LIG A   1      -9.416   2.082 125.236  0.00  0.00    -0.389 OA
ATOM     17  H   LIG A   1      -9.234   2.966 124.879  0.00  0.00    +0.210 HD
ENDBRANCH   4  16
TORSDOF 2
ENDMDL
MODEL 6
REMARK VINA RESULT:      -5.8      2.456      4.558
REMARK  Name = NuBBE_1929
REMARK  6 active torsions:
REMARK  status: ('A' for Active; 'I' for Inactive)
REMARK    1  A    between atoms: C_1  and  C_2
REMARK    2  A    between atoms: C_1  and  C_3
REMARK    3  A    between atoms: C_1  and  C_4
REMARK    4  A    between atoms: C_10  and  C_13
REMARK    5  A    between atoms: C_10  and  O_14
REMARK    6  A    between atoms: C_17  and  C_19
REMARK                            x       y       z     vdW  Elec       q    Type
REMARK                         _______ _______ _______ _____ _____    ______ ____
ROOT
ATOM      1  C   LIG A   1      -7.625  -0.950 127.017  0.00  0.00    -0.001 C 
ATOM      2  C   LIG A   1      -8.751  -0.300 126.137  0.00  0.00    +0.021 C 
ATOM      3  C   LIG A   1      -9.090  -0.961 124.765  0.00  0.00    +0.028 C 
ATOM      4  C   LIG A   1      -9.054  -2.507 124.820  0.00  0.00    +0.067 C 
ATOM      5  C   LIG A   1      -7.764  -3.016 125.467  0.00  0.00    +0.035 C 
ATOM      6  C   LIG A   1      -7.563  -2.483 126.879  0.00  0.00    +0.007 C 
ATOM      7  C   LIG A   1      -9.230  -3.165 123.445  0.00  0.00    +0.041 C 
ATOM      8  C   LIG A   1      -8.263  -0.354 123.620  0.00  0.00    +0.011 C 
ATOM      9  C   LIG A   1      -8.378   1.172 123.550  0.00  0.00    +0.030 C 
ATOM     10  C   LIG A   1      -8.454   1.868 124.881  0.00  0.00    -0.076 C 
ATOM     11  C   LIG A   1      -8.620   1.199 126.033  0.00  0.00    -0.024 C 
ATOM     12  C   LIG A   1      -8.349   3.366 124.842  0.00  0.00    +0.038 C 
ENDROOT
BRANCH   1  13
ATOM     13  C   LIG A   1      -6.223  -0.248 127.059  0.00  0.00    -0.013 C 
ATOM     14  C   LIG A   1      -5.440  -0.628 128.330  0.00  0.00    +0.007 C 
ATOM     15  C   LIG A   1      -5.325  -0.470 125.847  0.00  0.00    +0.007 C 
ENDBRANCH   1  13
BRANCH   4  16
ATOM     16  O   LIG A   1     -10.175  -2.973 125.590  0.00  0.00    -0.389 OA
ATOM     17  H   LIG A   1      -9.912  -3.752 126.104  0.00  0.00    +0.210 HD
ENDBRANCH   4  16
TORSDOF 2
ENDMDL
MODEL 7
REMARK VINA RESULT:      -5.6      2.114      3.275
REMARK  Name = NuBBE_1929
REMARK  6 active torsions:
REMARK  status: ('A' for Active; 'I' for Inactive)
REMARK    1  A    between atoms: C_1  and  C_2
REMARK    2  A    between atoms: C_1  and  C_3
REMARK    3  A    between atoms: C_1  and  C_4
REMARK    4  A    between atoms: C_10  and  C_13
REMARK    5  A    between atoms: C_10  and  O_14
REMARK    6  A    between atoms: C_17  and  C_19
REMARK                            x       y       z     vdW  Elec       q    Type
REMARK                         _______ _______ _______ _____ _____    ______ ____
ROOT
ATOM      1  C   LIG A   1      -9.049  -0.781 124.393  0.00  0.00    -0.001 C 
ATOM      2  C   LIG A   1      -8.461  -0.105 125.681  0.00  0.00    +0.021 C 
ATOM      3  C   LIG A   1      -7.636   1.209 125.515  0.00  0.00    +0.028 C 
ATOM      4  C   LIG A   1      -8.226   2.154 124.440  0.00  0.00    +0.067 C 
ATOM      5  C   LIG A   1      -8.504   1.410 123.132  0.00  0.00    +0.035 C 
ATOM      6  C   LIG A   1      -9.459   0.237 123.312  0.00  0.00    +0.007 C 
ATOM      7  C   LIG A   1      -7.340   3.373 124.155  0.00  0.00    +0.041 C 
ATOM      8  C   LIG A   1      -6.136   0.923 125.345  0.00  0.00    +0.011 C 
ATOM      9  C   LIG A   1      -5.569   0.045 126.465  0.00  0.00    +0.030 C 
ATOM     10  C   LIG A   1      -6.494  -1.032 126.961  0.00  0.00    -0.076 C 
ATOM     11  C   LIG A   1      -7.787  -1.090 126.603  0.00  0.00    -0.024 C 
ATOM     12  C   LIG A   1      -5.885  -2.034 127.900  0.00  0.00    +0.038 C 
ENDROOT
BRANCH   1  13
ATOM     13  C   LIG A   1      -8.332  -2.061 123.837  0.00  0.00    -0.013 C 
ATOM     14  C   LIG A   1      -9.349  -3.116 123.363  0.00  0.00    +0.007 C 
ATOM     15  C   LIG A   1      -7.315  -1.828 122.725  0.00  0.00    +0.007 C 
ENDBRANCH   1  13
BRANCH   4  16
ATOM     16  O   LIG A   1      -9.458   2.708 124.930  0.00  0.00    -0.389 OA
ATOM     17  H   LIG A   1      -9.283   3.226 125.732  0.00  0.00    +0.210 HD
ENDBRANCH   4  16
TORSDOF 2
ENDMDL
MODEL 8
REMARK VINA RESULT:      -5.6      2.510      4.271
REMARK  Name = NuBBE_1929
REMARK  6 active torsions:
REMARK  status: ('A' for Active; 'I' for Inactive)
REMARK    1  A    between atoms: C_1  and  C_2
REMARK    2  A    between atoms: C_1  and  C_3
REMARK    3  A    between atoms: C_1  and  C_4
REMARK    4  A    between atoms: C_10  and  C_13
REMARK    5  A    between atoms: C_10  and  O_14
REMARK    6  A    between atoms: C_17  and  C_19
REMARK                            x       y       z     vdW  Elec       q    Type
REMARK                         _______ _______ _______ _____ _____    ______ ____
ROOT
ATOM      1  C   LIG A   1      -8.015  -2.111 128.576  0.00  0.00    -0.001 C 
ATOM      2  C   LIG A   1      -7.946  -1.161 127.329  0.00  0.00    +0.021 C 
ATOM      3  C   LIG A   1      -7.805  -1.806 125.916  0.00  0.00    +0.028 C 
ATOM      4  C   LIG A   1      -8.643  -3.098 125.761  0.00  0.00    +0.067 C 
ATOM      5  C   LIG A   1      -8.405  -4.063 126.925  0.00  0.00    +0.035 C 
ATOM      6  C   LIG A   1      -8.726  -3.445 128.279  0.00  0.00    +0.007 C 
ATOM      7  C   LIG A   1      -8.392  -3.826 124.434  0.00  0.00    +0.041 C 
ATOM      8  C   LIG A   1      -6.333  -1.958 125.503  0.00  0.00    +0.011 C 
ATOM      9  C   LIG A   1      -5.551  -0.645 125.599  0.00  0.00    +0.030 C 
ATOM     10  C   LIG A   1      -5.925   0.237 126.759  0.00  0.00    -0.076 C 
ATOM     11  C   LIG A   1      -6.999  -0.004 127.528  0.00  0.00    -0.024 C 
ATOM     12  C   LIG A   1      -5.029   1.419 126.995  0.00  0.00    +0.038 C 
ENDROOT
BRANCH   1  13
ATOM     13  C   LIG A   1      -6.734  -2.249 129.472  0.00  0.00    -0.013 C 
ATOM     14  C   LIG A   1      -7.049  -2.963 130.800  0.00  0.00    +0.007 C 
ATOM     15  C   LIG A   1      -5.533  -2.929 128.824  0.00  0.00    +0.007 C 
ENDBRANCH   1  13
BRANCH   4  16
ATOM     16  O   LIG A   1     -10.037  -2.749 125.724  0.00  0.00    -0.389 OA
ATOM     17  H   LIG A   1     -10.331  -2.497 126.614  0.00  0.00    +0.210 HD
ENDBRANCH   4  16
TORSDOF 2
ENDMDL
MODEL 9
REMARK VINA RESULT:      -5.5      2.113      4.183
REMARK  Name = NuBBE_1929
REMARK  6 active torsions:
REMARK  status: ('A' for Active; 'I' for Inactive)
REMARK    1  A    between atoms: C_1  and  C_2
REMARK    2  A    between atoms: C_1  and  C_3
REMARK    3  A    between atoms: C_1  and  C_4
REMARK    4  A    between atoms: C_10  and  C_13
REMARK    5  A    between atoms: C_10  and  O_14
REMARK    6  A    between atoms: C_17  and  C_19
REMARK                            x       y       z     vdW  Elec       q    Type
REMARK                         _______ _______ _______ _____ _____    ______ ____
ROOT
ATOM      1  C   LIG A   1      -8.257   0.057 126.594  0.00  0.00    -0.001 C 
ATOM      2  C   LIG A   1      -8.405  -1.505 126.608  0.00  0.00    +0.021 C 
ATOM      3  C   LIG A   1      -7.135  -2.365 126.892  0.00  0.00    +0.028 C 
ATOM      4  C   LIG A   1      -6.219  -1.743 127.973  0.00  0.00    +0.067 C 
ATOM      5  C   LIG A   1      -5.934  -0.267 127.685  0.00  0.00    +0.035 C 
ATOM      6  C   LIG A   1      -7.202   0.571 127.592  0.00  0.00    +0.007 C 
ATOM      7  C   LIG A   1      -4.893  -2.494 128.148  0.00  0.00    +0.041 C 
ATOM      8  C   LIG A   1      -6.404  -2.748 125.595  0.00  0.00    +0.011 C 
ATOM      9  C   LIG A   1      -7.323  -3.427 124.575  0.00  0.00    +0.030 C 
ATOM     10  C   LIG A   1      -8.727  -2.889 124.523  0.00  0.00    -0.076 C 
ATOM     11  C   LIG A   1      -9.200  -2.028 125.438  0.00  0.00    -0.024 C 
ATOM     12  C   LIG A   1      -9.576  -3.389 123.390  0.00  0.00    +0.038 C 
ENDROOT
BRANCH   1  13
ATOM     13  C   LIG A   1      -8.239   0.785 125.204  0.00  0.00    -0.013 C 
ATOM     14  C   LIG A   1      -8.571   2.282 125.347  0.00  0.00    +0.007 C 
ATOM     15  C   LIG A   1      -6.957   0.644 124.390  0.00  0.00    +0.007 C 
ENDBRANCH   1  13
BRANCH   4  16
ATOM     16  O   LIG A   1      -6.867  -1.849 129.252  0.00  0.00    -0.389 OA
ATOM     17  H   LIG A   1      -6.983  -2.786 129.478  0.00  0.00    +0.210 HD
ENDBRANCH   4  16
TORSDOF 2
ENDMDL
