MODEL 1
REMARK VINA RESULT:      -9.3      0.000      0.000
REMARK  Name = NuBBE_240
REMARK  9 active torsions:
REMARK  status: ('A' for Active; 'I' for Inactive)
REMARK    1  A    between atoms: C_1  and  C_2
REMARK    2  A    between atoms: C_3  and  C_4
REMARK    3  A    between atoms: C_10  and  C_11
REMARK    4  A    between atoms: C_16  and  C_17
REMARK    5  A    between atoms: C_16  and  C_18
REMARK    6  A    between atoms: C_19  and  O_23
REMARK    7  A    between atoms: C_26  and  C_29
REMARK    8  A    between atoms: C_32  and  C_37
REMARK    9  A    between atoms: C_34  and  C_36
REMARK                            x       y       z     vdW  Elec       q    Type
REMARK                         _______ _______ _______ _____ _____    ______ ____
ROOT
ATOM      1  C   LIG A   1      -8.253   1.188 128.610  0.00  0.00    +0.012 C 
ATOM      2  C   LIG A   1      -7.200   1.446 129.747  0.00  0.00    -0.019 C 
ATOM      3  C   LIG A   1      -6.091   0.211 129.860  0.00  0.00    -0.005 C 
ATOM      4  C   LIG A   1      -5.671  -0.205 128.427  0.00  0.00    +0.016 C 
ATOM      5  C   LIG A   1      -6.743  -1.053 130.534  0.00  0.00    -0.063 C 
ATOM      6  C   LIG A   1      -8.066  -1.066 130.785  0.00  0.00    -0.026 C 
ATOM      7  C   LIG A   1      -8.777   0.188 131.233  0.00  0.00    +0.031 C 
ATOM      8  C   LIG A   1      -7.876   1.450 131.152  0.00  0.00    +0.006 C 
ATOM      9  C   LIG A   1      -8.550   2.750 131.725  0.00  0.00    -0.025 C 
ATOM     10  C   LIG A   1     -10.070   2.698 131.459  0.00  0.00    +0.012 C 
ATOM     11  C   LIG A   1      -7.813   4.049 131.230  0.00  0.00    +0.003 C 
ATOM     12  C   LIG A   1      -7.533   4.015 129.721  0.00  0.00    +0.005 C 
ATOM     13  C   LIG A   1      -6.609   2.837 129.374  0.00  0.00    +0.008 C 
ATOM     14  C   LIG A   1      -8.449   5.386 131.777  0.00  0.00    -0.006 C 
ATOM     15  C   LIG A   1      -7.555   6.614 131.447  0.00  0.00    +0.014 C 
ATOM     16  C   LIG A   1      -9.824   5.706 131.136  0.00  0.00    +0.014 C 
ATOM     17  C   LIG A   1      -8.477   5.295 133.345  0.00  0.00    +0.120 C 
ATOM     18  C   LIG A   1      -8.950   3.972 133.955  0.00  0.00    +0.032 C 
ATOM     19  C   LIG A   1      -8.351   2.745 133.276  0.00  0.00    +0.010 C 
ATOM     20  C   LIG A   1      -6.001  -1.854 131.637  0.00  0.00    +0.024 C 
ATOM     21  C   LIG A   1      -4.632  -1.405 132.164  0.00  0.00    -0.025 C 
ATOM     22  C   LIG A   1      -4.586   0.137 132.057  0.00  0.00    +0.008 C 
ATOM     23  C   LIG A   1      -4.783   0.643 130.619  0.00  0.00    +0.012 C 
ATOM     24  C   LIG A   1      -3.392  -1.931 131.410  0.00  0.00    +0.012 C 
ATOM     25  C   LIG A   1      -4.530  -1.852 133.666  0.00  0.00    +0.007 C 
ATOM     26  C   LIG A   1      -5.694  -2.690 134.262  0.00  0.00    +0.004 C 
ATOM     27  C   LIG A   1      -6.501  -3.643 133.338  0.00  0.00    -0.011 C 
ATOM     28  C   LIG A   1      -6.309  -3.371 131.819  0.00  0.00    -0.004 C 
ATOM     29  C   LIG A   1      -5.295  -4.373 131.269  0.00  0.00    +0.008 C 
ATOM     30  C   LIG A   1      -8.000  -3.583 133.701  0.00  0.00    +0.008 C 
ENDROOT
BRANCH  17  31
ATOM     31  O   LIG A   1      -9.224   6.366 133.920  0.00  0.00    -0.391 OA
ATOM     32  H   LIG A   1      -9.299   6.207 134.876  0.00  0.00    +0.210 HD
ENDBRANCH  17  31
TORSDOF 1
ENDMDL
MODEL 2
REMARK VINA RESULT:      -8.9      3.533      6.881
REMARK  Name = NuBBE_240
REMARK  9 active torsions:
REMARK  status: ('A' for Active; 'I' for Inactive)
REMARK    1  A    between atoms: C_1  and  C_2
REMARK    2  A    between atoms: C_3  and  C_4
REMARK    3  A    between atoms: C_10  and  C_11
REMARK    4  A    between atoms: C_16  and  C_17
REMARK    5  A    between atoms: C_16  and  C_18
REMARK    6  A    between atoms: C_19  and  O_23
REMARK    7  A    between atoms: C_26  and  C_29
REMARK    8  A    between atoms: C_32  and  C_37
REMARK    9  A    between atoms: C_34  and  C_36
REMARK                            x       y       z     vdW  Elec       q    Type
REMARK                         _______ _______ _______ _____ _____    ______ ____
ROOT
ATOM      1  C   LIG A   1      -6.014  -3.417 129.867  0.00  0.00    +0.012 C 
ATOM      2  C   LIG A   1      -5.714  -2.008 129.238  0.00  0.00    -0.019 C 
ATOM      3  C   LIG A   1      -5.193  -0.916 130.380  0.00  0.00    -0.005 C 
ATOM      4  C   LIG A   1      -4.188  -1.629 131.321  0.00  0.00    +0.016 C 
ATOM      5  C   LIG A   1      -6.398  -0.437 131.272  0.00  0.00    -0.063 C 
ATOM      6  C   LIG A   1      -7.601  -1.029 131.141  0.00  0.00    -0.026 C 
ATOM      7  C   LIG A   1      -8.099  -1.468 129.785  0.00  0.00    +0.031 C 
ATOM      8  C   LIG A   1      -7.013  -1.352 128.681  0.00  0.00    +0.006 C 
ATOM      9  C   LIG A   1      -7.537  -1.687 127.236  0.00  0.00    -0.025 C 
ATOM     10  C   LIG A   1      -8.629  -2.775 127.329  0.00  0.00    +0.012 C 
ATOM     11  C   LIG A   1      -6.350  -1.992 126.248  0.00  0.00    +0.003 C 
ATOM     12  C   LIG A   1      -5.322  -2.954 126.859  0.00  0.00    +0.005 C 
ATOM     13  C   LIG A   1      -4.688  -2.332 128.114  0.00  0.00    +0.008 C 
ATOM     14  C   LIG A   1      -6.821  -2.335 124.781  0.00  0.00    -0.006 C 
ATOM     15  C   LIG A   1      -5.615  -2.401 123.802  0.00  0.00    +0.014 C 
ATOM     16  C   LIG A   1      -7.501  -3.724 124.675  0.00  0.00    +0.014 C 
ATOM     17  C   LIG A   1      -7.710  -1.144 124.274  0.00  0.00    +0.120 C 
ATOM     18  C   LIG A   1      -8.752  -0.591 125.250  0.00  0.00    +0.032 C 
ATOM     19  C   LIG A   1      -8.213  -0.400 126.664  0.00  0.00    +0.010 C 
ATOM     20  C   LIG A   1      -6.597   1.062 131.625  0.00  0.00    +0.024 C 
ATOM     21  C   LIG A   1      -5.667   2.143 131.062  0.00  0.00    -0.025 C 
ATOM     22  C   LIG A   1      -5.185   1.654 129.677  0.00  0.00    +0.008 C 
ATOM     23  C   LIG A   1      -4.441   0.310 129.743  0.00  0.00    +0.012 C 
ATOM     24  C   LIG A   1      -4.396   2.459 131.878  0.00  0.00    +0.012 C 
ATOM     25  C   LIG A   1      -6.506   3.462 130.913  0.00  0.00    +0.007 C 
ATOM     26  C   LIG A   1      -7.974   3.458 131.421  0.00  0.00    +0.004 C 
ATOM     27  C   LIG A   1      -8.365   2.553 132.622  0.00  0.00    -0.011 C 
ATOM     28  C   LIG A   1      -7.324   1.446 132.949  0.00  0.00    -0.004 C 
ATOM     29  C   LIG A   1      -6.465   1.916 134.122  0.00  0.00    +0.008 C 
ATOM     30  C   LIG A   1      -9.751   1.921 132.374  0.00  0.00    +0.008 C 
ENDROOT
BRANCH  17  31
ATOM     31  O   LIG A   1      -8.351  -1.458 123.037  0.00  0.00    -0.391 OA
ATOM     32  H   LIG A   1      -9.305  -1.304 123.142  0.00  0.00    +0.210 HD
ENDBRANCH  17  31
TORSDOF 1
ENDMDL
MODEL 3
REMARK VINA RESULT:      -8.8      2.585      3.887
REMARK  Name = NuBBE_240
REMARK  9 active torsions:
REMARK  status: ('A' for Active; 'I' for Inactive)
REMARK    1  A    between atoms: C_1  and  C_2
REMARK    2  A    between atoms: C_3  and  C_4
REMARK    3  A    between atoms: C_10  and  C_11
REMARK    4  A    between atoms: C_16  and  C_17
REMARK    5  A    between atoms: C_16  and  C_18
REMARK    6  A    between atoms: C_19  and  O_23
REMARK    7  A    between atoms: C_26  and  C_29
REMARK    8  A    between atoms: C_32  and  C_37
REMARK    9  A    between atoms: C_34  and  C_36
REMARK                            x       y       z     vdW  Elec       q    Type
REMARK                         _______ _______ _______ _____ _____    ______ ____
ROOT
ATOM      1  C   LIG A   1      -8.625   3.168 129.653  0.00  0.00    +0.012 C 
ATOM      2  C   LIG A   1      -7.254   2.571 129.167  0.00  0.00    -0.019 C 
ATOM      3  C   LIG A   1      -7.461   1.171 128.293  0.00  0.00    -0.005 C 
ATOM      4  C   LIG A   1      -8.663   1.363 127.332  0.00  0.00    +0.016 C 
ATOM      5  C   LIG A   1      -7.824  -0.025 129.249  0.00  0.00    -0.063 C 
ATOM      6  C   LIG A   1      -8.069   0.213 130.552  0.00  0.00    -0.026 C 
ATOM      7  C   LIG A   1      -7.285   1.262 131.303  0.00  0.00    +0.031 C 
ATOM      8  C   LIG A   1      -6.380   2.114 130.374  0.00  0.00    +0.006 C 
ATOM      9  C   LIG A   1      -5.461   3.133 131.142  0.00  0.00    -0.025 C 
ATOM     10  C   LIG A   1      -6.195   3.632 132.405  0.00  0.00    +0.012 C 
ATOM     11  C   LIG A   1      -4.913   4.253 130.183  0.00  0.00    +0.003 C 
ATOM     12  C   LIG A   1      -6.015   4.842 129.292  0.00  0.00    +0.005 C 
ATOM     13  C   LIG A   1      -6.610   3.752 128.386  0.00  0.00    +0.008 C 
ATOM     14  C   LIG A   1      -3.982   5.305 130.904  0.00  0.00    -0.006 C 
ATOM     15  C   LIG A   1      -3.291   6.246 129.877  0.00  0.00    +0.014 C 
ATOM     16  C   LIG A   1      -4.762   6.250 131.853  0.00  0.00    +0.014 C 
ATOM     17  C   LIG A   1      -2.817   4.514 131.600  0.00  0.00    +0.120 C 
ATOM     18  C   LIG A   1      -3.202   3.248 132.372  0.00  0.00    +0.032 C 
ATOM     19  C   LIG A   1      -4.189   2.360 131.621  0.00  0.00    +0.010 C 
ATOM     20  C   LIG A   1      -7.147  -1.414 129.099  0.00  0.00    +0.024 C 
ATOM     21  C   LIG A   1      -6.048  -1.657 128.057  0.00  0.00    -0.025 C 
ATOM     22  C   LIG A   1      -5.293  -0.320 127.871  0.00  0.00    +0.008 C 
ATOM     23  C   LIG A   1      -6.210   0.824 127.406  0.00  0.00    +0.012 C 
ATOM     24  C   LIG A   1      -6.509  -2.096 126.652  0.00  0.00    +0.012 C 
ATOM     25  C   LIG A   1      -5.081  -2.753 128.631  0.00  0.00    +0.007 C 
ATOM     26  C   LIG A   1      -5.445  -3.413 129.990  0.00  0.00    +0.004 C 
ATOM     27  C   LIG A   1      -6.940  -3.568 130.388  0.00  0.00    -0.011 C 
ATOM     28  C   LIG A   1      -7.915  -2.693 129.552  0.00  0.00    -0.004 C 
ATOM     29  C   LIG A   1      -8.545  -3.565 128.468  0.00  0.00    +0.008 C 
ATOM     30  C   LIG A   1      -7.116  -3.271 131.892  0.00  0.00    +0.008 C 
ENDROOT
BRANCH  17  31
ATOM     31  O   LIG A   1      -2.043   5.360 132.450  0.00  0.00    -0.391 OA
ATOM     32  H   LIG A   1      -1.527   5.964 131.890  0.00  0.00    +0.210 HD
ENDBRANCH  17  31
TORSDOF 1
ENDMDL
MODEL 4
REMARK VINA RESULT:      -8.7      4.063      7.003
REMARK  Name = NuBBE_240
REMARK  9 active torsions:
REMARK  status: ('A' for Active; 'I' for Inactive)
REMARK    1  A    between atoms: C_1  and  C_2
REMARK    2  A    between atoms: C_3  and  C_4
REMARK    3  A    between atoms: C_10  and  C_11
REMARK    4  A    between atoms: C_16  and  C_17
REMARK    5  A    between atoms: C_16  and  C_18
REMARK    6  A    between atoms: C_19  and  O_23
REMARK    7  A    between atoms: C_26  and  C_29
REMARK    8  A    between atoms: C_32  and  C_37
REMARK    9  A    between atoms: C_34  and  C_36
REMARK                            x       y       z     vdW  Elec       q    Type
REMARK                         _______ _______ _______ _____ _____    ______ ____
ROOT
ATOM      1  C   LIG A   1      -4.800   1.123 126.112  0.00  0.00    +0.012 C 
ATOM      2  C   LIG A   1      -6.280   1.113 126.640  0.00  0.00    -0.019 C 
ATOM      3  C   LIG A   1      -6.432   1.932 128.080  0.00  0.00    -0.005 C 
ATOM      4  C   LIG A   1      -5.596   3.234 127.996  0.00  0.00    +0.016 C 
ATOM      5  C   LIG A   1      -5.838   1.079 129.262  0.00  0.00    -0.063 C 
ATOM      6  C   LIG A   1      -5.175  -0.063 128.993  0.00  0.00    -0.026 C 
ATOM      7  C   LIG A   1      -5.626  -0.968 127.872  0.00  0.00    +0.031 C 
ATOM      8  C   LIG A   1      -6.741  -0.333 126.999  0.00  0.00    +0.006 C 
ATOM      9  C   LIG A   1      -7.315  -1.298 125.899  0.00  0.00    -0.025 C 
ATOM     10  C   LIG A   1      -6.190  -2.232 125.401  0.00  0.00    +0.012 C 
ATOM     11  C   LIG A   1      -8.089  -0.506 124.781  0.00  0.00    +0.003 C 
ATOM     12  C   LIG A   1      -7.305   0.720 124.293  0.00  0.00    +0.005 C 
ATOM     13  C   LIG A   1      -7.086   1.710 125.450  0.00  0.00    +0.008 C 
ATOM     14  C   LIG A   1      -8.688  -1.429 123.649  0.00  0.00    -0.006 C 
ATOM     15  C   LIG A   1      -9.628  -0.628 122.704  0.00  0.00    +0.014 C 
ATOM     16  C   LIG A   1      -7.600  -2.027 122.721  0.00  0.00    +0.014 C 
ATOM     17  C   LIG A   1      -9.602  -2.502 124.342  0.00  0.00    +0.120 C 
ATOM     18  C   LIG A   1      -9.050  -3.176 125.601  0.00  0.00    +0.032 C 
ATOM     19  C   LIG A   1      -8.400  -2.198 126.574  0.00  0.00    +0.010 C 
ATOM     20  C   LIG A   1      -6.592   0.931 130.611  0.00  0.00    +0.024 C 
ATOM     21  C   LIG A   1      -7.978   1.552 130.822  0.00  0.00    -0.025 C 
ATOM     22  C   LIG A   1      -8.688   1.559 129.448  0.00  0.00    +0.008 C 
ATOM     23  C   LIG A   1      -7.917   2.353 128.381  0.00  0.00    +0.012 C 
ATOM     24  C   LIG A   1      -8.015   3.006 131.338  0.00  0.00    +0.012 C 
ATOM     25  C   LIG A   1      -8.759   0.642 131.836  0.00  0.00    +0.007 C 
ATOM     26  C   LIG A   1      -8.008  -0.562 132.468  0.00  0.00    +0.004 C 
ATOM     27  C   LIG A   1      -6.474  -0.470 132.701  0.00  0.00    -0.011 C 
ATOM     28  C   LIG A   1      -5.780   0.679 131.917  0.00  0.00    -0.004 C 
ATOM     29  C   LIG A   1      -5.573   1.860 132.865  0.00  0.00    +0.008 C 
ATOM     30  C   LIG A   1      -5.809  -1.821 132.362  0.00  0.00    +0.008 C 
ENDROOT
BRANCH  17  31
ATOM     31  O   LIG A   1     -10.021  -3.508 123.420  0.00  0.00    -0.391 OA
ATOM     32  H   LIG A   1      -9.765  -3.227 122.526  0.00  0.00    +0.210 HD
ENDBRANCH  17  31
TORSDOF 1
ENDMDL
MODEL 5
REMARK VINA RESULT:      -8.5      2.191      4.305
REMARK  Name = NuBBE_240
REMARK  9 active torsions:
REMARK  status: ('A' for Active; 'I' for Inactive)
REMARK    1  A    between atoms: C_1  and  C_2
REMARK    2  A    between atoms: C_3  and  C_4
REMARK    3  A    between atoms: C_10  and  C_11
REMARK    4  A    between atoms: C_16  and  C_17
REMARK    5  A    between atoms: C_16  and  C_18
REMARK    6  A    between atoms: C_19  and  O_23
REMARK    7  A    between atoms: C_26  and  C_29
REMARK    8  A    between atoms: C_32  and  C_37
REMARK    9  A    between atoms: C_34  and  C_36
REMARK                            x       y       z     vdW  Elec       q    Type
REMARK                         _______ _______ _______ _____ _____    ______ ____
ROOT
ATOM      1  C   LIG A   1      -5.999   0.851 134.237  0.00  0.00    +0.012 C 
ATOM      2  C   LIG A   1      -6.581   0.953 132.781  0.00  0.00    -0.019 C 
ATOM      3  C   LIG A   1      -7.085  -0.526 132.208  0.00  0.00    -0.005 C 
ATOM      4  C   LIG A   1      -7.835  -1.265 133.346  0.00  0.00    +0.016 C 
ATOM      5  C   LIG A   1      -5.846  -1.416 131.821  0.00  0.00    -0.063 C 
ATOM      6  C   LIG A   1      -4.601  -0.992 132.116  0.00  0.00    -0.026 C 
ATOM      7  C   LIG A   1      -4.244   0.471 132.018  0.00  0.00    +0.031 C 
ATOM      8  C   LIG A   1      -5.479   1.375 131.762  0.00  0.00    +0.006 C 
ATOM      9  C   LIG A   1      -5.123   2.890 131.533  0.00  0.00    -0.025 C 
ATOM     10  C   LIG A   1      -3.886   3.257 132.382  0.00  0.00    +0.012 C 
ATOM     11  C   LIG A   1      -6.382   3.814 131.724  0.00  0.00    +0.003 C 
ATOM     12  C   LIG A   1      -7.167   3.466 132.996  0.00  0.00    +0.005 C 
ATOM     13  C   LIG A   1      -7.699   2.026 132.919  0.00  0.00    +0.008 C 
ATOM     14  C   LIG A   1      -6.080   5.348 131.506  0.00  0.00    -0.006 C 
ATOM     15  C   LIG A   1      -7.390   6.185 131.481  0.00  0.00    +0.014 C 
ATOM     16  C   LIG A   1      -5.232   5.965 132.648  0.00  0.00    +0.014 C 
ATOM     17  C   LIG A   1      -5.448   5.512 130.077  0.00  0.00    +0.120 C 
ATOM     18  C   LIG A   1      -4.368   4.504 129.676  0.00  0.00    +0.032 C 
ATOM     19  C   LIG A   1      -4.724   3.064 130.032  0.00  0.00    +0.010 C 
ATOM     20  C   LIG A   1      -5.813  -2.223 130.495  0.00  0.00    +0.024 C 
ATOM     21  C   LIG A   1      -6.957  -2.132 129.478  0.00  0.00    -0.025 C 
ATOM     22  C   LIG A   1      -7.556  -0.711 129.592  0.00  0.00    +0.008 C 
ATOM     23  C   LIG A   1      -8.085  -0.397 131.001  0.00  0.00    +0.012 C 
ATOM     24  C   LIG A   1      -8.131  -3.115 129.664  0.00  0.00    +0.012 C 
ATOM     25  C   LIG A   1      -6.343  -2.352 128.049  0.00  0.00    +0.007 C 
ATOM     26  C   LIG A   1      -4.831  -2.699 127.947  0.00  0.00    +0.004 C 
ATOM     27  C   LIG A   1      -4.151  -3.496 129.094  0.00  0.00    -0.011 C 
ATOM     28  C   LIG A   1      -4.968  -3.531 130.416  0.00  0.00    -0.004 C 
ATOM     29  C   LIG A   1      -5.711  -4.864 130.494  0.00  0.00    +0.008 C 
ATOM     30  C   LIG A   1      -2.738  -2.932 129.359  0.00  0.00    +0.008 C 
ENDROOT
BRANCH  17  31
ATOM     31  O   LIG A   1      -4.950   6.834 129.872  0.00  0.00    -0.391 OA
ATOM     32  H   LIG A   1      -5.413   7.432 130.483  0.00  0.00    +0.210 HD
ENDBRANCH  17  31
TORSDOF 1
ENDMDL
MODEL 6
REMARK VINA RESULT:      -8.4      2.584      7.296
REMARK  Name = NuBBE_240
REMARK  9 active torsions:
REMARK  status: ('A' for Active; 'I' for Inactive)
REMARK    1  A    between atoms: C_1  and  C_2
REMARK    2  A    between atoms: C_3  and  C_4
REMARK    3  A    between atoms: C_10  and  C_11
REMARK    4  A    between atoms: C_16  and  C_17
REMARK    5  A    between atoms: C_16  and  C_18
REMARK    6  A    between atoms: C_19  and  O_23
REMARK    7  A    between atoms: C_26  and  C_29
REMARK    8  A    between atoms: C_32  and  C_37
REMARK    9  A    between atoms: C_34  and  C_36
REMARK                            x       y       z     vdW  Elec       q    Type
REMARK                         _______ _______ _______ _____ _____    ______ ____
ROOT
ATOM      1  C   LIG A   1      -7.869   0.474 128.999  0.00  0.00    +0.012 C 
ATOM      2  C   LIG A   1      -7.618   0.643 130.541  0.00  0.00    -0.019 C 
ATOM      3  C   LIG A   1      -8.217   2.086 131.113  0.00  0.00    -0.005 C 
ATOM      4  C   LIG A   1      -9.608   2.330 130.473  0.00  0.00    +0.016 C 
ATOM      5  C   LIG A   1      -7.291   3.279 130.671  0.00  0.00    -0.063 C 
ATOM      6  C   LIG A   1      -6.280   3.055 129.810  0.00  0.00    -0.026 C 
ATOM      7  C   LIG A   1      -5.483   1.774 129.876  0.00  0.00    +0.031 C 
ATOM      8  C   LIG A   1      -6.094   0.738 130.856  0.00  0.00    +0.006 C 
ATOM      9  C   LIG A   1      -5.222  -0.558 131.038  0.00  0.00    -0.025 C 
ATOM     10  C   LIG A   1      -4.498  -0.876 129.711  0.00  0.00    +0.012 C 
ATOM     11  C   LIG A   1      -6.059  -1.736 131.659  0.00  0.00    +0.003 C 
ATOM     12  C   LIG A   1      -7.421  -1.903 130.972  0.00  0.00    +0.005 C 
ATOM     13  C   LIG A   1      -8.269  -0.633 131.149  0.00  0.00    +0.008 C 
ATOM     14  C   LIG A   1      -5.229  -3.064 131.863  0.00  0.00    -0.006 C 
ATOM     15  C   LIG A   1      -6.033  -4.113 132.682  0.00  0.00    +0.014 C 
ATOM     16  C   LIG A   1      -4.888  -3.773 130.527  0.00  0.00    +0.014 C 
ATOM     17  C   LIG A   1      -3.976  -2.714 132.742  0.00  0.00    +0.120 C 
ATOM     18  C   LIG A   1      -3.210  -1.437 132.382  0.00  0.00    +0.032 C 
ATOM     19  C   LIG A   1      -4.121  -0.246 132.102  0.00  0.00    +0.010 C 
ATOM     20  C   LIG A   1      -6.881   4.396 131.668  0.00  0.00    +0.024 C 
ATOM     21  C   LIG A   1      -7.304   4.346 133.141  0.00  0.00    -0.025 C 
ATOM     22  C   LIG A   1      -7.408   2.853 133.533  0.00  0.00    +0.008 C 
ATOM     23  C   LIG A   1      -8.420   2.079 132.673  0.00  0.00    +0.012 C 
ATOM     24  C   LIG A   1      -8.663   4.985 133.495  0.00  0.00    +0.012 C 
ATOM     25  C   LIG A   1      -6.184   5.054 133.984  0.00  0.00    +0.007 C 
ATOM     26  C   LIG A   1      -5.002   5.716 133.222  0.00  0.00    +0.004 C 
ATOM     27  C   LIG A   1      -5.240   6.303 131.803  0.00  0.00    -0.011 C 
ATOM     28  C   LIG A   1      -6.555   5.822 131.128  0.00  0.00    -0.004 C 
ATOM     29  C   LIG A   1      -7.617   6.907 131.300  0.00  0.00    +0.008 C 
ATOM     30  C   LIG A   1      -4.032   5.990 130.895  0.00  0.00    +0.008 C 
ENDROOT
BRANCH  17  31
ATOM     31  O   LIG A   1      -3.058  -3.805 132.805  0.00  0.00    -0.391 OA
ATOM     32  H   LIG A   1      -2.186  -3.485 132.518  0.00  0.00    +0.210 HD
ENDBRANCH  17  31
TORSDOF 1
ENDMDL
MODEL 7
REMARK VINA RESULT:      -8.3      4.856      7.328
REMARK  Name = NuBBE_240
REMARK  9 active torsions:
REMARK  status: ('A' for Active; 'I' for Inactive)
REMARK    1  A    between atoms: C_1  and  C_2
REMARK    2  A    between atoms: C_3  and  C_4
REMARK    3  A    between atoms: C_10  and  C_11
REMARK    4  A    between atoms: C_16  and  C_17
REMARK    5  A    between atoms: C_16  and  C_18
REMARK    6  A    between atoms: C_19  and  O_23
REMARK    7  A    between atoms: C_26  and  C_29
REMARK    8  A    between atoms: C_32  and  C_37
REMARK    9  A    between atoms: C_34  and  C_36
REMARK                            x       y       z     vdW  Elec       q    Type
REMARK                         _______ _______ _______ _____ _____    ______ ____
ROOT
ATOM      1  C   LIG A   1      -2.585   5.612 130.180  0.00  0.00    +0.012 C 
ATOM      2  C   LIG A   1      -2.956   5.121 131.627  0.00  0.00    -0.019 C 
ATOM      3  C   LIG A   1      -4.096   3.909 131.598  0.00  0.00    -0.005 C 
ATOM      4  C   LIG A   1      -3.734   2.920 130.460  0.00  0.00    +0.016 C 
ATOM      5  C   LIG A   1      -5.516   4.498 131.263  0.00  0.00    -0.063 C 
ATOM      6  C   LIG A   1      -5.634   5.791 130.902  0.00  0.00    -0.026 C 
ATOM      7  C   LIG A   1      -4.769   6.849 131.542  0.00  0.00    +0.031 C 
ATOM      8  C   LIG A   1      -3.655   6.251 132.443  0.00  0.00    +0.006 C 
ATOM      9  C   LIG A   1      -2.815   7.330 133.218  0.00  0.00    -0.025 C 
ATOM     10  C   LIG A   1      -2.700   8.605 132.353  0.00  0.00    +0.012 C 
ATOM     11  C   LIG A   1      -1.456   6.737 133.744  0.00  0.00    +0.003 C 
ATOM     12  C   LIG A   1      -0.724   5.924 132.667  0.00  0.00    +0.005 C 
ATOM     13  C   LIG A   1      -1.579   4.723 132.231  0.00  0.00    +0.008 C 
ATOM     14  C   LIG A   1      -0.572   7.781 134.532  0.00  0.00    -0.006 C 
ATOM     15  C   LIG A   1       0.640   7.090 135.220  0.00  0.00    +0.014 C 
ATOM     16  C   LIG A   1       0.052   8.860 133.610  0.00  0.00    +0.014 C 
ATOM     17  C   LIG A   1      -1.445   8.361 135.701  0.00  0.00    +0.120 C 
ATOM     18  C   LIG A   1      -2.886   8.753 135.362  0.00  0.00    +0.032 C 
ATOM     19  C   LIG A   1      -3.609   7.716 134.508  0.00  0.00    +0.010 C 
ATOM     20  C   LIG A   1      -6.778   4.068 132.058  0.00  0.00    +0.024 C 
ATOM     21  C   LIG A   1      -6.681   3.105 133.247  0.00  0.00    -0.025 C 
ATOM     22  C   LIG A   1      -5.299   3.330 133.904  0.00  0.00    +0.008 C 
ATOM     23  C   LIG A   1      -4.130   3.083 132.936  0.00  0.00    +0.012 C 
ATOM     24  C   LIG A   1      -6.771   1.597 132.929  0.00  0.00    +0.012 C 
ATOM     25  C   LIG A   1      -7.829   3.473 134.253  0.00  0.00    +0.007 C 
ATOM     26  C   LIG A   1      -8.835   4.584 133.843  0.00  0.00    +0.004 C 
ATOM     27  C   LIG A   1      -9.174   4.790 132.340  0.00  0.00    -0.011 C 
ATOM     28  C   LIG A   1      -8.173   4.114 131.363  0.00  0.00    -0.004 C 
ATOM     29  C   LIG A   1      -8.774   2.792 130.887  0.00  0.00    +0.008 C 
ATOM     30  C   LIG A   1      -9.283   6.298 132.029  0.00  0.00    +0.008 C 
ENDROOT
BRANCH  17  31
ATOM     31  O   LIG A   1      -0.801   9.464 136.339  0.00  0.00    -0.391 OA
ATOM     32  H   LIG A   1      -1.470  10.148 136.512  0.00  0.00    +0.210 HD
ENDBRANCH  17  31
TORSDOF 1
ENDMDL
MODEL 8
REMARK VINA RESULT:      -8.2      1.786      3.826
REMARK  Name = NuBBE_240
REMARK  9 active torsions:
REMARK  status: ('A' for Active; 'I' for Inactive)
REMARK    1  A    between atoms: C_1  and  C_2
REMARK    2  A    between atoms: C_3  and  C_4
REMARK    3  A    between atoms: C_10  and  C_11
REMARK    4  A    between atoms: C_16  and  C_17
REMARK    5  A    between atoms: C_16  and  C_18
REMARK    6  A    between atoms: C_19  and  O_23
REMARK    7  A    between atoms: C_26  and  C_29
REMARK    8  A    between atoms: C_32  and  C_37
REMARK    9  A    between atoms: C_34  and  C_36
REMARK                            x       y       z     vdW  Elec       q    Type
REMARK                         _______ _______ _______ _____ _____    ______ ____
ROOT
ATOM      1  C   LIG A   1      -3.800   2.704 131.883  0.00  0.00    +0.012 C 
ATOM      2  C   LIG A   1      -5.244   2.087 131.963  0.00  0.00    -0.019 C 
ATOM      3  C   LIG A   1      -5.206   0.425 132.032  0.00  0.00    -0.005 C 
ATOM      4  C   LIG A   1      -4.073  -0.001 133.001  0.00  0.00    +0.016 C 
ATOM      5  C   LIG A   1      -4.855  -0.175 130.620  0.00  0.00    -0.063 C 
ATOM      6  C   LIG A   1      -4.491   0.647 129.617  0.00  0.00    -0.026 C 
ATOM      7  C   LIG A   1      -5.138   2.002 129.461  0.00  0.00    +0.031 C 
ATOM      8  C   LIG A   1      -6.051   2.373 130.660  0.00  0.00    +0.006 C 
ATOM      9  C   LIG A   1      -6.833   3.725 130.470  0.00  0.00    -0.025 C 
ATOM     10  C   LIG A   1      -5.967   4.704 129.647  0.00  0.00    +0.012 C 
ATOM     11  C   LIG A   1      -7.373   4.277 131.840  0.00  0.00    +0.003 C 
ATOM     12  C   LIG A   1      -6.305   4.237 132.942  0.00  0.00    +0.005 C 
ATOM     13  C   LIG A   1      -5.862   2.789 133.206  0.00  0.00    +0.008 C 
ATOM     14  C   LIG A   1      -8.168   5.635 131.707  0.00  0.00    -0.006 C 
ATOM     15  C   LIG A   1      -8.869   6.013 133.042  0.00  0.00    +0.014 C 
ATOM     16  C   LIG A   1      -7.250   6.840 131.379  0.00  0.00    +0.014 C 
ATOM     17  C   LIG A   1      -9.327   5.410 130.671  0.00  0.00    +0.120 C 
ATOM     18  C   LIG A   1      -8.974   4.656 129.386  0.00  0.00    +0.032 C 
ATOM     19  C   LIG A   1      -8.114   3.419 129.629  0.00  0.00    +0.010 C 
ATOM     20  C   LIG A   1      -5.639  -1.383 130.038  0.00  0.00    +0.024 C 
ATOM     21  C   LIG A   1      -6.830  -1.994 130.784  0.00  0.00    -0.025 C 
ATOM     22  C   LIG A   1      -7.500  -0.853 131.585  0.00  0.00    +0.008 C 
ATOM     23  C   LIG A   1      -6.544  -0.185 132.587  0.00  0.00    +0.012 C 
ATOM     24  C   LIG A   1      -6.514  -3.111 131.801  0.00  0.00    +0.012 C 
ATOM     25  C   LIG A   1      -7.825  -2.563 129.710  0.00  0.00    +0.007 C 
ATOM     26  C   LIG A   1      -7.402  -2.502 128.216  0.00  0.00    +0.004 C 
ATOM     27  C   LIG A   1      -5.896  -2.591 127.843  0.00  0.00    -0.011 C 
ATOM     28  C   LIG A   1      -4.930  -2.343 129.035  0.00  0.00    -0.004 C 
ATOM     29  C   LIG A   1      -4.450  -3.694 129.563  0.00  0.00    +0.008 C 
ATOM     30  C   LIG A   1      -5.581  -1.612 126.692  0.00  0.00    +0.008 C 
ENDROOT
BRANCH  17  31
ATOM     31  O   LIG A   1      -9.970   6.637 130.329  0.00  0.00    -0.391 OA
ATOM     32  H   LIG A   1     -10.909   6.566 130.570  0.00  0.00    +0.210 HD
ENDBRANCH  17  31
TORSDOF 1
ENDMDL
MODEL 9
REMARK VINA RESULT:      -8.2      2.420      5.066
REMARK  Name = NuBBE_240
REMARK  9 active torsions:
REMARK  status: ('A' for Active; 'I' for Inactive)
REMARK    1  A    between atoms: C_1  and  C_2
REMARK    2  A    between atoms: C_3  and  C_4
REMARK    3  A    between atoms: C_10  and  C_11
REMARK    4  A    between atoms: C_16  and  C_17
REMARK    5  A    between atoms: C_16  and  C_18
REMARK    6  A    between atoms: C_19  and  O_23
REMARK    7  A    between atoms: C_26  and  C_29
REMARK    8  A    between atoms: C_32  and  C_37
REMARK    9  A    between atoms: C_34  and  C_36
REMARK                            x       y       z     vdW  Elec       q    Type
REMARK                         _______ _______ _______ _____ _____    ______ ____
ROOT
ATOM      1  C   LIG A   1      -4.232   2.405 130.477  0.00  0.00    +0.012 C 
ATOM      2  C   LIG A   1      -5.637   1.704 130.405  0.00  0.00    -0.019 C 
ATOM      3  C   LIG A   1      -5.590   0.311 129.497  0.00  0.00    -0.005 C 
ATOM      4  C   LIG A   1      -4.299  -0.468 129.856  0.00  0.00    +0.016 C 
ATOM      5  C   LIG A   1      -5.509   0.657 127.964  0.00  0.00    -0.063 C 
ATOM      6  C   LIG A   1      -5.336   1.936 127.577  0.00  0.00    -0.026 C 
ATOM      7  C   LIG A   1      -5.997   3.064 128.331  0.00  0.00    +0.031 C 
ATOM      8  C   LIG A   1      -6.671   2.591 129.648  0.00  0.00    +0.006 C 
ATOM      9  C   LIG A   1      -7.472   3.721 130.394  0.00  0.00    -0.025 C 
ATOM     10  C   LIG A   1      -6.772   5.079 130.165  0.00  0.00    +0.012 C 
ATOM     11  C   LIG A   1      -7.748   3.338 131.895  0.00  0.00    +0.003 C 
ATOM     12  C   LIG A   1      -6.494   2.794 132.593  0.00  0.00    +0.005 C 
ATOM     13  C   LIG A   1      -6.013   1.508 131.902  0.00  0.00    +0.008 C 
ATOM     14  C   LIG A   1      -8.550   4.440 132.692  0.00  0.00    -0.006 C 
ATOM     15  C   LIG A   1      -8.991   3.919 134.089  0.00  0.00    +0.014 C 
ATOM     16  C   LIG A   1      -7.707   5.707 132.984  0.00  0.00    +0.014 C 
ATOM     17  C   LIG A   1      -9.882   4.721 131.908  0.00  0.00    +0.120 C 
ATOM     18  C   LIG A   1      -9.775   4.871 130.388  0.00  0.00    +0.032 C 
ATOM     19  C   LIG A   1      -8.888   3.813 129.738  0.00  0.00    +0.010 C 
ATOM     20  C   LIG A   1      -6.389  -0.082 126.921  0.00  0.00    +0.024 C 
ATOM     21  C   LIG A   1      -7.423  -1.130 127.349  0.00  0.00    -0.025 C 
ATOM     22  C   LIG A   1      -7.931  -0.722 128.752  0.00  0.00    +0.008 C 
ATOM     23  C   LIG A   1      -6.804  -0.644 129.795  0.00  0.00    +0.012 C 
ATOM     24  C   LIG A   1      -6.926  -2.586 127.472  0.00  0.00    +0.012 C 
ATOM     25  C   LIG A   1      -8.601  -1.091 126.310  0.00  0.00    +0.007 C 
ATOM     26  C   LIG A   1      -8.462  -0.149 125.082  0.00  0.00    +0.004 C 
ATOM     27  C   LIG A   1      -7.052   0.148 124.501  0.00  0.00    -0.011 C 
ATOM     28  C   LIG A   1      -5.881  -0.224 125.454  0.00  0.00    -0.004 C 
ATOM     29  C   LIG A   1      -5.314  -1.576 125.025  0.00  0.00    +0.008 C 
ATOM     30  C   LIG A   1      -6.954   1.633 124.094  0.00  0.00    +0.008 C 
ENDROOT
BRANCH  17  31
ATOM     31  O   LIG A   1     -10.575   5.850 132.439  0.00  0.00    -0.391 OA
ATOM     32  H   LIG A   1     -11.340   6.034 131.868  0.00  0.00    +0.210 HD
ENDBRANCH  17  31
TORSDOF 1
ENDMDL
