MODEL 1
REMARK VINA RESULT:      -4.9      0.000      0.000
REMARK  Name = NuBBE_1775
REMARK  9 active torsions:
REMARK  status: ('A' for Active; 'I' for Inactive)
REMARK    1  A    between atoms: C_1  and  C_2
REMARK    2  A    between atoms: C_1  and  C_9
REMARK    3  A    between atoms: C_2  and  C_4
REMARK    4  A    between atoms: C_2  and  O_8
REMARK    5  A    between atoms: C_4  and  C_5
REMARK    6  A    between atoms: C_5  and  C_6
REMARK    7  A    between atoms: C_6  and  C_7
REMARK    8  A    between atoms: C_9  and  C_10
REMARK    9  A    between atoms: C_9  and  C_11
REMARK                            x       y       z     vdW  Elec       q    Type
REMARK                         _______ _______ _______ _____ _____    ______ ____
ROOT
ATOM      1  C   LIG A   1      -9.009  -2.846 124.498  0.00  0.00    +0.115 C 
ENDROOT
BRANCH   1   2
ATOM      2  O   LIG A   1      -9.971  -3.339 123.566  0.00  0.00    -0.392 OA
ATOM      3  H   LIG A   1      -9.905  -2.805 122.746  0.00  0.00    +0.210 HD
ENDBRANCH   1   2
BRANCH   1   4
ATOM      4  C   LIG A   1      -7.676  -3.571 124.237  0.00  0.00    +0.034 C 
BRANCH   4   5
ATOM      5  C   LIG A   1      -6.435  -2.700 123.944  0.00  0.00    -0.015 C 
ATOM      6  C   LIG A   1      -5.187  -3.590 123.889  0.00  0.00    +0.007 C 
ATOM      7  C   LIG A   1      -6.537  -1.909 122.639  0.00  0.00    +0.007 C 
ENDBRANCH   4   5
ENDBRANCH   1   4
BRANCH   1   8
ATOM      8  C   LIG A   1      -9.544  -3.042 125.924  0.00  0.00    +0.031 C 
BRANCH   8   9
ATOM      9  C   LIG A   1      -8.470  -2.841 127.006  0.00  0.00    +0.002 C 
BRANCH   9  10
ATOM     10  C   LIG A   1      -8.755  -3.727 128.223  0.00  0.00    -0.003 C 
ATOM     11  C   LIG A   1      -8.027  -3.245 129.468  0.00  0.00    +0.004 C 
ENDBRANCH   9  10
ENDBRANCH   8   9
ENDBRANCH   1   8
TORSDOF 6
ENDMDL
MODEL 2
REMARK VINA RESULT:      -4.9     11.123     12.071
REMARK  Name = NuBBE_1775
REMARK  9 active torsions:
REMARK  status: ('A' for Active; 'I' for Inactive)
REMARK    1  A    between atoms: C_1  and  C_2
REMARK    2  A    between atoms: C_1  and  C_9
REMARK    3  A    between atoms: C_2  and  C_4
REMARK    4  A    between atoms: C_2  and  O_8
REMARK    5  A    between atoms: C_4  and  C_5
REMARK    6  A    between atoms: C_5  and  C_6
REMARK    7  A    between atoms: C_6  and  C_7
REMARK    8  A    between atoms: C_9  and  C_10
REMARK    9  A    between atoms: C_9  and  C_11
REMARK                            x       y       z     vdW  Elec       q    Type
REMARK                         _______ _______ _______ _____ _____    ______ ____
ROOT
ATOM      1  C   LIG A   1     -10.600   7.103 128.446  0.00  0.00    +0.115 C 
ENDROOT
BRANCH   1   2
ATOM      2  O   LIG A   1      -9.752   6.426 127.518  0.00  0.00    -0.392 OA
ATOM      3  H   LIG A   1      -9.224   5.765 128.012  0.00  0.00    +0.210 HD
ENDBRANCH   1   2
BRANCH   1   4
ATOM      4  C   LIG A   1     -11.318   8.239 127.694  0.00  0.00    +0.034 C 
BRANCH   4   5
ATOM      5  C   LIG A   1     -12.789   8.524 128.068  0.00  0.00    -0.015 C 
ATOM      6  C   LIG A   1     -13.514   7.199 128.337  0.00  0.00    +0.007 C 
ATOM      7  C   LIG A   1     -12.947   9.432 129.289  0.00  0.00    +0.007 C 
ENDBRANCH   4   5
ENDBRANCH   1   4
BRANCH   1   8
ATOM      8  C   LIG A   1      -9.757   7.592 129.632  0.00  0.00    +0.031 C 
BRANCH   8   9
ATOM      9  C   LIG A   1      -9.756   6.611 130.818  0.00  0.00    +0.002 C 
BRANCH   9  10
ATOM     10  C   LIG A   1     -11.122   5.934 130.962  0.00  0.00    -0.003 C 
ATOM     11  C   LIG A   1     -12.111   6.794 131.734  0.00  0.00    +0.004 C 
ENDBRANCH   9  10
ENDBRANCH   8   9
ENDBRANCH   1   8
TORSDOF 6
ENDMDL
MODEL 3
REMARK VINA RESULT:      -4.8      1.034      4.372
REMARK  Name = NuBBE_1775
REMARK  9 active torsions:
REMARK  status: ('A' for Active; 'I' for Inactive)
REMARK    1  A    between atoms: C_1  and  C_2
REMARK    2  A    between atoms: C_1  and  C_9
REMARK    3  A    between atoms: C_2  and  C_4
REMARK    4  A    between atoms: C_2  and  O_8
REMARK    5  A    between atoms: C_4  and  C_5
REMARK    6  A    between atoms: C_5  and  C_6
REMARK    7  A    between atoms: C_6  and  C_7
REMARK    8  A    between atoms: C_9  and  C_10
REMARK    9  A    between atoms: C_9  and  C_11
REMARK                            x       y       z     vdW  Elec       q    Type
REMARK                         _______ _______ _______ _____ _____    ______ ____
ROOT
ATOM      1  C   LIG A   1      -8.955  -3.499 124.378  0.00  0.00    +0.115 C 
ENDROOT
BRANCH   1   2
ATOM      2  O   LIG A   1     -10.039  -3.276 123.475  0.00  0.00    -0.392 OA
ATOM      3  H   LIG A   1     -10.133  -2.310 123.343  0.00  0.00    +0.210 HD
ENDBRANCH   1   2
BRANCH   1   4
ATOM      4  C   LIG A   1      -9.337  -2.893 125.740  0.00  0.00    +0.034 C 
BRANCH   4   5
ATOM      5  C   LIG A   1      -8.466  -3.270 126.959  0.00  0.00    -0.015 C 
ATOM      6  C   LIG A   1      -7.894  -1.996 127.593  0.00  0.00    +0.007 C 
ATOM      7  C   LIG A   1      -9.221  -4.061 128.029  0.00  0.00    +0.007 C 
ENDBRANCH   4   5
ENDBRANCH   1   4
BRANCH   1   8
ATOM      8  C   LIG A   1      -7.673  -2.902 123.780  0.00  0.00    +0.031 C 
BRANCH   8   9
ATOM      9  C   LIG A   1      -6.390  -3.516 124.364  0.00  0.00    +0.002 C 
BRANCH   9  10
ATOM     10  C   LIG A   1      -5.178  -3.164 123.497  0.00  0.00    -0.003 C 
ATOM     11  C   LIG A   1      -4.129  -4.266 123.500  0.00  0.00    +0.004 C 
ENDBRANCH   9  10
ENDBRANCH   8   9
ENDBRANCH   1   8
TORSDOF 6
ENDMDL
MODEL 4
REMARK VINA RESULT:      -4.7     11.353     12.349
REMARK  Name = NuBBE_1775
REMARK  9 active torsions:
REMARK  status: ('A' for Active; 'I' for Inactive)
REMARK    1  A    between atoms: C_1  and  C_2
REMARK    2  A    between atoms: C_1  and  C_9
REMARK    3  A    between atoms: C_2  and  C_4
REMARK    4  A    between atoms: C_2  and  O_8
REMARK    5  A    between atoms: C_4  and  C_5
REMARK    6  A    between atoms: C_5  and  C_6
REMARK    7  A    between atoms: C_6  and  C_7
REMARK    8  A    between atoms: C_9  and  C_10
REMARK    9  A    between atoms: C_9  and  C_11
REMARK                            x       y       z     vdW  Elec       q    Type
REMARK                         _______ _______ _______ _____ _____    ______ ____
ROOT
ATOM      1  C   LIG A   1     -11.639   6.927 131.116  0.00  0.00    +0.115 C 
ENDROOT
BRANCH   1   2
ATOM      2  O   LIG A   1     -11.968   5.890 132.041  0.00  0.00    -0.392 OA
ATOM      3  H   LIG A   1     -12.870   5.568 131.831  0.00  0.00    +0.210 HD
ENDBRANCH   1   2
BRANCH   1   4
ATOM      4  C   LIG A   1     -12.936   7.366 130.412  0.00  0.00    +0.034 C 
BRANCH   4   5
ATOM      5  C   LIG A   1     -12.827   7.832 128.943  0.00  0.00    -0.015 C 
ATOM      6  C   LIG A   1     -13.821   7.042 128.081  0.00  0.00    +0.007 C 
ATOM      7  C   LIG A   1     -13.087   9.328 128.755  0.00  0.00    +0.007 C 
ENDBRANCH   4   5
ENDBRANCH   1   4
BRANCH   1   8
ATOM      8  C   LIG A   1     -10.560   6.417 130.151  0.00  0.00    +0.031 C 
BRANCH   8   9
ATOM      9  C   LIG A   1      -9.232   7.184 130.268  0.00  0.00    +0.002 C 
BRANCH   9  10
ATOM     10  C   LIG A   1      -8.367   6.600 131.389  0.00  0.00    -0.003 C 
ATOM     11  C   LIG A   1      -6.887   6.884 131.181  0.00  0.00    +0.004 C 
ENDBRANCH   9  10
ENDBRANCH   8   9
ENDBRANCH   1   8
TORSDOF 6
ENDMDL
MODEL 5
REMARK VINA RESULT:      -4.6     11.431     12.467
REMARK  Name = NuBBE_1775
REMARK  9 active torsions:
REMARK  status: ('A' for Active; 'I' for Inactive)
REMARK    1  A    between atoms: C_1  and  C_2
REMARK    2  A    between atoms: C_1  and  C_9
REMARK    3  A    between atoms: C_2  and  C_4
REMARK    4  A    between atoms: C_2  and  O_8
REMARK    5  A    between atoms: C_4  and  C_5
REMARK    6  A    between atoms: C_5  and  C_6
REMARK    7  A    between atoms: C_6  and  C_7
REMARK    8  A    between atoms: C_9  and  C_10
REMARK    9  A    between atoms: C_9  and  C_11
REMARK                            x       y       z     vdW  Elec       q    Type
REMARK                         _______ _______ _______ _____ _____    ______ ____
ROOT
ATOM      1  C   LIG A   1     -12.068   7.039 127.870  0.00  0.00    +0.115 C 
ENDROOT
BRANCH   1   2
ATOM      2  O   LIG A   1     -12.431   6.629 126.551  0.00  0.00    -0.392 OA
ATOM      3  H   LIG A   1     -12.021   5.756 126.379  0.00  0.00    +0.210 HD
ENDBRANCH   1   2
BRANCH   1   4
ATOM      4  C   LIG A   1     -12.833   8.336 128.193  0.00  0.00    +0.034 C 
BRANCH   4   5
ATOM      5  C   LIG A   1     -12.583   8.988 129.570  0.00  0.00    -0.015 C 
ATOM      6  C   LIG A   1     -13.353  10.312 129.657  0.00  0.00    +0.007 C 
ATOM      7  C   LIG A   1     -12.986   8.102 130.750  0.00  0.00    +0.007 C 
ENDBRANCH   4   5
ENDBRANCH   1   4
BRANCH   1   8
ATOM      8  C   LIG A   1     -10.543   7.194 127.946  0.00  0.00    +0.031 C 
BRANCH   8   9
ATOM      9  C   LIG A   1      -9.912   6.413 129.111  0.00  0.00    +0.002 C 
BRANCH   9  10
ATOM     10  C   LIG A   1      -9.318   7.371 130.147  0.00  0.00    -0.003 C 
ATOM     11  C   LIG A   1      -8.260   6.701 131.010  0.00  0.00    +0.004 C 
ENDBRANCH   9  10
ENDBRANCH   8   9
ENDBRANCH   1   8
TORSDOF 6
ENDMDL
MODEL 6
REMARK VINA RESULT:      -4.5     11.064     11.896
REMARK  Name = NuBBE_1775
REMARK  9 active torsions:
REMARK  status: ('A' for Active; 'I' for Inactive)
REMARK    1  A    between atoms: C_1  and  C_2
REMARK    2  A    between atoms: C_1  and  C_9
REMARK    3  A    between atoms: C_2  and  C_4
REMARK    4  A    between atoms: C_2  and  O_8
REMARK    5  A    between atoms: C_4  and  C_5
REMARK    6  A    between atoms: C_5  and  C_6
REMARK    7  A    between atoms: C_6  and  C_7
REMARK    8  A    between atoms: C_9  and  C_10
REMARK    9  A    between atoms: C_9  and  C_11
REMARK                            x       y       z     vdW  Elec       q    Type
REMARK                         _______ _______ _______ _____ _____    ______ ____
ROOT
ATOM      1  C   LIG A   1     -11.868   5.893 130.255  0.00  0.00    +0.115 C 
ENDROOT
BRANCH   1   2
ATOM      2  O   LIG A   1     -11.006   4.923 129.660  0.00  0.00    -0.392 OA
ATOM      3  H   LIG A   1     -10.909   4.175 130.286  0.00  0.00    +0.210 HD
ENDBRANCH   1   2
BRANCH   1   4
ATOM      4  C   LIG A   1     -12.313   6.874 129.154  0.00  0.00    +0.034 C 
BRANCH   4   5
ATOM      5  C   LIG A   1     -11.776   8.320 129.228  0.00  0.00    -0.015 C 
ATOM      6  C   LIG A   1     -10.751   8.543 128.109  0.00  0.00    +0.007 C 
ATOM      7  C   LIG A   1     -12.869   9.385 129.119  0.00  0.00    +0.007 C 
ENDBRANCH   4   5
ENDBRANCH   1   4
BRANCH   1   8
ATOM      8  C   LIG A   1     -11.134   6.572 131.419  0.00  0.00    +0.031 C 
BRANCH   8   9
ATOM      9  C   LIG A   1      -9.683   6.088 131.583  0.00  0.00    +0.002 C 
BRANCH   9  10
ATOM     10  C   LIG A   1      -8.715   7.023 130.851  0.00  0.00    -0.003 C 
ATOM     11  C   LIG A   1      -7.262   6.727 131.192  0.00  0.00    +0.004 C 
ENDBRANCH   9  10
ENDBRANCH   8   9
ENDBRANCH   1   8
TORSDOF 6
ENDMDL
MODEL 7
REMARK VINA RESULT:      -4.4      2.363      3.234
REMARK  Name = NuBBE_1775
REMARK  9 active torsions:
REMARK  status: ('A' for Active; 'I' for Inactive)
REMARK    1  A    between atoms: C_1  and  C_2
REMARK    2  A    between atoms: C_1  and  C_9
REMARK    3  A    between atoms: C_2  and  C_4
REMARK    4  A    between atoms: C_2  and  O_8
REMARK    5  A    between atoms: C_4  and  C_5
REMARK    6  A    between atoms: C_5  and  C_6
REMARK    7  A    between atoms: C_6  and  C_7
REMARK    8  A    between atoms: C_9  and  C_10
REMARK    9  A    between atoms: C_9  and  C_11
REMARK                            x       y       z     vdW  Elec       q    Type
REMARK                         _______ _______ _______ _____ _____    ______ ____
ROOT
ATOM      1  C   LIG A   1      -6.784  -2.394 126.111  0.00  0.00    +0.115 C 
ENDROOT
BRANCH   1   2
ATOM      2  O   LIG A   1      -6.284  -2.491 127.445  0.00  0.00    -0.392 OA
ATOM      3  H   LIG A   1      -7.046  -2.460 128.060  0.00  0.00    +0.210 HD
ENDBRANCH   1   2
BRANCH   1   4
ATOM      4  C   LIG A   1      -5.759  -1.606 125.275  0.00  0.00    +0.034 C 
BRANCH   4   5
ATOM      5  C   LIG A   1      -5.356  -2.191 123.904  0.00  0.00    -0.015 C 
ATOM      6  C   LIG A   1      -5.278  -3.720 124.003  0.00  0.00    +0.007 C 
ATOM      7  C   LIG A   1      -6.314  -1.815 122.772  0.00  0.00    +0.007 C 
ENDBRANCH   4   5
ENDBRANCH   1   4
BRANCH   1   8
ATOM      8  C   LIG A   1      -8.176  -1.748 126.142  0.00  0.00    +0.031 C 
BRANCH   8   9
ATOM      9  C   LIG A   1      -9.312  -2.744 125.852  0.00  0.00    +0.002 C 
BRANCH   9  10
ATOM     10  C   LIG A   1      -8.925  -3.689 124.711  0.00  0.00    -0.003 C 
ATOM     11  C   LIG A   1      -9.585  -3.303 123.396  0.00  0.00    +0.004 C 
ENDBRANCH   9  10
ENDBRANCH   8   9
ENDBRANCH   1   8
TORSDOF 6
ENDMDL
MODEL 8
REMARK VINA RESULT:      -4.4     10.751     12.034
REMARK  Name = NuBBE_1775
REMARK  9 active torsions:
REMARK  status: ('A' for Active; 'I' for Inactive)
REMARK    1  A    between atoms: C_1  and  C_2
REMARK    2  A    between atoms: C_1  and  C_9
REMARK    3  A    between atoms: C_2  and  C_4
REMARK    4  A    between atoms: C_2  and  O_8
REMARK    5  A    between atoms: C_4  and  C_5
REMARK    6  A    between atoms: C_5  and  C_6
REMARK    7  A    between atoms: C_6  and  C_7
REMARK    8  A    between atoms: C_9  and  C_10
REMARK    9  A    between atoms: C_9  and  C_11
REMARK                            x       y       z     vdW  Elec       q    Type
REMARK                         _______ _______ _______ _____ _____    ______ ____
ROOT
ATOM      1  C   LIG A   1     -11.443   6.700 130.009  0.00  0.00    +0.115 C 
ENDROOT
BRANCH   1   2
ATOM      2  O   LIG A   1     -11.971   5.484 129.478  0.00  0.00    -0.392 OA
ATOM      3  H   LIG A   1     -11.269   5.053 128.946  0.00  0.00    +0.210 HD
ENDBRANCH   1   2
BRANCH   1   4
ATOM      4  C   LIG A   1     -11.054   6.449 131.477  0.00  0.00    +0.034 C 
BRANCH   4   5
ATOM      5  C   LIG A   1      -9.549   6.327 131.806  0.00  0.00    -0.015 C 
ATOM      6  C   LIG A   1      -9.169   4.845 131.920  0.00  0.00    +0.007 C 
ATOM      7  C   LIG A   1      -8.641   6.994 130.771  0.00  0.00    +0.007 C 
ENDBRANCH   4   5
ENDBRANCH   1   4
BRANCH   1   8
ATOM      8  C   LIG A   1     -12.482   7.817 129.834  0.00  0.00    +0.031 C 
BRANCH   8   9
ATOM      9  C   LIG A   1     -12.132   8.797 128.701  0.00  0.00    +0.002 C 
BRANCH   9  10
ATOM     10  C   LIG A   1     -10.779   8.441 128.077  0.00  0.00    -0.003 C 
ATOM     11  C   LIG A   1     -10.925   7.867 126.677  0.00  0.00    +0.004 C 
ENDBRANCH   9  10
ENDBRANCH   8   9
ENDBRANCH   1   8
TORSDOF 6
ENDMDL
MODEL 9
REMARK VINA RESULT:      -4.3     10.574     11.617
REMARK  Name = NuBBE_1775
REMARK  9 active torsions:
REMARK  status: ('A' for Active; 'I' for Inactive)
REMARK    1  A    between atoms: C_1  and  C_2
REMARK    2  A    between atoms: C_1  and  C_9
REMARK    3  A    between atoms: C_2  and  C_4
REMARK    4  A    between atoms: C_2  and  O_8
REMARK    5  A    between atoms: C_4  and  C_5
REMARK    6  A    between atoms: C_5  and  C_6
REMARK    7  A    between atoms: C_6  and  C_7
REMARK    8  A    between atoms: C_9  and  C_10
REMARK    9  A    between atoms: C_9  and  C_11
REMARK                            x       y       z     vdW  Elec       q    Type
REMARK                         _______ _______ _______ _____ _____    ______ ____
ROOT
ATOM      1  C   LIG A   1     -11.448   6.951 130.915  0.00  0.00    +0.115 C 
ENDROOT
BRANCH   1   2
ATOM      2  O   LIG A   1     -12.306   6.249 131.815  0.00  0.00    -0.392 OA
ATOM      3  H   LIG A   1     -13.233   6.480 131.597  0.00  0.00    +0.210 HD
ENDBRANCH   1   2
BRANCH   1   4
ATOM      4  C   LIG A   1     -11.975   6.731 129.485  0.00  0.00    +0.034 C 
BRANCH   4   5
ATOM      5  C   LIG A   1     -12.132   7.974 128.583  0.00  0.00    -0.015 C 
ATOM      6  C   LIG A   1     -12.740   9.124 129.397  0.00  0.00    +0.007 C 
ATOM      7  C   LIG A   1     -10.817   8.448 127.960  0.00  0.00    +0.007 C 
ENDBRANCH   4   5
ENDBRANCH   1   4
BRANCH   1   8
ATOM      8  C   LIG A   1     -10.005   6.468 131.117  0.00  0.00    +0.031 C 
BRANCH   8   9
ATOM      9  C   LIG A   1      -9.477   5.630 129.940  0.00  0.00    +0.002 C 
BRANCH   9  10
ATOM     10  C   LIG A   1      -9.229   4.183 130.374  0.00  0.00    -0.003 C 
ATOM     11  C   LIG A   1     -10.524   3.401 130.532  0.00  0.00    +0.004 C 
ENDBRANCH   9  10
ENDBRANCH   8   9
ENDBRANCH   1   8
TORSDOF 6
ENDMDL
