MODEL 1
REMARK VINA RESULT:      -6.3      0.000      0.000
REMARK  Name = NuBBE_1956
REMARK  9 active torsions:
REMARK  status: ('A' for Active; 'I' for Inactive)
REMARK    1  A    between atoms: O_1  and  C_2
REMARK    2  A    between atoms: O_1  and  C_3
REMARK    3  A    between atoms: C_6  and  O_7
REMARK    4  A    between atoms: O_7  and  C_8
REMARK    5  A    between atoms: C_16  and  C_17
REMARK    6  A    between atoms: C_17  and  C_18
REMARK    7  A    between atoms: C_18  and  C_19
REMARK    8  A    between atoms: C_18  and  O_22
REMARK    9  A    between atoms: C_19  and  C_21
REMARK                            x       y       z     vdW  Elec       q    Type
REMARK                         _______ _______ _______ _____ _____    ______ ____
ROOT
ATOM      1  C   LIG A   1      -9.747   5.873 131.077  0.00  0.00    +0.138 A 
ATOM      2  C   LIG A   1      -9.202   4.681 131.747  0.00  0.00    +0.044 A 
ATOM      3  C   LIG A   1      -8.521   3.730 130.980  0.00  0.00    +0.095 A 
ATOM      4  C   LIG A   1      -8.044   2.537 131.540  0.00  0.00    +0.144 A 
ATOM      5  C   LIG A   1      -8.241   2.302 132.900  0.00  0.00    +0.048 A 
ATOM      6  C   LIG A   1      -8.906   3.249 133.683  0.00  0.00    +0.004 A 
ATOM      7  C   LIG A   1      -9.381   4.433 133.114  0.00  0.00    +0.014 A 
ATOM      8  N   LIG A   1      -8.331   3.970 129.608  0.00  0.00    -0.319 N 
ATOM      9  H   LIG A   1      -7.808   3.279 129.076  0.00  0.00    +0.169 HD
ATOM     10  C   LIG A   1      -8.814   5.044 128.949  0.00  0.00    +0.256 A 
ATOM     11  O   LIG A   1      -8.607   5.215 127.743  0.00  0.00    -0.268 OA
ATOM     12  C   LIG A   1      -9.608   6.032 129.742  0.00  0.00    +0.062 A 
ENDROOT
BRANCH   1  13
ATOM     13  O   LIG A   1     -10.336   6.817 131.894  0.00  0.00    -0.494 OA
ATOM     14  C   LIG A   1     -11.756   6.698 131.957  0.00  0.00    +0.277 C 
ENDBRANCH   1  13
BRANCH   4  15
ATOM     15  O   LIG A   1      -7.387   1.688 130.684  0.00  0.00    -0.493 OA
ATOM     16  C   LIG A   1      -8.089   0.504 130.325  0.00  0.00    +0.277 C 
ENDBRANCH   4  15
BRANCH  12  17
ATOM     17  C   LIG A   1     -10.151   7.192 128.955  0.00  0.00    +0.080 C 
BRANCH  17  18
ATOM     18  C   LIG A   1     -11.475   6.862 128.218  0.00  0.00    +0.144 C 
BRANCH  18  19
ATOM     19  C   LIG A   1     -12.575   7.895 128.408  0.00  0.00    -0.051 C 
ATOM     20  C   LIG A   1     -12.437   9.023 129.129  0.00  0.00    +0.010 C 
ATOM     21  C   LIG A   1     -13.887   7.593 127.731  0.00  0.00    +0.041 C 
ENDBRANCH  18  19
BRANCH  18  22
ATOM     22  O   LIG A   1     -11.282   6.711 126.812  0.00  0.00    -0.387 OA
ATOM     23  H   LIG A   1     -11.855   7.358 126.354  0.00  0.00    +0.210 HD
ENDBRANCH  18  22
ENDBRANCH  17  18
ENDBRANCH  12  17
TORSDOF 6
ENDMDL
MODEL 2
REMARK VINA RESULT:      -6.3      6.904      8.313
REMARK  Name = NuBBE_1956
REMARK  9 active torsions:
REMARK  status: ('A' for Active; 'I' for Inactive)
REMARK    1  A    between atoms: O_1  and  C_2
REMARK    2  A    between atoms: O_1  and  C_3
REMARK    3  A    between atoms: C_6  and  O_7
REMARK    4  A    between atoms: O_7  and  C_8
REMARK    5  A    between atoms: C_16  and  C_17
REMARK    6  A    between atoms: C_17  and  C_18
REMARK    7  A    between atoms: C_18  and  C_19
REMARK    8  A    between atoms: C_18  and  O_22
REMARK    9  A    between atoms: C_19  and  C_21
REMARK                            x       y       z     vdW  Elec       q    Type
REMARK                         _______ _______ _______ _____ _____    ______ ____
ROOT
ATOM      1  C   LIG A   1      -8.670  -1.763 125.218  0.00  0.00    +0.138 A 
ATOM      2  C   LIG A   1      -8.401  -2.368 126.532  0.00  0.00    +0.044 A 
ATOM      3  C   LIG A   1      -7.358  -1.853 127.310  0.00  0.00    +0.095 A 
ATOM      4  C   LIG A   1      -6.997  -2.429 128.535  0.00  0.00    +0.144 A 
ATOM      5  C   LIG A   1      -7.710  -3.535 128.997  0.00  0.00    +0.048 A 
ATOM      6  C   LIG A   1      -8.764  -4.053 128.239  0.00  0.00    +0.004 A 
ATOM      7  C   LIG A   1      -9.111  -3.473 127.018  0.00  0.00    +0.014 A 
ATOM      8  N   LIG A   1      -6.639  -0.741 126.835  0.00  0.00    -0.319 N 
ATOM      9  H   LIG A   1      -5.905  -0.366 127.429  0.00  0.00    +0.169 HD
ATOM     10  C   LIG A   1      -6.847  -0.155 125.637  0.00  0.00    +0.256 A 
ATOM     11  O   LIG A   1      -6.196   0.830 125.273  0.00  0.00    -0.268 OA
ATOM     12  C   LIG A   1      -7.909  -0.743 124.765  0.00  0.00    +0.062 A 
ENDROOT
BRANCH   1  13
ATOM     13  O   LIG A   1      -9.762  -2.256 124.531  0.00  0.00    -0.494 OA
ATOM     14  C   LIG A   1      -9.414  -3.228 123.547  0.00  0.00    +0.277 C 
ENDBRANCH   1  13
BRANCH   4  15
ATOM     15  O   LIG A   1      -5.961  -1.828 129.205  0.00  0.00    -0.493 OA
ATOM     16  C   LIG A   1      -4.740  -2.556 129.240  0.00  0.00    +0.277 C 
ENDBRANCH   4  15
BRANCH  12  17
ATOM     17  C   LIG A   1      -8.077  -0.074 123.428  0.00  0.00    +0.080 C 
BRANCH  17  18
ATOM     18  C   LIG A   1      -9.258   0.930 123.393  0.00  0.00    +0.144 C 
BRANCH  18  19
ATOM     19  C   LIG A   1      -8.842   2.386 123.256  0.00  0.00    -0.051 C 
ATOM     20  C   LIG A   1      -8.653   3.012 122.080  0.00  0.00    +0.010 C 
ATOM     21  C   LIG A   1      -8.634   3.136 124.547  0.00  0.00    +0.041 C 
ENDBRANCH  18  19
BRANCH  18  22
ATOM     22  O   LIG A   1     -10.165   0.653 122.327  0.00  0.00    -0.387 OA
ATOM     23  H   LIG A   1     -11.070   0.620 122.697  0.00  0.00    +0.210 HD
ENDBRANCH  18  22
ENDBRANCH  17  18
ENDBRANCH  12  17
TORSDOF 6
ENDMDL
MODEL 3
REMARK VINA RESULT:      -6.2      6.291      9.377
REMARK  Name = NuBBE_1956
REMARK  9 active torsions:
REMARK  status: ('A' for Active; 'I' for Inactive)
REMARK    1  A    between atoms: O_1  and  C_2
REMARK    2  A    between atoms: O_1  and  C_3
REMARK    3  A    between atoms: C_6  and  O_7
REMARK    4  A    between atoms: O_7  and  C_8
REMARK    5  A    between atoms: C_16  and  C_17
REMARK    6  A    between atoms: C_17  and  C_18
REMARK    7  A    between atoms: C_18  and  C_19
REMARK    8  A    between atoms: C_18  and  O_22
REMARK    9  A    between atoms: C_19  and  C_21
REMARK                            x       y       z     vdW  Elec       q    Type
REMARK                         _______ _______ _______ _____ _____    ______ ____
ROOT
ATOM      1  C   LIG A   1      -7.673   1.181 125.439  0.00  0.00    +0.138 A 
ATOM      2  C   LIG A   1      -7.017   2.243 124.660  0.00  0.00    +0.044 A 
ATOM      3  C   LIG A   1      -7.465   2.497 123.359  0.00  0.00    +0.095 A 
ATOM      4  C   LIG A   1      -6.836   3.440 122.535  0.00  0.00    +0.144 A 
ATOM      5  C   LIG A   1      -5.747   4.154 123.033  0.00  0.00    +0.048 A 
ATOM      6  C   LIG A   1      -5.297   3.923 124.336  0.00  0.00    +0.004 A 
ATOM      7  C   LIG A   1      -5.929   2.978 125.147  0.00  0.00    +0.014 A 
ATOM      8  N   LIG A   1      -8.559   1.770 122.860  0.00  0.00    -0.319 N 
ATOM      9  H   LIG A   1      -8.885   1.991 121.923  0.00  0.00    +0.169 HD
ATOM     10  C   LIG A   1      -9.190   0.785 123.534  0.00  0.00    +0.256 A 
ATOM     11  O   LIG A   1     -10.158   0.185 123.055  0.00  0.00    -0.268 OA
ATOM     12  C   LIG A   1      -8.674   0.453 124.898  0.00  0.00    +0.062 A 
ENDROOT
BRANCH   1  13
ATOM     13  O   LIG A   1      -7.248   1.030 126.744  0.00  0.00    -0.494 OA
ATOM     14  C   LIG A   1      -8.091   1.685 127.689  0.00  0.00    +0.277 C 
ENDBRANCH   1  13
BRANCH   4  15
ATOM     15  O   LIG A   1      -7.373   3.602 121.281  0.00  0.00    -0.493 OA
ATOM     16  C   LIG A   1      -6.471   4.043 120.273  0.00  0.00    +0.277 C 
ENDBRANCH   4  15
BRANCH  12  17
ATOM     17  C   LIG A   1      -9.390  -0.672 125.592  0.00  0.00    +0.080 C 
BRANCH  17  18
ATOM     18  C   LIG A   1      -8.595  -2.003 125.577  0.00  0.00    +0.144 C 
BRANCH  18  19
ATOM     19  C   LIG A   1      -8.463  -2.641 124.203  0.00  0.00    -0.051 C 
ATOM     20  C   LIG A   1      -9.470  -3.253 123.553  0.00  0.00    +0.010 C 
ATOM     21  C   LIG A   1      -7.097  -2.563 123.569  0.00  0.00    +0.041 C 
ENDBRANCH  18  19
BRANCH  18  22
ATOM     22  O   LIG A   1      -7.274  -1.844 126.093  0.00  0.00    -0.387 OA
ATOM     23  H   LIG A   1      -7.183  -0.927 126.421  0.00  0.00    +0.210 HD
ENDBRANCH  18  22
ENDBRANCH  17  18
ENDBRANCH  12  17
TORSDOF 6
ENDMDL
MODEL 4
REMARK VINA RESULT:      -6.1      7.686     10.065
REMARK  Name = NuBBE_1956
REMARK  9 active torsions:
REMARK  status: ('A' for Active; 'I' for Inactive)
REMARK    1  A    between atoms: O_1  and  C_2
REMARK    2  A    between atoms: O_1  and  C_3
REMARK    3  A    between atoms: C_6  and  O_7
REMARK    4  A    between atoms: O_7  and  C_8
REMARK    5  A    between atoms: C_16  and  C_17
REMARK    6  A    between atoms: C_17  and  C_18
REMARK    7  A    between atoms: C_18  and  C_19
REMARK    8  A    between atoms: C_18  and  O_22
REMARK    9  A    between atoms: C_19  and  C_21
REMARK                            x       y       z     vdW  Elec       q    Type
REMARK                         _______ _______ _______ _____ _____    ______ ____
ROOT
ATOM      1  C   LIG A   1      -8.447  -1.075 124.599  0.00  0.00    +0.138 A 
ATOM      2  C   LIG A   1      -8.583   0.169 123.825  0.00  0.00    +0.044 A 
ATOM      3  C   LIG A   1      -7.537   1.098 123.855  0.00  0.00    +0.095 A 
ATOM      4  C   LIG A   1      -7.632   2.335 123.205  0.00  0.00    +0.144 A 
ATOM      5  C   LIG A   1      -8.794   2.639 122.495  0.00  0.00    +0.048 A 
ATOM      6  C   LIG A   1      -9.841   1.715 122.442  0.00  0.00    +0.004 A 
ATOM      7  C   LIG A   1      -9.737   0.487 123.098  0.00  0.00    +0.014 A 
ATOM      8  N   LIG A   1      -6.372   0.789 124.578  0.00  0.00    -0.319 N 
ATOM      9  H   LIG A   1      -5.614   1.466 124.563  0.00  0.00    +0.169 HD
ATOM     10  C   LIG A   1      -6.202  -0.336 125.305  0.00  0.00    +0.256 A 
ATOM     11  O   LIG A   1      -5.151  -0.566 125.911  0.00  0.00    -0.268 OA
ATOM     12  C   LIG A   1      -7.341  -1.303 125.341  0.00  0.00    +0.062 A 
ENDROOT
BRANCH   1  13
ATOM     13  O   LIG A   1      -9.471  -1.992 124.466  0.00  0.00    -0.494 OA
ATOM     14  C   LIG A   1      -9.234  -2.955 123.441  0.00  0.00    +0.277 C 
ENDBRANCH   1  13
BRANCH   4  15
ATOM     15  O   LIG A   1      -6.537   3.157 123.305  0.00  0.00    -0.493 OA
ATOM     16  C   LIG A   1      -6.047   3.689 122.080  0.00  0.00    +0.277 C 
ENDBRANCH   4  15
BRANCH  12  17
ATOM     17  C   LIG A   1      -7.114  -2.523 126.191  0.00  0.00    +0.080 C 
BRANCH  17  18
ATOM     18  C   LIG A   1      -7.206  -2.233 127.711  0.00  0.00    +0.144 C 
BRANCH  18  19
ATOM     19  C   LIG A   1      -8.076  -3.210 128.487  0.00  0.00    -0.051 C 
ATOM     20  C   LIG A   1      -9.003  -4.008 127.925  0.00  0.00    +0.010 C 
ATOM     21  C   LIG A   1      -7.855  -3.250 129.977  0.00  0.00    +0.041 C 
ENDBRANCH  18  19
BRANCH  18  22
ATOM     22  O   LIG A   1      -5.923  -2.229 128.335  0.00  0.00    -0.387 OA
ATOM     23  H   LIG A   1      -5.676  -1.301 128.520  0.00  0.00    +0.210 HD
ENDBRANCH  18  22
ENDBRANCH  17  18
ENDBRANCH  12  17
TORSDOF 6
ENDMDL
MODEL 5
REMARK VINA RESULT:      -5.9      2.755      5.845
REMARK  Name = NuBBE_1956
REMARK  9 active torsions:
REMARK  status: ('A' for Active; 'I' for Inactive)
REMARK    1  A    between atoms: O_1  and  C_2
REMARK    2  A    between atoms: O_1  and  C_3
REMARK    3  A    between atoms: C_6  and  O_7
REMARK    4  A    between atoms: O_7  and  C_8
REMARK    5  A    between atoms: C_16  and  C_17
REMARK    6  A    between atoms: C_17  and  C_18
REMARK    7  A    between atoms: C_18  and  C_19
REMARK    8  A    between atoms: C_18  and  O_22
REMARK    9  A    between atoms: C_19  and  C_21
REMARK                            x       y       z     vdW  Elec       q    Type
REMARK                         _______ _______ _______ _____ _____    ______ ____
ROOT
ATOM      1  C   LIG A   1      -9.186   6.135 131.769  0.00  0.00    +0.138 A 
ATOM      2  C   LIG A   1     -10.510   6.411 131.188  0.00  0.00    +0.044 A 
ATOM      3  C   LIG A   1     -10.687   6.254 129.809  0.00  0.00    +0.095 A 
ATOM      4  C   LIG A   1     -11.897   6.573 129.180  0.00  0.00    +0.144 A 
ATOM      5  C   LIG A   1     -12.958   7.042 129.954  0.00  0.00    +0.048 A 
ATOM      6  C   LIG A   1     -12.803   7.191 131.335  0.00  0.00    +0.004 A 
ATOM      7  C   LIG A   1     -11.590   6.874 131.951  0.00  0.00    +0.014 A 
ATOM      8  N   LIG A   1      -9.612   5.786 129.034  0.00  0.00    -0.319 N 
ATOM      9  H   LIG A   1      -9.770   5.651 128.039  0.00  0.00    +0.169 HD
ATOM     10  C   LIG A   1      -8.380   5.523 129.520  0.00  0.00    +0.256 A 
ATOM     11  O   LIG A   1      -7.472   5.098 128.797  0.00  0.00    -0.268 OA
ATOM     12  C   LIG A   1      -8.158   5.757 130.979  0.00  0.00    +0.062 A 
ENDROOT
BRANCH   1  13
ATOM     13  O   LIG A   1      -9.092   6.226 133.143  0.00  0.00    -0.494 OA
ATOM     14  C   LIG A   1      -9.023   4.955 133.787  0.00  0.00    +0.277 C 
ENDBRANCH   1  13
BRANCH   4  15
ATOM     15  O   LIG A   1     -11.946   6.369 127.823  0.00  0.00    -0.493 OA
ATOM     16  C   LIG A   1     -12.046   7.541 127.024  0.00  0.00    +0.277 C 
ENDBRANCH   4  15
BRANCH  12  17
ATOM     17  C   LIG A   1      -6.760   5.481 131.463  0.00  0.00    +0.080 C 
BRANCH  17  18
ATOM     18  C   LIG A   1      -5.868   6.749 131.504  0.00  0.00    +0.144 C 
BRANCH  18  19
ATOM     19  C   LIG A   1      -4.493   6.530 132.116  0.00  0.00    -0.051 C 
ATOM     20  C   LIG A   1      -4.275   6.295 133.423  0.00  0.00    +0.010 C 
ATOM     21  C   LIG A   1      -3.329   6.592 131.160  0.00  0.00    +0.041 C 
ENDBRANCH  18  19
BRANCH  18  22
ATOM     22  O   LIG A   1      -5.664   7.303 130.205  0.00  0.00    -0.387 OA
ATOM     23  H   LIG A   1      -6.367   6.965 129.616  0.00  0.00    +0.210 HD
ENDBRANCH  18  22
ENDBRANCH  17  18
ENDBRANCH  12  17
TORSDOF 6
ENDMDL
MODEL 6
REMARK VINA RESULT:      -5.8      7.241      9.150
REMARK  Name = NuBBE_1956
REMARK  9 active torsions:
REMARK  status: ('A' for Active; 'I' for Inactive)
REMARK    1  A    between atoms: O_1  and  C_2
REMARK    2  A    between atoms: O_1  and  C_3
REMARK    3  A    between atoms: C_6  and  O_7
REMARK    4  A    between atoms: O_7  and  C_8
REMARK    5  A    between atoms: C_16  and  C_17
REMARK    6  A    between atoms: C_17  and  C_18
REMARK    7  A    between atoms: C_18  and  C_19
REMARK    8  A    between atoms: C_18  and  O_22
REMARK    9  A    between atoms: C_19  and  C_21
REMARK                            x       y       z     vdW  Elec       q    Type
REMARK                         _______ _______ _______ _____ _____    ______ ____
ROOT
ATOM      1  C   LIG A   1      -7.816   1.002 124.547  0.00  0.00    +0.138 A 
ATOM      2  C   LIG A   1      -6.767   2.023 124.704  0.00  0.00    +0.044 A 
ATOM      3  C   LIG A   1      -5.809   1.854 125.710  0.00  0.00    +0.095 A 
ATOM      4  C   LIG A   1      -4.831   2.824 125.965  0.00  0.00    +0.144 A 
ATOM      5  C   LIG A   1      -4.803   3.978 125.183  0.00  0.00    +0.048 A 
ATOM      6  C   LIG A   1      -5.744   4.155 124.165  0.00  0.00    +0.004 A 
ATOM      7  C   LIG A   1      -6.717   3.184 123.922  0.00  0.00    +0.014 A 
ATOM      8  N   LIG A   1      -5.847   0.691 126.499  0.00  0.00    -0.319 N 
ATOM      9  H   LIG A   1      -5.124   0.576 127.204  0.00  0.00    +0.169 HD
ATOM     10  C   LIG A   1      -6.789  -0.270 126.394  0.00  0.00    +0.256 A 
ATOM     11  O   LIG A   1      -6.768  -1.282 127.103  0.00  0.00    -0.268 OA
ATOM     12  C   LIG A   1      -7.861  -0.066 125.373  0.00  0.00    +0.062 A 
ENDROOT
BRANCH   1  13
ATOM     13  O   LIG A   1      -8.683   1.176 123.487  0.00  0.00    -0.494 OA
ATOM     14  C   LIG A   1      -9.952   1.697 123.879  0.00  0.00    +0.277 C 
ENDBRANCH   1  13
BRANCH   4  15
ATOM     15  O   LIG A   1      -3.945   2.539 126.974  0.00  0.00    -0.493 OA
ATOM     16  C   LIG A   1      -2.627   3.046 126.804  0.00  0.00    +0.277 C 
ENDBRANCH   4  15
BRANCH  12  17
ATOM     17  C   LIG A   1      -8.904  -1.149 125.320  0.00  0.00    +0.080 C 
BRANCH  17  18
ATOM     18  C   LIG A   1      -8.870  -1.965 124.002  0.00  0.00    +0.144 C 
BRANCH  18  19
ATOM     19  C   LIG A   1      -7.529  -2.615 123.699  0.00  0.00    -0.051 C 
ATOM     20  C   LIG A   1      -7.041  -3.685 124.354  0.00  0.00    +0.010 C 
ATOM     21  C   LIG A   1      -6.726  -1.984 122.590  0.00  0.00    +0.041 C 
ENDBRANCH  18  19
BRANCH  18  22
ATOM     22  O   LIG A   1      -9.849  -3.002 123.989  0.00  0.00    -0.387 OA
ATOM     23  H   LIG A   1     -10.057  -3.214 123.057  0.00  0.00    +0.210 HD
ENDBRANCH  18  22
ENDBRANCH  17  18
ENDBRANCH  12  17
TORSDOF 6
ENDMDL
MODEL 7
REMARK VINA RESULT:      -5.8      6.280      8.111
REMARK  Name = NuBBE_1956
REMARK  9 active torsions:
REMARK  status: ('A' for Active; 'I' for Inactive)
REMARK    1  A    between atoms: O_1  and  C_2
REMARK    2  A    between atoms: O_1  and  C_3
REMARK    3  A    between atoms: C_6  and  O_7
REMARK    4  A    between atoms: O_7  and  C_8
REMARK    5  A    between atoms: C_16  and  C_17
REMARK    6  A    between atoms: C_17  and  C_18
REMARK    7  A    between atoms: C_18  and  C_19
REMARK    8  A    between atoms: C_18  and  O_22
REMARK    9  A    between atoms: C_19  and  C_21
REMARK                            x       y       z     vdW  Elec       q    Type
REMARK                         _______ _______ _______ _____ _____    ______ ____
ROOT
ATOM      1  C   LIG A   1      -6.760  -0.205 128.063  0.00  0.00    +0.138 A 
ATOM      2  C   LIG A   1      -7.557  -1.396 127.729  0.00  0.00    +0.044 A 
ATOM      3  C   LIG A   1      -8.222  -1.439 126.499  0.00  0.00    +0.095 A 
ATOM      4  C   LIG A   1      -9.058  -2.507 126.150  0.00  0.00    +0.144 A 
ATOM      5  C   LIG A   1      -9.217  -3.562 127.048  0.00  0.00    +0.048 A 
ATOM      6  C   LIG A   1      -8.548  -3.542 128.275  0.00  0.00    +0.004 A 
ATOM      7  C   LIG A   1      -7.720  -2.470 128.614  0.00  0.00    +0.014 A 
ATOM      8  N   LIG A   1      -8.063  -0.369 125.601  0.00  0.00    -0.319 N 
ATOM      9  H   LIG A   1      -8.531  -0.434 124.701  0.00  0.00    +0.169 HD
ATOM     10  C   LIG A   1      -7.346   0.745 125.863  0.00  0.00    +0.256 A 
ATOM     11  O   LIG A   1      -7.226   1.651 125.032  0.00  0.00    -0.268 OA
ATOM     12  C   LIG A   1      -6.691   0.835 127.203  0.00  0.00    +0.062 A 
ENDROOT
BRANCH   1  13
ATOM     13  O   LIG A   1      -6.059  -0.252 129.251  0.00  0.00    -0.494 OA
ATOM     14  C   LIG A   1      -6.733   0.398 130.327  0.00  0.00    +0.277 C 
ENDBRANCH   1  13
BRANCH   4  15
ATOM     15  O   LIG A   1      -9.649  -2.434 124.913  0.00  0.00    -0.493 OA
ATOM     16  C   LIG A   1      -9.230  -3.411 123.967  0.00  0.00    +0.277 C 
ENDBRANCH   4  15
BRANCH  12  17
ATOM     17  C   LIG A   1      -5.934   2.110 127.457  0.00  0.00    +0.080 C 
BRANCH  17  18
ATOM     18  C   LIG A   1      -4.398   1.945 127.318  0.00  0.00    +0.144 C 
BRANCH  18  19
ATOM     19  C   LIG A   1      -3.706   3.085 126.587  0.00  0.00    -0.051 C 
ATOM     20  C   LIG A   1      -4.352   4.044 125.898  0.00  0.00    +0.010 C 
ATOM     21  C   LIG A   1      -2.201   3.099 126.663  0.00  0.00    +0.041 C 
ENDBRANCH  18  19
BRANCH  18  22
ATOM     22  O   LIG A   1      -3.757   1.811 128.586  0.00  0.00    -0.387 OA
ATOM     23  H   LIG A   1      -3.079   2.512 128.661  0.00  0.00    +0.210 HD
ENDBRANCH  18  22
ENDBRANCH  17  18
ENDBRANCH  12  17
TORSDOF 6
ENDMDL
MODEL 8
REMARK VINA RESULT:      -5.7      7.260      9.143
REMARK  Name = NuBBE_1956
REMARK  9 active torsions:
REMARK  status: ('A' for Active; 'I' for Inactive)
REMARK    1  A    between atoms: O_1  and  C_2
REMARK    2  A    between atoms: O_1  and  C_3
REMARK    3  A    between atoms: C_6  and  O_7
REMARK    4  A    between atoms: O_7  and  C_8
REMARK    5  A    between atoms: C_16  and  C_17
REMARK    6  A    between atoms: C_17  and  C_18
REMARK    7  A    between atoms: C_18  and  C_19
REMARK    8  A    between atoms: C_18  and  O_22
REMARK    9  A    between atoms: C_19  and  C_21
REMARK                            x       y       z     vdW  Elec       q    Type
REMARK                         _______ _______ _______ _____ _____    ______ ____
ROOT
ATOM      1  C   LIG A   1      -7.152   0.530 125.297  0.00  0.00    +0.138 A 
ATOM      2  C   LIG A   1      -6.280   1.715 125.329  0.00  0.00    +0.044 A 
ATOM      3  C   LIG A   1      -5.135   1.687 126.132  0.00  0.00    +0.095 A 
ATOM      4  C   LIG A   1      -4.303   2.806 126.269  0.00  0.00    +0.144 A 
ATOM      5  C   LIG A   1      -4.617   3.971 125.571  0.00  0.00    +0.048 A 
ATOM      6  C   LIG A   1      -5.749   4.012 124.753  0.00  0.00    +0.004 A 
ATOM      7  C   LIG A   1      -6.574   2.892 124.627  0.00  0.00    +0.014 A 
ATOM      8  N   LIG A   1      -4.827   0.510 126.838  0.00  0.00    -0.319 N 
ATOM      9  H   LIG A   1      -3.975   0.502 127.393  0.00  0.00    +0.169 HD
ATOM     10  C   LIG A   1      -5.597  -0.598 126.843  0.00  0.00    +0.256 A 
ATOM     11  O   LIG A   1      -5.273  -1.613 127.470  0.00  0.00    -0.268 OA
ATOM     12  C   LIG A   1      -6.861  -0.555 126.047  0.00  0.00    +0.062 A 
ENDROOT
BRANCH   1  13
ATOM     13  O   LIG A   1      -8.221   0.583 124.425  0.00  0.00    -0.494 OA
ATOM     14  C   LIG A   1      -9.449   0.932 125.061  0.00  0.00    +0.277 C 
ENDBRANCH   1  13
BRANCH   4  15
ATOM     15  O   LIG A   1      -3.207   2.649 127.082  0.00  0.00    -0.493 OA
ATOM     16  C   LIG A   1      -3.058   3.616 128.114  0.00  0.00    +0.277 C 
ENDBRANCH   4  15
BRANCH  12  17
ATOM     17  C   LIG A   1      -7.699  -1.802 126.113  0.00  0.00    +0.080 C 
BRANCH  17  18
ATOM     18  C   LIG A   1      -7.312  -2.854 125.041  0.00  0.00    +0.144 C 
BRANCH  18  19
ATOM     19  C   LIG A   1      -8.084  -2.736 123.737  0.00  0.00    -0.051 C 
ATOM     20  C   LIG A   1      -9.349  -3.163 123.564  0.00  0.00    +0.010 C 
ATOM     21  C   LIG A   1      -7.344  -2.096 122.589  0.00  0.00    +0.041 C 
ENDBRANCH  18  19
BRANCH  18  22
ATOM     22  O   LIG A   1      -5.925  -2.799 124.713  0.00  0.00    -0.387 OA
ATOM     23  H   LIG A   1      -5.432  -3.310 125.386  0.00  0.00    +0.210 HD
ENDBRANCH  18  22
ENDBRANCH  17  18
ENDBRANCH  12  17
TORSDOF 6
ENDMDL
MODEL 9
REMARK VINA RESULT:      -5.6      4.795      8.642
REMARK  Name = NuBBE_1956
REMARK  9 active torsions:
REMARK  status: ('A' for Active; 'I' for Inactive)
REMARK    1  A    between atoms: O_1  and  C_2
REMARK    2  A    between atoms: O_1  and  C_3
REMARK    3  A    between atoms: C_6  and  O_7
REMARK    4  A    between atoms: O_7  and  C_8
REMARK    5  A    between atoms: C_16  and  C_17
REMARK    6  A    between atoms: C_17  and  C_18
REMARK    7  A    between atoms: C_18  and  C_19
REMARK    8  A    between atoms: C_18  and  O_22
REMARK    9  A    between atoms: C_19  and  C_21
REMARK                            x       y       z     vdW  Elec       q    Type
REMARK                         _______ _______ _______ _____ _____    ______ ____
ROOT
ATOM      1  C   LIG A   1      -7.545  -1.459 127.926  0.00  0.00    +0.138 A 
ATOM      2  C   LIG A   1      -7.879  -0.342 128.825  0.00  0.00    +0.044 A 
ATOM      3  C   LIG A   1      -8.226   0.892 128.265  0.00  0.00    +0.095 A 
ATOM      4  C   LIG A   1      -8.480   2.017 129.061  0.00  0.00    +0.144 A 
ATOM      5  C   LIG A   1      -8.400   1.896 130.447  0.00  0.00    +0.048 A 
ATOM      6  C   LIG A   1      -8.068   0.667 131.024  0.00  0.00    +0.004 A 
ATOM      7  C   LIG A   1      -7.813  -0.447 130.220  0.00  0.00    +0.014 A 
ATOM      8  N   LIG A   1      -8.299   1.009 126.866  0.00  0.00    -0.319 N 
ATOM      9  H   LIG A   1      -8.582   1.906 126.481  0.00  0.00    +0.169 HD
ATOM     10  C   LIG A   1      -8.000   0.016 126.002  0.00  0.00    +0.256 A 
ATOM     11  O   LIG A   1      -8.095   0.166 124.779  0.00  0.00    -0.268 OA
ATOM     12  C   LIG A   1      -7.555  -1.286 126.587  0.00  0.00    +0.062 A 
ENDROOT
BRANCH   1  13
ATOM     13  O   LIG A   1      -7.291  -2.674 128.531  0.00  0.00    -0.494 OA
ATOM     14  C   LIG A   1      -8.444  -3.508 128.622  0.00  0.00    +0.277 C 
ENDBRANCH   1  13
BRANCH   4  15
ATOM     15  O   LIG A   1      -8.817   3.168 128.392  0.00  0.00    -0.493 OA
ATOM     16  C   LIG A   1      -8.047   4.320 128.714  0.00  0.00    +0.277 C 
ENDBRANCH   4  15
BRANCH  12  17
ATOM     17  C   LIG A   1      -7.202  -2.348 125.582  0.00  0.00    +0.080 C 
BRANCH  17  18
ATOM     18  C   LIG A   1      -5.709  -2.321 125.164  0.00  0.00    +0.144 C 
BRANCH  18  19
ATOM     19  C   LIG A   1      -5.449  -2.749 123.729  0.00  0.00    -0.051 C 
ATOM     20  C   LIG A   1      -6.011  -2.168 122.652  0.00  0.00    +0.010 C 
ATOM     21  C   LIG A   1      -4.498  -3.904 123.548  0.00  0.00    +0.041 C 
ENDBRANCH  18  19
BRANCH  18  22
ATOM     22  O   LIG A   1      -5.131  -1.026 125.326  0.00  0.00    -0.387 OA
ATOM     23  H   LIG A   1      -5.848  -0.363 125.269  0.00  0.00    +0.210 HD
ENDBRANCH  18  22
ENDBRANCH  17  18
ENDBRANCH  12  17
TORSDOF 6
ENDMDL
