MODEL 1
REMARK VINA RESULT:      -5.5      0.000      0.000
REMARK  Name = NuBBE_1031
REMARK  11 active torsions:
REMARK  status: ('A' for Active; 'I' for Inactive)
REMARK    1  A    between atoms: O_1  and  C_2
REMARK    2  A    between atoms: C_4  and  C_18
REMARK    3  A    between atoms: C_7  and  C_11
REMARK    4  A    between atoms: C_7  and  O_13
REMARK    5  A    between atoms: C_8  and  O_10
REMARK    6  A    between atoms: C_11  and  O_12
REMARK    7  A    between atoms: O_13  and  C_14
REMARK    8  A    between atoms: C_14  and  C_15
REMARK    9  A    between atoms: C_15  and  C_16
REMARK   10  A    between atoms: C_16  and  C_17
REMARK   11  A    between atoms: C_18  and  O_19
REMARK                            x       y       z     vdW  Elec       q    Type
REMARK                         _______ _______ _______ _____ _____    ______ ____
ROOT
ATOM      1  C   LIG A   1      -8.293   5.447 130.739  0.00  0.00    +0.179 C 
ATOM      2  C   LIG A   1      -9.310   4.516 130.089  0.00  0.00    +0.178 C 
ATOM      3  O   LIG A   1     -10.386   5.346 129.600  0.00  0.00    -0.336 OA
ATOM      4  C   LIG A   1     -10.275   6.665 130.176  0.00  0.00    +0.223 C 
ATOM      5  C   LIG A   1      -9.148   6.599 131.246  0.00  0.00    +0.207 C 
ENDROOT
BRANCH   1   6
ATOM      6  O   LIG A   1      -7.350   5.919 129.773  0.00  0.00    -0.386 OA
ATOM      7  H   LIG A   1      -7.754   6.680 129.312  0.00  0.00    +0.210 HD
ENDBRANCH   1   6
BRANCH   5   8
ATOM      8  O   LIG A   1      -9.614   6.305 132.571  0.00  0.00    -0.384 OA
ATOM      9  H   LIG A   1      -9.202   6.963 133.164  0.00  0.00    +0.210 HD
ENDBRANCH   5   8
BRANCH   4  10
ATOM     10  C   LIG A   1     -11.646   7.072 130.776  0.00  0.00    +0.223 C 
BRANCH  10  11
ATOM     11  O   LIG A   1     -12.188   6.106 131.679  0.00  0.00    -0.390 OA
ATOM     12  H   LIG A   1     -13.085   5.892 131.342  0.00  0.00    +0.210 HD
ENDBRANCH  10  11
ENDBRANCH   4  10
BRANCH   4  13
ATOM     13  O   LIG A   1      -9.810   7.585 129.165  0.00  0.00    -0.345 OA
BRANCH  13  14
ATOM     14  C   LIG A   1     -10.837   8.341 128.523  0.00  0.00    +0.163 C 
BRANCH  14  15
ATOM     15  C   LIG A   1     -10.897   7.972 127.041  0.00  0.00    +0.028 C 
BRANCH  15  16
ATOM     16  C   LIG A   1     -12.130   7.130 126.699  0.00  0.00    -0.001 C 
ATOM     17  C   LIG A   1     -13.319   7.501 127.573  0.00  0.00    +0.004 C 
ENDBRANCH  15  16
ENDBRANCH  14  15
ENDBRANCH  13  14
ENDBRANCH   4  13
BRANCH   2  18
ATOM     18  C   LIG A   1      -9.901   3.490 131.064  0.00  0.00    +0.190 C 
BRANCH  18  19
ATOM     19  O   LIG A   1     -11.296   3.324 130.809  0.00  0.00    -0.392 OA
ATOM     20  H   LIG A   1     -11.390   3.341 129.838  0.00  0.00    +0.209 HD
ENDBRANCH  18  19
ENDBRANCH   2  18
TORSDOF 10
ENDMDL
MODEL 2
REMARK VINA RESULT:      -5.4      1.481      1.865
REMARK  Name = NuBBE_1031
REMARK  11 active torsions:
REMARK  status: ('A' for Active; 'I' for Inactive)
REMARK    1  A    between atoms: O_1  and  C_2
REMARK    2  A    between atoms: C_4  and  C_18
REMARK    3  A    between atoms: C_7  and  C_11
REMARK    4  A    between atoms: C_7  and  O_13
REMARK    5  A    between atoms: C_8  and  O_10
REMARK    6  A    between atoms: C_11  and  O_12
REMARK    7  A    between atoms: O_13  and  C_14
REMARK    8  A    between atoms: C_14  and  C_15
REMARK    9  A    between atoms: C_15  and  C_16
REMARK   10  A    between atoms: C_16  and  C_17
REMARK   11  A    between atoms: C_18  and  O_19
REMARK                            x       y       z     vdW  Elec       q    Type
REMARK                         _______ _______ _______ _____ _____    ______ ____
ROOT
ATOM      1  C   LIG A   1      -8.784   5.282 129.510  0.00  0.00    +0.179 C 
ATOM      2  C   LIG A   1      -9.522   4.059 130.042  0.00  0.00    +0.178 C 
ATOM      3  O   LIG A   1     -10.907   4.439 130.196  0.00  0.00    -0.336 OA
ATOM      4  C   LIG A   1     -11.023   5.875 130.113  0.00  0.00    +0.223 C 
ATOM      5  C   LIG A   1      -9.577   6.447 130.086  0.00  0.00    +0.207 C 
ENDROOT
BRANCH   1   6
ATOM      6  O   LIG A   1      -8.825   5.316 128.081  0.00  0.00    -0.386 OA
ATOM      7  H   LIG A   1      -7.972   4.974 127.751  0.00  0.00    +0.210 HD
ENDBRANCH   1   6
BRANCH   5   8
ATOM      8  O   LIG A   1      -9.058   6.788 131.379  0.00  0.00    -0.384 OA
ATOM      9  H   LIG A   1      -9.354   6.087 131.992  0.00  0.00    +0.210 HD
ENDBRANCH   5   8
BRANCH   4  10
ATOM     10  C   LIG A   1     -11.846   6.386 131.324  0.00  0.00    +0.223 C 
BRANCH  10  11
ATOM     11  O   LIG A   1     -11.397   5.875 132.581  0.00  0.00    -0.390 OA
ATOM     12  H   LIG A   1     -11.343   6.647 133.185  0.00  0.00    +0.210 HD
ENDBRANCH  10  11
ENDBRANCH   4  10
BRANCH   4  13
ATOM     13  O   LIG A   1     -11.614   6.230 128.844  0.00  0.00    -0.345 OA
BRANCH  13  14
ATOM     14  C   LIG A   1     -13.032   6.392 128.867  0.00  0.00    +0.163 C 
BRANCH  14  15
ATOM     15  C   LIG A   1     -13.424   7.611 128.031  0.00  0.00    +0.028 C 
BRANCH  15  16
ATOM     16  C   LIG A   1     -12.519   8.817 128.298  0.00  0.00    -0.001 C 
ATOM     17  C   LIG A   1     -12.902   9.528 129.587  0.00  0.00    +0.004 C 
ENDBRANCH  15  16
ENDBRANCH  14  15
ENDBRANCH  13  14
ENDBRANCH   4  13
BRANCH   2  18
ATOM     18  C   LIG A   1      -9.001   3.584 131.404  0.00  0.00    +0.190 C 
BRANCH  18  19
ATOM     19  O   LIG A   1     -10.097   3.227 132.247  0.00  0.00    -0.392 OA
ATOM     20  H   LIG A   1      -9.718   3.124 133.141  0.00  0.00    +0.209 HD
ENDBRANCH  18  19
ENDBRANCH   2  18
TORSDOF 10
ENDMDL
MODEL 3
REMARK VINA RESULT:      -5.1      1.839      5.162
REMARK  Name = NuBBE_1031
REMARK  11 active torsions:
REMARK  status: ('A' for Active; 'I' for Inactive)
REMARK    1  A    between atoms: O_1  and  C_2
REMARK    2  A    between atoms: C_4  and  C_18
REMARK    3  A    between atoms: C_7  and  C_11
REMARK    4  A    between atoms: C_7  and  O_13
REMARK    5  A    between atoms: C_8  and  O_10
REMARK    6  A    between atoms: C_11  and  O_12
REMARK    7  A    between atoms: O_13  and  C_14
REMARK    8  A    between atoms: C_14  and  C_15
REMARK    9  A    between atoms: C_15  and  C_16
REMARK   10  A    between atoms: C_16  and  C_17
REMARK   11  A    between atoms: C_18  and  O_19
REMARK                            x       y       z     vdW  Elec       q    Type
REMARK                         _______ _______ _______ _____ _____    ______ ____
ROOT
ATOM      1  C   LIG A   1     -11.367   6.711 131.162  0.00  0.00    +0.179 C 
ATOM      2  C   LIG A   1     -11.938   6.204 129.843  0.00  0.00    +0.178 C 
ATOM      3  O   LIG A   1     -11.178   5.030 129.481  0.00  0.00    -0.336 OA
ATOM      4  C   LIG A   1      -9.987   4.959 130.293  0.00  0.00    +0.223 C 
ATOM      5  C   LIG A   1      -9.906   6.289 131.096  0.00  0.00    +0.207 C 
ENDROOT
BRANCH   1   6
ATOM      6  O   LIG A   1     -12.015   6.079 132.269  0.00  0.00    -0.386 OA
ATOM      7  H   LIG A   1     -12.174   5.146 132.027  0.00  0.00    +0.210 HD
ENDBRANCH   1   6
BRANCH   5   8
ATOM      8  O   LIG A   1      -9.138   7.316 130.454  0.00  0.00    -0.384 OA
ATOM      9  H   LIG A   1      -8.568   6.869 129.799  0.00  0.00    +0.210 HD
ENDBRANCH   5   8
BRANCH   4  10
ATOM     10  C   LIG A   1      -8.759   4.743 129.371  0.00  0.00    +0.223 C 
BRANCH  10  11
ATOM     11  O   LIG A   1      -8.876   5.382 128.097  0.00  0.00    -0.390 OA
ATOM     12  H   LIG A   1      -9.837   5.475 127.927  0.00  0.00    +0.210 HD
ENDBRANCH  10  11
ENDBRANCH   4  10
BRANCH   4  13
ATOM     13  O   LIG A   1     -10.143   3.911 131.273  0.00  0.00    -0.345 OA
BRANCH  13  14
ATOM     14  C   LIG A   1      -8.984   3.104 131.479  0.00  0.00    +0.163 C 
BRANCH  14  15
ATOM     15  C   LIG A   1      -8.900   2.689 132.949  0.00  0.00    +0.028 C 
BRANCH  15  16
ATOM     16  C   LIG A   1      -9.276   3.830 133.899  0.00  0.00    -0.001 C 
ATOM     17  C   LIG A   1      -8.053   4.388 134.612  0.00  0.00    +0.004 C 
ENDBRANCH  15  16
ENDBRANCH  14  15
ENDBRANCH  13  14
ENDBRANCH   4  13
BRANCH   2  18
ATOM     18  C   LIG A   1     -11.819   7.221 128.701  0.00  0.00    +0.190 C 
BRANCH  18  19
ATOM     19  O   LIG A   1     -11.485   6.552 127.484  0.00  0.00    -0.392 OA
ATOM     20  H   LIG A   1     -12.015   5.732 127.481  0.00  0.00    +0.209 HD
ENDBRANCH  18  19
ENDBRANCH   2  18
TORSDOF 10
ENDMDL
MODEL 4
REMARK VINA RESULT:      -5.1      1.762      5.089
REMARK  Name = NuBBE_1031
REMARK  11 active torsions:
REMARK  status: ('A' for Active; 'I' for Inactive)
REMARK    1  A    between atoms: O_1  and  C_2
REMARK    2  A    between atoms: C_4  and  C_18
REMARK    3  A    between atoms: C_7  and  C_11
REMARK    4  A    between atoms: C_7  and  O_13
REMARK    5  A    between atoms: C_8  and  O_10
REMARK    6  A    between atoms: C_11  and  O_12
REMARK    7  A    between atoms: O_13  and  C_14
REMARK    8  A    between atoms: C_14  and  C_15
REMARK    9  A    between atoms: C_15  and  C_16
REMARK   10  A    between atoms: C_16  and  C_17
REMARK   11  A    between atoms: C_18  and  O_19
REMARK                            x       y       z     vdW  Elec       q    Type
REMARK                         _______ _______ _______ _____ _____    ______ ____
ROOT
ATOM      1  C   LIG A   1     -12.735   7.639 130.038  0.00  0.00    +0.179 C 
ATOM      2  C   LIG A   1     -13.084   6.646 128.936  0.00  0.00    +0.178 C 
ATOM      3  O   LIG A   1     -12.046   5.643 128.931  0.00  0.00    -0.336 OA
ATOM      4  C   LIG A   1     -10.925   6.107 129.713  0.00  0.00    +0.223 C 
ATOM      5  C   LIG A   1     -11.214   7.590 130.084  0.00  0.00    +0.207 C 
ENDROOT
BRANCH   1   6
ATOM      6  O   LIG A   1     -13.281   7.218 131.291  0.00  0.00    -0.386 OA
ATOM      7  H   LIG A   1     -13.829   6.426 131.124  0.00  0.00    +0.210 HD
ENDBRANCH   1   6
BRANCH   5   8
ATOM      8  O   LIG A   1     -10.675   8.542 129.157  0.00  0.00    -0.384 OA
ATOM      9  H   LIG A   1      -9.827   8.173 128.840  0.00  0.00    +0.210 HD
ENDBRANCH   5   8
BRANCH   4  10
ATOM     10  C   LIG A   1      -9.626   5.942 128.883  0.00  0.00    +0.223 C 
BRANCH  10  11
ATOM     11  O   LIG A   1      -9.758   6.350 127.519  0.00  0.00    -0.390 OA
ATOM     12  H   LIG A   1     -10.721   6.356 127.329  0.00  0.00    +0.210 HD
ENDBRANCH  10  11
ENDBRANCH   4  10
BRANCH   4  13
ATOM     13  O   LIG A   1     -10.888   5.385 130.963  0.00  0.00    -0.345 OA
BRANCH  13  14
ATOM     14  C   LIG A   1      -9.811   4.456 131.087  0.00  0.00    +0.163 C 
BRANCH  14  15
ATOM     15  C   LIG A   1     -10.354   3.028 131.030  0.00  0.00    +0.028 C 
BRANCH  15  16
ATOM     16  C   LIG A   1      -9.703   2.115 132.074  0.00  0.00    -0.001 C 
ATOM     17  C   LIG A   1      -9.221   2.904 133.282  0.00  0.00    +0.004 C 
ENDBRANCH  15  16
ENDBRANCH  14  15
ENDBRANCH  13  14
ENDBRANCH   4  13
BRANCH   2  18
ATOM     18  C   LIG A   1     -13.141   7.284 127.542  0.00  0.00    +0.190 C 
BRANCH  18  19
ATOM     19  O   LIG A   1     -12.415   6.483 126.610  0.00  0.00    -0.392 OA
ATOM     20  H   LIG A   1     -12.050   5.740 127.129  0.00  0.00    +0.209 HD
ENDBRANCH  18  19
ENDBRANCH   2  18
TORSDOF 10
ENDMDL
MODEL 5
REMARK VINA RESULT:      -4.9      7.404      9.139
REMARK  Name = NuBBE_1031
REMARK  11 active torsions:
REMARK  status: ('A' for Active; 'I' for Inactive)
REMARK    1  A    between atoms: O_1  and  C_2
REMARK    2  A    between atoms: C_4  and  C_18
REMARK    3  A    between atoms: C_7  and  C_11
REMARK    4  A    between atoms: C_7  and  O_13
REMARK    5  A    between atoms: C_8  and  O_10
REMARK    6  A    between atoms: C_11  and  O_12
REMARK    7  A    between atoms: O_13  and  C_14
REMARK    8  A    between atoms: C_14  and  C_15
REMARK    9  A    between atoms: C_15  and  C_16
REMARK   10  A    between atoms: C_16  and  C_17
REMARK   11  A    between atoms: C_18  and  O_19
REMARK                            x       y       z     vdW  Elec       q    Type
REMARK                         _______ _______ _______ _____ _____    ______ ____
ROOT
ATOM      1  C   LIG A   1      -9.553   1.453 123.163  0.00  0.00    +0.179 C 
ATOM      2  C   LIG A   1      -8.076   1.087 123.082  0.00  0.00    +0.178 C 
ATOM      3  O   LIG A   1      -7.726   0.471 124.340  0.00  0.00    -0.336 OA
ATOM      4  C   LIG A   1      -8.773   0.718 125.303  0.00  0.00    +0.223 C 
ATOM      5  C   LIG A   1      -9.766   1.719 124.647  0.00  0.00    +0.207 C 
ENDROOT
BRANCH   1   6
ATOM      6  O   LIG A   1     -10.369   0.361 122.735  0.00  0.00    -0.386 OA
ATOM      7  H   LIG A   1      -9.998   0.024 121.896  0.00  0.00    +0.210 HD
ENDBRANCH   1   6
BRANCH   5   8
ATOM      8  O   LIG A   1      -9.485   3.096 124.934  0.00  0.00    -0.384 OA
ATOM      9  H   LIG A   1      -8.759   3.362 124.337  0.00  0.00    +0.210 HD
ENDBRANCH   5   8
BRANCH   4  10
ATOM     10  C   LIG A   1      -8.141   1.271 126.606  0.00  0.00    +0.223 C 
BRANCH  10  11
ATOM     11  O   LIG A   1      -9.095   1.810 127.525  0.00  0.00    -0.390 OA
ATOM     12  H   LIG A   1      -8.575   2.208 128.255  0.00  0.00    +0.210 HD
ENDBRANCH  10  11
ENDBRANCH   4  10
BRANCH   4  13
ATOM     13  O   LIG A   1      -9.518  -0.501 125.515  0.00  0.00    -0.345 OA
BRANCH  13  14
ATOM     14  C   LIG A   1      -8.776  -1.562 126.115  0.00  0.00    +0.163 C 
BRANCH  14  15
ATOM     15  C   LIG A   1      -9.407  -2.905 125.746  0.00  0.00    +0.028 C 
BRANCH  15  16
ATOM     16  C   LIG A   1      -8.737  -3.549 124.529  0.00  0.00    -0.001 C 
ATOM     17  C   LIG A   1      -9.405  -3.121 123.232  0.00  0.00    +0.004 C 
ENDBRANCH  15  16
ENDBRANCH  14  15
ENDBRANCH  13  14
ENDBRANCH   4  13
BRANCH   2  18
ATOM     18  C   LIG A   1      -7.162   2.302 122.874  0.00  0.00    +0.190 C 
BRANCH  18  19
ATOM     19  O   LIG A   1      -7.925   3.409 122.394  0.00  0.00    -0.392 OA
ATOM     20  H   LIG A   1      -8.324   3.109 121.554  0.00  0.00    +0.209 HD
ENDBRANCH  18  19
ENDBRANCH   2  18
TORSDOF 10
ENDMDL
MODEL 6
REMARK VINA RESULT:      -4.6      8.100     10.343
REMARK  Name = NuBBE_1031
REMARK  11 active torsions:
REMARK  status: ('A' for Active; 'I' for Inactive)
REMARK    1  A    between atoms: O_1  and  C_2
REMARK    2  A    between atoms: C_4  and  C_18
REMARK    3  A    between atoms: C_7  and  C_11
REMARK    4  A    between atoms: C_7  and  O_13
REMARK    5  A    between atoms: C_8  and  O_10
REMARK    6  A    between atoms: C_11  and  O_12
REMARK    7  A    between atoms: O_13  and  C_14
REMARK    8  A    between atoms: C_14  and  C_15
REMARK    9  A    between atoms: C_15  and  C_16
REMARK   10  A    between atoms: C_16  and  C_17
REMARK   11  A    between atoms: C_18  and  O_19
REMARK                            x       y       z     vdW  Elec       q    Type
REMARK                         _______ _______ _______ _____ _____    ______ ____
ROOT
ATOM      1  C   LIG A   1      -7.615   0.088 124.919  0.00  0.00    +0.179 C 
ATOM      2  C   LIG A   1      -9.098   0.259 124.613  0.00  0.00    +0.178 C 
ATOM      3  O   LIG A   1      -9.749  -0.975 124.986  0.00  0.00    -0.336 OA
ATOM      4  C   LIG A   1      -8.754  -2.000 125.191  0.00  0.00    +0.223 C 
ATOM      5  C   LIG A   1      -7.391  -1.407 124.733  0.00  0.00    +0.207 C 
ENDROOT
BRANCH   1   6
ATOM      6  O   LIG A   1      -7.329   0.467 126.267  0.00  0.00    -0.386 OA
ATOM      7  H   LIG A   1      -6.662   1.180 126.240  0.00  0.00    +0.210 HD
ENDBRANCH   1   6
BRANCH   5   8
ATOM      8  O   LIG A   1      -7.064  -1.677 123.363  0.00  0.00    -0.384 OA
ATOM      9  H   LIG A   1      -6.562  -2.516 123.357  0.00  0.00    +0.210 HD
ENDBRANCH   5   8
BRANCH   4  10
ATOM     10  C   LIG A   1      -9.156  -3.263 124.386  0.00  0.00    +0.223 C 
BRANCH  10  11
ATOM     11  O   LIG A   1     -10.034  -2.992 123.290  0.00  0.00    -0.390 OA
ATOM     12  H   LIG A   1     -10.211  -2.027 123.316  0.00  0.00    +0.210 HD
ENDBRANCH  10  11
ENDBRANCH   4  10
BRANCH   4  13
ATOM     13  O   LIG A   1      -8.622  -2.256 126.606  0.00  0.00    -0.345 OA
BRANCH  13  14
ATOM     14  C   LIG A   1      -8.924  -3.592 127.005  0.00  0.00    +0.163 C 
BRANCH  14  15
ATOM     15  C   LIG A   1      -8.805  -3.715 128.525  0.00  0.00    +0.028 C 
BRANCH  15  16
ATOM     16  C   LIG A   1      -7.467  -3.187 129.049  0.00  0.00    -0.001 C 
ATOM     17  C   LIG A   1      -7.648  -2.376 130.324  0.00  0.00    +0.004 C 
ENDBRANCH  15  16
ENDBRANCH  14  15
ENDBRANCH  13  14
ENDBRANCH   4  13
BRANCH   2  18
ATOM     18  C   LIG A   1      -9.384   0.522 123.129  0.00  0.00    +0.190 C 
BRANCH  18  19
ATOM     19  O   LIG A   1     -10.518  -0.238 122.709  0.00  0.00    -0.392 OA
ATOM     20  H   LIG A   1     -10.711  -0.851 123.445  0.00  0.00    +0.209 HD
ENDBRANCH  18  19
ENDBRANCH   2  18
TORSDOF 10
ENDMDL
MODEL 7
REMARK VINA RESULT:      -4.4      7.928      8.980
REMARK  Name = NuBBE_1031
REMARK  11 active torsions:
REMARK  status: ('A' for Active; 'I' for Inactive)
REMARK    1  A    between atoms: O_1  and  C_2
REMARK    2  A    between atoms: C_4  and  C_18
REMARK    3  A    between atoms: C_7  and  C_11
REMARK    4  A    between atoms: C_7  and  O_13
REMARK    5  A    between atoms: C_8  and  O_10
REMARK    6  A    between atoms: C_11  and  O_12
REMARK    7  A    between atoms: O_13  and  C_14
REMARK    8  A    between atoms: C_14  and  C_15
REMARK    9  A    between atoms: C_15  and  C_16
REMARK   10  A    between atoms: C_16  and  C_17
REMARK   11  A    between atoms: C_18  and  O_19
REMARK                            x       y       z     vdW  Elec       q    Type
REMARK                         _______ _______ _______ _____ _____    ______ ____
ROOT
ATOM      1  C   LIG A   1      -7.943  -0.071 125.636  0.00  0.00    +0.179 C 
ATOM      2  C   LIG A   1      -7.633  -0.852 124.364  0.00  0.00    +0.178 C 
ATOM      3  O   LIG A   1      -7.946   0.014 123.253  0.00  0.00    -0.336 OA
ATOM      4  C   LIG A   1      -8.723   1.136 123.722  0.00  0.00    +0.223 C 
ATOM      5  C   LIG A   1      -9.075   0.854 125.210  0.00  0.00    +0.207 C 
ENDROOT
BRANCH   1   6
ATOM      6  O   LIG A   1      -6.809   0.696 126.048  0.00  0.00    -0.386 OA
ATOM      7  H   LIG A   1      -6.633   1.362 125.356  0.00  0.00    +0.210 HD
ENDBRANCH   1   6
BRANCH   5   8
ATOM      8  O   LIG A   1     -10.333   0.191 125.399  0.00  0.00    -0.384 OA
ATOM      9  H   LIG A   1     -10.416  -0.461 124.676  0.00  0.00    +0.210 HD
ENDBRANCH   5   8
BRANCH   4  10
ATOM     10  C   LIG A   1      -9.981   1.289 122.829  0.00  0.00    +0.223 C 
BRANCH  10  11
ATOM     11  O   LIG A   1     -10.537   0.044 122.399  0.00  0.00    -0.390 OA
ATOM     12  H   LIG A   1     -10.388  -0.000 121.430  0.00  0.00    +0.210 HD
ENDBRANCH  10  11
ENDBRANCH   4  10
BRANCH   4  13
ATOM     13  O   LIG A   1      -7.893   2.318 123.727  0.00  0.00    -0.345 OA
BRANCH  13  14
ATOM     14  C   LIG A   1      -6.805   2.291 122.804  0.00  0.00    +0.163 C 
BRANCH  14  15
ATOM     15  C   LIG A   1      -7.010   3.366 121.736  0.00  0.00    +0.028 C 
BRANCH  15  16
ATOM     16  C   LIG A   1      -5.737   3.634 120.926  0.00  0.00    -0.001 C 
ATOM     17  C   LIG A   1      -4.799   4.582 121.658  0.00  0.00    +0.004 C 
ENDBRANCH  15  16
ENDBRANCH  14  15
ENDBRANCH  13  14
ENDBRANCH   4  13
BRANCH   2  18
ATOM     18  C   LIG A   1      -8.465  -2.133 124.223  0.00  0.00    +0.190 C 
BRANCH  18  19
ATOM     19  O   LIG A   1      -8.864  -2.307 122.863  0.00  0.00    -0.392 OA
ATOM     20  H   LIG A   1      -8.523  -3.184 122.600  0.00  0.00    +0.209 HD
ENDBRANCH  18  19
ENDBRANCH   2  18
TORSDOF 10
ENDMDL
MODEL 8
REMARK VINA RESULT:      -4.4      2.125      4.635
REMARK  Name = NuBBE_1031
REMARK  11 active torsions:
REMARK  status: ('A' for Active; 'I' for Inactive)
REMARK    1  A    between atoms: O_1  and  C_2
REMARK    2  A    between atoms: C_4  and  C_18
REMARK    3  A    between atoms: C_7  and  C_11
REMARK    4  A    between atoms: C_7  and  O_13
REMARK    5  A    between atoms: C_8  and  O_10
REMARK    6  A    between atoms: C_11  and  O_12
REMARK    7  A    between atoms: O_13  and  C_14
REMARK    8  A    between atoms: C_14  and  C_15
REMARK    9  A    between atoms: C_15  and  C_16
REMARK   10  A    between atoms: C_16  and  C_17
REMARK   11  A    between atoms: C_18  and  O_19
REMARK                            x       y       z     vdW  Elec       q    Type
REMARK                         _______ _______ _______ _____ _____    ______ ____
ROOT
ATOM      1  C   LIG A   1     -10.668   6.115 128.898  0.00  0.00    +0.179 C 
ATOM      2  C   LIG A   1     -11.351   7.206 129.713  0.00  0.00    +0.178 C 
ATOM      3  O   LIG A   1     -10.487   7.495 130.834  0.00  0.00    -0.336 OA
ATOM      4  C   LIG A   1      -9.494   6.455 130.956  0.00  0.00    +0.223 C 
ATOM      5  C   LIG A   1      -9.880   5.338 129.944  0.00  0.00    +0.207 C 
ENDROOT
BRANCH   1   6
ATOM      6  O   LIG A   1      -9.780   6.685 127.933  0.00  0.00    -0.386 OA
ATOM      7  H   LIG A   1      -9.343   5.950 127.461  0.00  0.00    +0.210 HD
ENDBRANCH   1   6
BRANCH   5   8
ATOM      8  O   LIG A   1     -10.706   4.305 130.498  0.00  0.00    -0.384 OA
ATOM      9  H   LIG A   1     -11.627   4.525 130.257  0.00  0.00    +0.210 HD
ENDBRANCH   5   8
BRANCH   4  10
ATOM     10  C   LIG A   1      -9.468   5.949 132.422  0.00  0.00    +0.223 C 
BRANCH  10  11
ATOM     11  O   LIG A   1     -10.753   5.574 132.924  0.00  0.00    -0.390 OA
ATOM     12  H   LIG A   1     -11.119   6.373 133.358  0.00  0.00    +0.210 HD
ENDBRANCH  10  11
ENDBRANCH   4  10
BRANCH   4  13
ATOM     13  O   LIG A   1      -8.217   6.966 130.517  0.00  0.00    -0.345 OA
BRANCH  13  14
ATOM     14  C   LIG A   1      -7.118   6.075 130.703  0.00  0.00    +0.163 C 
BRANCH  14  15
ATOM     15  C   LIG A   1      -5.928   6.840 131.286  0.00  0.00    +0.028 C 
BRANCH  15  16
ATOM     16  C   LIG A   1      -4.722   6.848 130.342  0.00  0.00    -0.001 C 
ATOM     17  C   LIG A   1      -3.730   7.939 130.715  0.00  0.00    +0.004 C 
ENDBRANCH  15  16
ENDBRANCH  14  15
ENDBRANCH  13  14
ENDBRANCH   4  13
BRANCH   2  18
ATOM     18  C   LIG A   1     -12.721   6.786 130.260  0.00  0.00    +0.190 C 
BRANCH  18  19
ATOM     19  O   LIG A   1     -12.817   7.120 131.645  0.00  0.00    -0.392 OA
ATOM     20  H   LIG A   1     -12.519   6.325 132.128  0.00  0.00    +0.209 HD
ENDBRANCH  18  19
ENDBRANCH   2  18
TORSDOF 10
ENDMDL
MODEL 9
REMARK VINA RESULT:      -4.3      1.590      3.434
REMARK  Name = NuBBE_1031
REMARK  11 active torsions:
REMARK  status: ('A' for Active; 'I' for Inactive)
REMARK    1  A    between atoms: O_1  and  C_2
REMARK    2  A    between atoms: C_4  and  C_18
REMARK    3  A    between atoms: C_7  and  C_11
REMARK    4  A    between atoms: C_7  and  O_13
REMARK    5  A    between atoms: C_8  and  O_10
REMARK    6  A    between atoms: C_11  and  O_12
REMARK    7  A    between atoms: O_13  and  C_14
REMARK    8  A    between atoms: C_14  and  C_15
REMARK    9  A    between atoms: C_15  and  C_16
REMARK   10  A    between atoms: C_16  and  C_17
REMARK   11  A    between atoms: C_18  and  O_19
REMARK                            x       y       z     vdW  Elec       q    Type
REMARK                         _______ _______ _______ _____ _____    ______ ____
ROOT
ATOM      1  C   LIG A   1      -8.743   5.767 132.408  0.00  0.00    +0.179 C 
ATOM      2  C   LIG A   1      -7.936   6.775 131.599  0.00  0.00    +0.178 C 
ATOM      3  O   LIG A   1      -8.415   6.702 130.239  0.00  0.00    -0.336 OA
ATOM      4  C   LIG A   1      -9.218   5.514 130.076  0.00  0.00    +0.223 C 
ATOM      5  C   LIG A   1      -9.079   4.688 131.387  0.00  0.00    +0.207 C 
ENDROOT
BRANCH   1   6
ATOM      6  O   LIG A   1      -9.942   6.363 132.909  0.00  0.00    -0.386 OA
ATOM      7  H   LIG A   1     -10.226   5.849 133.690  0.00  0.00    +0.210 HD
ENDBRANCH   1   6
BRANCH   5   8
ATOM      8  O   LIG A   1      -8.028   3.712 131.357  0.00  0.00    -0.384 OA
ATOM      9  H   LIG A   1      -7.191   4.206 131.256  0.00  0.00    +0.210 HD
ENDBRANCH   5   8
BRANCH   4  10
ATOM     10  C   LIG A   1      -8.725   4.738 128.827  0.00  0.00    +0.223 C 
BRANCH  10  11
ATOM     11  O   LIG A   1      -7.308   4.790 128.639  0.00  0.00    -0.390 OA
ATOM     12  H   LIG A   1      -7.033   3.881 128.396  0.00  0.00    +0.210 HD
ENDBRANCH  10  11
ENDBRANCH   4  10
BRANCH   4  13
ATOM     13  O   LIG A   1     -10.609   5.890 129.988  0.00  0.00    -0.345 OA
BRANCH  13  14
ATOM     14  C   LIG A   1     -10.847   7.185 129.437  0.00  0.00    +0.163 C 
BRANCH  14  15
ATOM     15  C   LIG A   1     -11.902   7.089 128.335  0.00  0.00    +0.028 C 
BRANCH  15  16
ATOM     16  C   LIG A   1     -13.166   7.888 128.666  0.00  0.00    -0.001 C 
ATOM     17  C   LIG A   1     -12.827   9.259 129.233  0.00  0.00    +0.004 C 
ENDBRANCH  15  16
ENDBRANCH  14  15
ENDBRANCH  13  14
ENDBRANCH   4  13
BRANCH   2  18
ATOM     18  C   LIG A   1      -6.431   6.481 131.594  0.00  0.00    +0.190 C 
BRANCH  18  19
ATOM     19  O   LIG A   1      -5.884   6.759 130.304  0.00  0.00    -0.392 OA
ATOM     20  H   LIG A   1      -5.838   7.733 130.243  0.00  0.00    +0.209 HD
ENDBRANCH  18  19
ENDBRANCH   2  18
TORSDOF 10
ENDMDL
