MODEL 1
REMARK VINA RESULT:      -9.3      0.000      0.000
REMARK  Name = NuBBE_1320
REMARK  3 active torsions:
REMARK  status: ('A' for Active; 'I' for Inactive)
REMARK    1  A    between atoms: C_4  and  C_5
REMARK    2  A    between atoms: C_17  and  C_18
REMARK    3  A    between atoms: C_17  and  C_19
REMARK                            x       y       z     vdW  Elec       q    Type
REMARK                         _______ _______ _______ _____ _____    ______ ____
ROOT
ATOM      1  O   LIG A   1      -8.373   5.218 133.909  0.00  0.00    -0.287 OA
ATOM      2  C   LIG A   1      -8.250   5.749 132.814  0.00  0.00    +0.193 A 
ATOM      3  C   LIG A   1      -6.923   5.933 132.209  0.00  0.00    +0.098 A 
ATOM      4  C   LIG A   1      -6.830   6.510 131.004  0.00  0.00    +0.139 A 
ATOM      5  O   LIG A   1      -7.913   6.972 130.275  0.00  0.00    -0.454 OA
ATOM      6  C   LIG A   1      -9.401   6.232 132.037  0.00  0.00    +0.065 A 
ATOM      7  C   LIG A   1      -9.180   6.826 130.794  0.00  0.00    +0.150 A 
ATOM      8  C   LIG A   1     -10.267   7.297 130.037  0.00  0.00    +0.059 A 
ATOM      9  C   LIG A   1     -10.088   7.914 128.728  0.00  0.00    +0.015 C 
ATOM     10  C   LIG A   1     -11.168   8.376 128.092  0.00  0.00    +0.020 C 
ATOM     11  C   LIG A   1     -12.566   8.288 128.655  0.00  0.00    +0.123 C 
ATOM     12  C   LIG A   1     -13.107   9.702 128.900  0.00  0.00    +0.060 C 
ATOM     13  C   LIG A   1     -13.468   7.556 127.655  0.00  0.00    +0.060 C 
ATOM     14  O   LIG A   1     -12.692   7.576 129.903  0.00  0.00    -0.481 OA
ATOM     15  C   LIG A   1     -11.562   7.162 130.551  0.00  0.00    +0.132 A 
ATOM     16  C   LIG A   1     -11.776   6.561 131.795  0.00  0.00    +0.047 A 
ATOM     17  C   LIG A   1     -10.697   6.096 132.543  0.00  0.00    +0.019 A 
ENDROOT
BRANCH   4  18
ATOM     18  C   LIG A   1      -5.526   6.734 130.350  0.00  0.00    +0.017 A 
ATOM     19  C   LIG A   1      -4.843   5.659 129.761  0.00  0.00    +0.011 A 
ATOM     20  C   LIG A   1      -3.603   5.848 129.147  0.00  0.00    +0.001 A 
ATOM     21  C   LIG A   1      -3.026   7.115 129.119  0.00  0.00    +0.000 A 
ATOM     22  C   LIG A   1      -3.685   8.192 129.708  0.00  0.00    +0.001 A 
ATOM     23  C   LIG A   1      -4.926   8.003 130.322  0.00  0.00    +0.011 A 
ENDBRANCH   4  18
TORSDOF 1
ENDMDL
MODEL 2
REMARK VINA RESULT:      -9.0      8.728     10.419
REMARK  Name = NuBBE_1320
REMARK  3 active torsions:
REMARK  status: ('A' for Active; 'I' for Inactive)
REMARK    1  A    between atoms: C_4  and  C_5
REMARK    2  A    between atoms: C_17  and  C_18
REMARK    3  A    between atoms: C_17  and  C_19
REMARK                            x       y       z     vdW  Elec       q    Type
REMARK                         _______ _______ _______ _____ _____    ______ ____
ROOT
ATOM      1  O   LIG A   1      -5.758   4.182 126.104  0.00  0.00    -0.287 OA
ATOM      2  C   LIG A   1      -6.054   3.520 125.118  0.00  0.00    +0.193 A 
ATOM      3  C   LIG A   1      -6.072   4.126 123.780  0.00  0.00    +0.098 A 
ATOM      4  C   LIG A   1      -6.392   3.366 122.724  0.00  0.00    +0.139 A 
ATOM      5  O   LIG A   1      -6.731   2.025 122.803  0.00  0.00    -0.454 OA
ATOM      6  C   LIG A   1      -6.405   2.094 125.202  0.00  0.00    +0.065 A 
ATOM      7  C   LIG A   1      -6.730   1.406 124.032  0.00  0.00    +0.150 A 
ATOM      8  C   LIG A   1      -7.072   0.044 124.090  0.00  0.00    +0.059 A 
ATOM      9  C   LIG A   1      -7.408  -0.722 122.895  0.00  0.00    +0.015 C 
ATOM     10  C   LIG A   1      -7.764  -2.001 123.040  0.00  0.00    +0.020 C 
ATOM     11  C   LIG A   1      -7.833  -2.698 124.378  0.00  0.00    +0.123 C 
ATOM     12  C   LIG A   1      -9.283  -3.106 124.666  0.00  0.00    +0.060 C 
ATOM     13  C   LIG A   1      -6.943  -3.945 124.344  0.00  0.00    +0.060 C 
ATOM     14  O   LIG A   1      -7.391  -1.921 125.510  0.00  0.00    -0.481 OA
ATOM     15  C   LIG A   1      -7.082  -0.602 125.332  0.00  0.00    +0.132 A 
ATOM     16  C   LIG A   1      -6.751   0.094 126.500  0.00  0.00    +0.047 A 
ATOM     17  C   LIG A   1      -6.413   1.443 126.438  0.00  0.00    +0.019 A 
ENDROOT
BRANCH   4  18
ATOM     18  C   LIG A   1      -6.440   3.919 121.357  0.00  0.00    +0.017 A 
ATOM     19  C   LIG A   1      -5.334   4.611 120.841  0.00  0.00    +0.011 A 
ATOM     20  C   LIG A   1      -5.364   5.151 119.553  0.00  0.00    +0.001 A 
ATOM     21  C   LIG A   1      -6.504   5.011 118.766  0.00  0.00    +0.000 A 
ATOM     22  C   LIG A   1      -7.615   4.336 119.265  0.00  0.00    +0.001 A 
ATOM     23  C   LIG A   1      -7.585   3.795 120.553  0.00  0.00    +0.011 A 
ENDBRANCH   4  18
TORSDOF 1
ENDMDL
MODEL 3
REMARK VINA RESULT:      -8.6      1.649      6.736
REMARK  Name = NuBBE_1320
REMARK  3 active torsions:
REMARK  status: ('A' for Active; 'I' for Inactive)
REMARK    1  A    between atoms: C_4  and  C_5
REMARK    2  A    between atoms: C_17  and  C_18
REMARK    3  A    between atoms: C_17  and  C_19
REMARK                            x       y       z     vdW  Elec       q    Type
REMARK                         _______ _______ _______ _____ _____    ______ ____
ROOT
ATOM      1  O   LIG A   1      -9.555   4.080 133.743  0.00  0.00    -0.287 OA
ATOM      2  C   LIG A   1      -9.151   4.898 132.929  0.00  0.00    +0.193 A 
ATOM      3  C   LIG A   1     -10.084   5.611 132.046  0.00  0.00    +0.098 A 
ATOM      4  C   LIG A   1      -9.603   6.508 131.174  0.00  0.00    +0.139 A 
ATOM      5  O   LIG A   1      -8.259   6.807 131.027  0.00  0.00    -0.454 OA
ATOM      6  C   LIG A   1      -7.724   5.222 132.779  0.00  0.00    +0.065 A 
ATOM      7  C   LIG A   1      -7.339   6.169 131.828  0.00  0.00    +0.150 A 
ATOM      8  C   LIG A   1      -5.981   6.491 131.666  0.00  0.00    +0.059 A 
ATOM      9  C   LIG A   1      -5.530   7.481 130.695  0.00  0.00    +0.015 C 
ATOM     10  C   LIG A   1      -4.218   7.698 130.572  0.00  0.00    +0.020 C 
ATOM     11  C   LIG A   1      -3.175   6.974 131.391  0.00  0.00    +0.123 C 
ATOM     12  C   LIG A   1      -2.298   6.125 130.463  0.00  0.00    +0.060 C 
ATOM     13  C   LIG A   1      -2.307   8.002 132.125  0.00  0.00    +0.060 C 
ATOM     14  O   LIG A   1      -3.685   6.084 132.405  0.00  0.00    -0.481 OA
ATOM     15  C   LIG A   1      -5.030   5.848 132.468  0.00  0.00    +0.132 A 
ATOM     16  C   LIG A   1      -5.424   4.904 133.422  0.00  0.00    +0.047 A 
ATOM     17  C   LIG A   1      -6.771   4.587 133.579  0.00  0.00    +0.019 A 
ENDROOT
BRANCH   4  18
ATOM     18  C   LIG A   1     -10.489   7.246 130.253  0.00  0.00    +0.017 A 
ATOM     19  C   LIG A   1     -11.862   7.336 130.523  0.00  0.00    +0.011 A 
ATOM     20  C   LIG A   1     -12.718   8.022 129.658  0.00  0.00    +0.001 A 
ATOM     21  C   LIG A   1     -12.212   8.621 128.508  0.00  0.00    +0.000 A 
ATOM     22  C   LIG A   1     -10.852   8.534 128.219  0.00  0.00    +0.001 A 
ATOM     23  C   LIG A   1      -9.996   7.848 129.084  0.00  0.00    +0.011 A 
ENDBRANCH   4  18
TORSDOF 1
ENDMDL
MODEL 4
REMARK VINA RESULT:      -8.6      7.107      9.304
REMARK  Name = NuBBE_1320
REMARK  3 active torsions:
REMARK  status: ('A' for Active; 'I' for Inactive)
REMARK    1  A    between atoms: C_4  and  C_5
REMARK    2  A    between atoms: C_17  and  C_18
REMARK    3  A    between atoms: C_17  and  C_19
REMARK                            x       y       z     vdW  Elec       q    Type
REMARK                         _______ _______ _______ _____ _____    ______ ____
ROOT
ATOM      1  O   LIG A   1     -10.457   0.873 124.468  0.00  0.00    -0.287 OA
ATOM      2  C   LIG A   1      -9.500   1.596 124.227  0.00  0.00    +0.193 A 
ATOM      3  C   LIG A   1      -9.284   2.138 122.878  0.00  0.00    +0.098 A 
ATOM      4  C   LIG A   1      -8.229   2.935 122.656  0.00  0.00    +0.139 A 
ATOM      5  O   LIG A   1      -7.297   3.280 123.621  0.00  0.00    -0.454 OA
ATOM      6  C   LIG A   1      -8.515   1.969 125.253  0.00  0.00    +0.065 A 
ATOM      7  C   LIG A   1      -7.450   2.800 124.901  0.00  0.00    +0.150 A 
ATOM      8  C   LIG A   1      -6.496   3.166 125.867  0.00  0.00    +0.059 A 
ATOM      9  C   LIG A   1      -5.373   4.041 125.552  0.00  0.00    +0.015 C 
ATOM     10  C   LIG A   1      -4.486   4.306 126.514  0.00  0.00    +0.020 C 
ATOM     11  C   LIG A   1      -4.587   3.750 127.915  0.00  0.00    +0.123 C 
ATOM     12  C   LIG A   1      -3.390   2.831 128.187  0.00  0.00    +0.060 C 
ATOM     13  C   LIG A   1      -4.588   4.908 128.919  0.00  0.00    +0.060 C 
ATOM     14  O   LIG A   1      -5.772   2.977 128.194  0.00  0.00    -0.481 OA
ATOM     15  C   LIG A   1      -6.633   2.684 127.174  0.00  0.00    +0.132 A 
ATOM     16  C   LIG A   1      -7.705   1.855 127.520  0.00  0.00    +0.047 A 
ATOM     17  C   LIG A   1      -8.648   1.494 126.561  0.00  0.00    +0.019 A 
ENDROOT
BRANCH   4  18
ATOM     18  C   LIG A   1      -7.952   3.500 121.322  0.00  0.00    +0.017 A 
ATOM     19  C   LIG A   1      -6.635   3.813 120.953  0.00  0.00    +0.011 A 
ATOM     20  C   LIG A   1      -6.354   4.359 119.698  0.00  0.00    +0.001 A 
ATOM     21  C   LIG A   1      -7.387   4.604 118.798  0.00  0.00    +0.000 A 
ATOM     22  C   LIG A   1      -8.701   4.309 119.151  0.00  0.00    +0.001 A 
ATOM     23  C   LIG A   1      -8.983   3.763 120.406  0.00  0.00    +0.011 A 
ENDBRANCH   4  18
TORSDOF 1
ENDMDL
MODEL 5
REMARK VINA RESULT:      -8.5      8.588     10.420
REMARK  Name = NuBBE_1320
REMARK  3 active torsions:
REMARK  status: ('A' for Active; 'I' for Inactive)
REMARK    1  A    between atoms: C_4  and  C_5
REMARK    2  A    between atoms: C_17  and  C_18
REMARK    3  A    between atoms: C_17  and  C_19
REMARK                            x       y       z     vdW  Elec       q    Type
REMARK                         _______ _______ _______ _____ _____    ______ ____
ROOT
ATOM      1  O   LIG A   1      -9.751  -1.947 123.255  0.00  0.00    -0.287 OA
ATOM      2  C   LIG A   1      -8.989  -1.381 124.027  0.00  0.00    +0.193 A 
ATOM      3  C   LIG A   1      -8.354  -0.107 123.662  0.00  0.00    +0.098 A 
ATOM      4  C   LIG A   1      -7.533   0.487 124.539  0.00  0.00    +0.139 A 
ATOM      5  O   LIG A   1      -7.218  -0.029 125.784  0.00  0.00    -0.454 OA
ATOM      6  C   LIG A   1      -8.662  -1.925 125.353  0.00  0.00    +0.065 A 
ATOM      7  C   LIG A   1      -7.785  -1.219 126.179  0.00  0.00    +0.150 A 
ATOM      8  C   LIG A   1      -7.456  -1.724 127.449  0.00  0.00    +0.059 A 
ATOM      9  C   LIG A   1      -6.554  -1.018 128.352  0.00  0.00    +0.015 C 
ATOM     10  C   LIG A   1      -6.259  -1.586 129.524  0.00  0.00    +0.020 C 
ATOM     11  C   LIG A   1      -6.814  -2.919 129.966  0.00  0.00    +0.123 C 
ATOM     12  C   LIG A   1      -5.666  -3.927 130.111  0.00  0.00    +0.060 C 
ATOM     13  C   LIG A   1      -7.524  -2.749 131.314  0.00  0.00    +0.060 C 
ATOM     14  O   LIG A   1      -7.779  -3.519 129.078  0.00  0.00    -0.481 OA
ATOM     15  C   LIG A   1      -8.019  -2.936 127.865  0.00  0.00    +0.132 A 
ATOM     16  C   LIG A   1      -8.901  -3.635 127.034  0.00  0.00    +0.047 A 
ATOM     17  C   LIG A   1      -9.224  -3.133 125.776  0.00  0.00    +0.019 A 
ENDROOT
BRANCH   4  18
ATOM     18  C   LIG A   1      -6.855   1.760 124.226  0.00  0.00    +0.017 A 
ATOM     19  C   LIG A   1      -6.936   2.298 122.933  0.00  0.00    +0.011 A 
ATOM     20  C   LIG A   1      -6.292   3.497 122.615  0.00  0.00    +0.001 A 
ATOM     21  C   LIG A   1      -5.554   4.170 123.584  0.00  0.00    +0.000 A 
ATOM     22  C   LIG A   1      -5.455   3.645 124.871  0.00  0.00    +0.001 A 
ATOM     23  C   LIG A   1      -6.099   2.446 125.190  0.00  0.00    +0.011 A 
ENDBRANCH   4  18
TORSDOF 1
ENDMDL
MODEL 6
REMARK VINA RESULT:      -8.4      7.719     10.487
REMARK  Name = NuBBE_1320
REMARK  3 active torsions:
REMARK  status: ('A' for Active; 'I' for Inactive)
REMARK    1  A    between atoms: C_4  and  C_5
REMARK    2  A    between atoms: C_17  and  C_18
REMARK    3  A    between atoms: C_17  and  C_19
REMARK                            x       y       z     vdW  Elec       q    Type
REMARK                         _______ _______ _______ _____ _____    ______ ____
ROOT
ATOM      1  O   LIG A   1      -8.823   3.326 122.105  0.00  0.00    -0.287 OA
ATOM      2  C   LIG A   1      -8.311   2.564 122.914  0.00  0.00    +0.193 A 
ATOM      3  C   LIG A   1      -8.818   1.196 123.089  0.00  0.00    +0.098 A 
ATOM      4  C   LIG A   1      -8.224   0.389 123.978  0.00  0.00    +0.139 A 
ATOM      5  O   LIG A   1      -7.153   0.760 124.774  0.00  0.00    -0.454 OA
ATOM      6  C   LIG A   1      -7.168   2.956 123.753  0.00  0.00    +0.065 A 
ATOM      7  C   LIG A   1      -6.637   2.030 124.652  0.00  0.00    +0.150 A 
ATOM      8  C   LIG A   1      -5.547   2.386 125.465  0.00  0.00    +0.059 A 
ATOM      9  C   LIG A   1      -4.950   1.450 126.411  0.00  0.00    +0.015 C 
ATOM     10  C   LIG A   1      -3.945   1.880 127.179  0.00  0.00    +0.020 C 
ATOM     11  C   LIG A   1      -3.391   3.283 127.116  0.00  0.00    +0.123 C 
ATOM     12  C   LIG A   1      -3.640   3.990 128.454  0.00  0.00    +0.060 C 
ATOM     13  C   LIG A   1      -1.885   3.220 126.838  0.00  0.00    +0.060 C 
ATOM     14  O   LIG A   1      -3.952   4.130 126.092  0.00  0.00    -0.481 OA
ATOM     15  C   LIG A   1      -5.012   3.675 125.358  0.00  0.00    +0.132 A 
ATOM     16  C   LIG A   1      -5.547   4.596 124.452  0.00  0.00    +0.047 A 
ATOM     17  C   LIG A   1      -6.627   4.241 123.648  0.00  0.00    +0.019 A 
ENDROOT
BRANCH   4  18
ATOM     18  C   LIG A   1      -8.695  -0.991 124.208  0.00  0.00    +0.017 A 
ATOM     19  C   LIG A   1      -8.848  -1.470 125.517  0.00  0.00    +0.011 A 
ATOM     20  C   LIG A   1      -9.282  -2.776 125.755  0.00  0.00    +0.001 A 
ATOM     21  C   LIG A   1      -9.563  -3.623 124.686  0.00  0.00    +0.000 A 
ATOM     22  C   LIG A   1      -9.407  -3.167 123.379  0.00  0.00    +0.001 A 
ATOM     23  C   LIG A   1      -8.972  -1.860 123.141  0.00  0.00    +0.011 A 
ENDBRANCH   4  18
TORSDOF 1
ENDMDL
MODEL 7
REMARK VINA RESULT:      -7.9      9.081     10.385
REMARK  Name = NuBBE_1320
REMARK  3 active torsions:
REMARK  status: ('A' for Active; 'I' for Inactive)
REMARK    1  A    between atoms: C_4  and  C_5
REMARK    2  A    between atoms: C_17  and  C_18
REMARK    3  A    between atoms: C_17  and  C_19
REMARK                            x       y       z     vdW  Elec       q    Type
REMARK                         _______ _______ _______ _____ _____    ______ ____
ROOT
ATOM      1  O   LIG A   1      -8.092   1.459 130.048  0.00  0.00    -0.287 OA
ATOM      2  C   LIG A   1      -7.859   0.329 129.639  0.00  0.00    +0.193 A 
ATOM      3  C   LIG A   1      -7.355  -0.713 130.544  0.00  0.00    +0.098 A 
ATOM      4  C   LIG A   1      -7.122  -1.940 130.061  0.00  0.00    +0.139 A 
ATOM      5  O   LIG A   1      -7.308  -2.305 128.738  0.00  0.00    -0.454 OA
ATOM      6  C   LIG A   1      -8.066  -0.060 128.236  0.00  0.00    +0.065 A 
ATOM      7  C   LIG A   1      -7.779  -1.369 127.845  0.00  0.00    +0.150 A 
ATOM      8  C   LIG A   1      -7.966  -1.760 126.508  0.00  0.00    +0.059 A 
ATOM      9  C   LIG A   1      -7.692  -3.119 126.054  0.00  0.00    +0.015 C 
ATOM     10  C   LIG A   1      -7.853  -3.399 124.758  0.00  0.00    +0.020 C 
ATOM     11  C   LIG A   1      -8.310  -2.383 123.738  0.00  0.00    +0.123 C 
ATOM     12  C   LIG A   1      -7.193  -2.150 122.714  0.00  0.00    +0.060 C 
ATOM     13  C   LIG A   1      -9.561  -2.910 123.026  0.00  0.00    +0.060 C 
ATOM     14  O   LIG A   1      -8.665  -1.088 124.264  0.00  0.00    -0.481 OA
ATOM     15  C   LIG A   1      -8.439  -0.820 125.585  0.00  0.00    +0.132 A 
ATOM     16  C   LIG A   1      -8.728   0.488 125.985  0.00  0.00    +0.047 A 
ATOM     17  C   LIG A   1      -8.541   0.873 127.310  0.00  0.00    +0.019 A 
ENDROOT
BRANCH   4  18
ATOM     18  C   LIG A   1      -6.604  -3.025 130.917  0.00  0.00    +0.017 A 
ATOM     19  C   LIG A   1      -6.809  -2.982 132.304  0.00  0.00    +0.011 A 
ATOM     20  C   LIG A   1      -6.317  -3.994 133.131  0.00  0.00    +0.001 A 
ATOM     21  C   LIG A   1      -5.607  -5.059 132.584  0.00  0.00    +0.000 A 
ATOM     22  C   LIG A   1      -5.385  -5.112 131.209  0.00  0.00    +0.001 A 
ATOM     23  C   LIG A   1      -5.877  -4.100 130.381  0.00  0.00    +0.011 A 
ENDBRANCH   4  18
TORSDOF 1
ENDMDL
MODEL 8
REMARK VINA RESULT:      -7.7      7.964      9.897
REMARK  Name = NuBBE_1320
REMARK  3 active torsions:
REMARK  status: ('A' for Active; 'I' for Inactive)
REMARK    1  A    between atoms: C_4  and  C_5
REMARK    2  A    between atoms: C_17  and  C_18
REMARK    3  A    between atoms: C_17  and  C_19
REMARK                            x       y       z     vdW  Elec       q    Type
REMARK                         _______ _______ _______ _____ _____    ______ ____
ROOT
ATOM      1  O   LIG A   1     -10.898   1.156 122.738  0.00  0.00    -0.287 OA
ATOM      2  C   LIG A   1      -9.747   1.472 123.006  0.00  0.00    +0.193 A 
ATOM      3  C   LIG A   1      -8.971   2.336 122.104  0.00  0.00    +0.098 A 
ATOM      4  C   LIG A   1      -7.717   2.668 122.437  0.00  0.00    +0.139 A 
ATOM      5  O   LIG A   1      -7.075   2.235 123.586  0.00  0.00    -0.454 OA
ATOM      6  C   LIG A   1      -9.069   1.020 124.230  0.00  0.00    +0.065 A 
ATOM      7  C   LIG A   1      -7.754   1.424 124.467  0.00  0.00    +0.150 A 
ATOM      8  C   LIG A   1      -7.087   1.000 125.629  0.00  0.00    +0.059 A 
ATOM      9  C   LIG A   1      -5.718   1.405 125.927  0.00  0.00    +0.015 C 
ATOM     10  C   LIG A   1      -5.140   0.923 127.030  0.00  0.00    +0.020 C 
ATOM     11  C   LIG A   1      -5.832  -0.016 127.989  0.00  0.00    +0.123 C 
ATOM     12  C   LIG A   1      -5.102  -1.365 127.997  0.00  0.00    +0.060 C 
ATOM     13  C   LIG A   1      -5.809   0.592 129.396  0.00  0.00    +0.060 C 
ATOM     14  O   LIG A   1      -7.216  -0.298 127.697  0.00  0.00    -0.481 OA
ATOM     15  C   LIG A   1      -7.760   0.170 126.534  0.00  0.00    +0.132 A 
ATOM     16  C   LIG A   1      -9.078  -0.227 126.292  0.00  0.00    +0.047 A 
ATOM     17  C   LIG A   1      -9.736   0.194 125.139  0.00  0.00    +0.019 A 
ENDROOT
BRANCH   4  18
ATOM     18  C   LIG A   1      -6.884   3.521 121.568  0.00  0.00    +0.017 A 
ATOM     19  C   LIG A   1      -5.642   3.987 122.025  0.00  0.00    +0.011 A 
ATOM     20  C   LIG A   1      -4.844   4.804 121.221  0.00  0.00    +0.001 A 
ATOM     21  C   LIG A   1      -5.281   5.172 119.951  0.00  0.00    +0.000 A 
ATOM     22  C   LIG A   1      -6.515   4.727 119.485  0.00  0.00    +0.001 A 
ATOM     23  C   LIG A   1      -7.314   3.909 120.289  0.00  0.00    +0.011 A 
ENDBRANCH   4  18
TORSDOF 1
ENDMDL
MODEL 9
REMARK VINA RESULT:      -7.7      8.213      9.801
REMARK  Name = NuBBE_1320
REMARK  3 active torsions:
REMARK  status: ('A' for Active; 'I' for Inactive)
REMARK    1  A    between atoms: C_4  and  C_5
REMARK    2  A    between atoms: C_17  and  C_18
REMARK    3  A    between atoms: C_17  and  C_19
REMARK                            x       y       z     vdW  Elec       q    Type
REMARK                         _______ _______ _______ _____ _____    ______ ____
ROOT
ATOM      1  O   LIG A   1      -9.762  -2.727 124.820  0.00  0.00    -0.287 OA
ATOM      2  C   LIG A   1      -8.843  -2.137 125.372  0.00  0.00    +0.193 A 
ATOM      3  C   LIG A   1      -8.102  -2.760 126.478  0.00  0.00    +0.098 A 
ATOM      4  C   LIG A   1      -7.094  -2.086 127.049  0.00  0.00    +0.139 A 
ATOM      5  O   LIG A   1      -6.700  -0.812 126.678  0.00  0.00    -0.454 OA
ATOM      6  C   LIG A   1      -8.419  -0.787 124.972  0.00  0.00    +0.065 A 
ATOM      7  C   LIG A   1      -7.359  -0.180 125.648  0.00  0.00    +0.150 A 
ATOM      8  C   LIG A   1      -6.940   1.111 125.283  0.00  0.00    +0.059 A 
ATOM      9  C   LIG A   1      -5.831   1.782 125.951  0.00  0.00    +0.015 C 
ATOM     10  C   LIG A   1      -5.524   3.026 125.575  0.00  0.00    +0.020 C 
ATOM     11  C   LIG A   1      -6.262   3.774 124.490  0.00  0.00    +0.123 C 
ATOM     12  C   LIG A   1      -6.958   4.998 125.097  0.00  0.00    +0.060 C 
ATOM     13  C   LIG A   1      -5.263   4.226 123.419  0.00  0.00    +0.060 C 
ATOM     14  O   LIG A   1      -7.279   3.022 123.797  0.00  0.00    -0.481 OA
ATOM     15  C   LIG A   1      -7.602   1.771 124.241  0.00  0.00    +0.132 A 
ATOM     16  C   LIG A   1      -8.660   1.155 123.566  0.00  0.00    +0.047 A 
ATOM     17  C   LIG A   1      -9.073  -0.125 123.929  0.00  0.00    +0.019 A 
ENDROOT
BRANCH   4  18
ATOM     18  C   LIG A   1      -6.322  -2.653 128.171  0.00  0.00    +0.017 A 
ATOM     19  C   LIG A   1      -6.986  -3.300 129.224  0.00  0.00    +0.011 A 
ATOM     20  C   LIG A   1      -6.272  -3.834 130.300  0.00  0.00    +0.001 A 
ATOM     21  C   LIG A   1      -4.885  -3.720 130.341  0.00  0.00    +0.000 A 
ATOM     22  C   LIG A   1      -4.210  -3.071 129.310  0.00  0.00    +0.001 A 
ATOM     23  C   LIG A   1      -4.923  -2.537 128.233  0.00  0.00    +0.011 A 
ENDBRANCH   4  18
TORSDOF 1
ENDMDL
