MODEL 1
REMARK VINA RESULT:      -7.7      0.000      0.000
REMARK  Name = NuBBE_1694
REMARK  11 active torsions:
REMARK  status: ('A' for Active; 'I' for Inactive)
REMARK    1  A    between atoms: C_1  and  O_2
REMARK    2  A    between atoms: O_2  and  C_3
REMARK    3  A    between atoms: C_6  and  C_7
REMARK    4  A    between atoms: C_6  and  C_8
REMARK    5  A    between atoms: C_12  and  O_13
REMARK    6  A    between atoms: C_17  and  C_18
REMARK    7  A    between atoms: C_20  and  O_21
REMARK    8  A    between atoms: O_21  and  C_22
REMARK    9  A    between atoms: C_23  and  O_24
REMARK   10  A    between atoms: C_25  and  O_26
REMARK   11  A    between atoms: O_26  and  C_27
REMARK                            x       y       z     vdW  Elec       q    Type
REMARK                         _______ _______ _______ _____ _____    ______ ____
ROOT
ATOM      1  C   LIG A   1      -8.468   0.658 126.691  0.00  0.00    +0.206 A 
ATOM      2  C   LIG A   1      -8.047  -0.489 125.980  0.00  0.00    +0.177 A 
ATOM      3  O   LIG A   1      -8.248  -0.518 124.628  0.00  0.00    -0.478 OA
ATOM      4  C   LIG A   1      -7.739  -1.591 123.817  0.00  0.00    +0.124 C 
ATOM      5  C   LIG A   1      -6.660  -0.984 122.912  0.00  0.00    +0.060 C 
ATOM      6  C   LIG A   1      -8.926  -2.053 122.964  0.00  0.00    +0.060 C 
ATOM      7  C   LIG A   1      -7.170  -2.757 124.579  0.00  0.00    +0.020 C 
ATOM      8  C   LIG A   1      -7.025  -2.751 125.905  0.00  0.00    +0.015 C 
ATOM      9  C   LIG A   1      -7.443  -1.567 126.659  0.00  0.00    +0.062 A 
ATOM     10  C   LIG A   1      -7.260  -1.497 128.041  0.00  0.00    +0.142 A 
ATOM     11  C   LIG A   1      -7.684  -0.372 128.757  0.00  0.00    +0.110 A 
ATOM     12  C   LIG A   1      -8.283   0.711 128.087  0.00  0.00    +0.188 A 
ATOM     13  O   LIG A   1      -8.714   1.829 128.763  0.00  0.00    -0.451 OA
ATOM     14  C   LIG A   1      -8.544   1.916 130.131  0.00  0.00    +0.140 A 
ATOM     15  C   LIG A   1      -7.962   0.961 130.865  0.00  0.00    +0.098 A 
ATOM     16  C   LIG A   1      -7.507  -0.262 130.199  0.00  0.00    +0.197 A 
ATOM     17  O   LIG A   1      -6.988  -1.175 130.839  0.00  0.00    -0.287 OA
ENDROOT
BRANCH  14  18
ATOM     18  C   LIG A   1      -8.965   3.193 130.753  0.00  0.00    +0.025 A 
ATOM     19  C   LIG A   1     -10.126   3.883 130.347  0.00  0.00    +0.061 A 
ATOM     20  C   LIG A   1     -10.584   5.023 131.017  0.00  0.00    +0.166 A 
ATOM     21  C   LIG A   1      -9.868   5.482 132.122  0.00  0.00    +0.201 A 
ATOM     22  C   LIG A   1      -8.671   4.859 132.506  0.00  0.00    +0.166 A 
ATOM     23  C   LIG A   1      -8.225   3.721 131.826  0.00  0.00    +0.061 A 
BRANCH  20  24
ATOM     24  O   LIG A   1     -11.779   5.508 130.553  0.00  0.00    -0.491 OA
ATOM     25  C   LIG A   1     -11.699   6.490 129.525  0.00  0.00    +0.277 C 
ENDBRANCH  20  24
BRANCH  21  26
ATOM     26  O   LIG A   1     -10.330   6.513 132.898  0.00  0.00    -0.501 OA
ATOM     27  H   LIG A   1     -10.083   6.273 133.817  0.00  0.00    +0.292 HD
ENDBRANCH  21  26
BRANCH  22  28
ATOM     28  O   LIG A   1      -8.068   5.382 133.626  0.00  0.00    -0.491 OA
ATOM     29  C   LIG A   1      -8.075   4.538 134.775  0.00  0.00    +0.277 C 
ENDBRANCH  22  28
ENDBRANCH  14  18
BRANCH   1  31
ATOM     30  C   LIG A   1      -8.214   2.743 125.488  0.00  0.00    +0.277 C 
ATOM     31  O   LIG A   1      -9.034   1.800 126.167  0.00  0.00    -0.488 OA
ENDBRANCH   1  31
BRANCH  10  32
ATOM     32  O   LIG A   1      -6.658  -2.558 128.685  0.00  0.00    -0.505 OA
ATOM     33  H   LIG A   1      -7.349  -3.108 129.113  0.00  0.00    +0.292 HD
ENDBRANCH  10  32
TORSDOF 6
ENDMDL
MODEL 2
REMARK VINA RESULT:      -7.6      1.745      8.432
REMARK  Name = NuBBE_1694
REMARK  11 active torsions:
REMARK  status: ('A' for Active; 'I' for Inactive)
REMARK    1  A    between atoms: C_1  and  O_2
REMARK    2  A    between atoms: O_2  and  C_3
REMARK    3  A    between atoms: C_6  and  C_7
REMARK    4  A    between atoms: C_6  and  C_8
REMARK    5  A    between atoms: C_12  and  O_13
REMARK    6  A    between atoms: C_17  and  C_18
REMARK    7  A    between atoms: C_20  and  O_21
REMARK    8  A    between atoms: O_21  and  C_22
REMARK    9  A    between atoms: C_23  and  O_24
REMARK   10  A    between atoms: C_25  and  O_26
REMARK   11  A    between atoms: O_26  and  C_27
REMARK                            x       y       z     vdW  Elec       q    Type
REMARK                         _______ _______ _______ _____ _____    ______ ____
ROOT
ATOM      1  C   LIG A   1      -8.381   2.572 129.503  0.00  0.00    +0.206 A 
ATOM      2  C   LIG A   1      -8.454   3.066 130.825  0.00  0.00    +0.177 A 
ATOM      3  O   LIG A   1      -8.658   4.405 131.002  0.00  0.00    -0.478 OA
ATOM      4  C   LIG A   1      -8.867   4.967 132.309  0.00  0.00    +0.124 C 
ATOM      5  C   LIG A   1     -10.311   5.482 132.340  0.00  0.00    +0.060 C 
ATOM      6  C   LIG A   1      -7.897   6.151 132.402  0.00  0.00    +0.060 C 
ATOM      7  C   LIG A   1      -8.636   4.023 133.457  0.00  0.00    +0.020 C 
ATOM      8  C   LIG A   1      -8.382   2.725 133.285  0.00  0.00    +0.015 C 
ATOM      9  C   LIG A   1      -8.315   2.191 131.922  0.00  0.00    +0.062 A 
ATOM     10  C   LIG A   1      -8.104   0.829 131.697  0.00  0.00    +0.142 A 
ATOM     11  C   LIG A   1      -8.018   0.330 130.392  0.00  0.00    +0.110 A 
ATOM     12  C   LIG A   1      -8.161   1.196 129.292  0.00  0.00    +0.188 A 
ATOM     13  O   LIG A   1      -8.077   0.737 127.998  0.00  0.00    -0.451 OA
ATOM     14  C   LIG A   1      -7.867  -0.607 127.754  0.00  0.00    +0.140 A 
ATOM     15  C   LIG A   1      -7.746  -1.522 128.722  0.00  0.00    +0.098 A 
ATOM     16  C   LIG A   1      -7.802  -1.084 130.118  0.00  0.00    +0.197 A 
ATOM     17  O   LIG A   1      -7.672  -1.889 131.040  0.00  0.00    -0.287 OA
ENDROOT
BRANCH  14  18
ATOM     18  C   LIG A   1      -7.875  -1.013 126.330  0.00  0.00    +0.025 A 
ATOM     19  C   LIG A   1      -7.011  -2.008 125.824  0.00  0.00    +0.061 A 
ATOM     20  C   LIG A   1      -7.104  -2.473 124.507  0.00  0.00    +0.166 A 
ATOM     21  C   LIG A   1      -8.086  -1.934 123.677  0.00  0.00    +0.201 A 
ATOM     22  C   LIG A   1      -8.913  -0.894 124.129  0.00  0.00    +0.166 A 
ATOM     23  C   LIG A   1      -8.807  -0.439 125.447  0.00  0.00    +0.061 A 
BRANCH  20  24
ATOM     24  O   LIG A   1      -6.257  -3.509 124.214  0.00  0.00    -0.491 OA
ATOM     25  C   LIG A   1      -5.022  -3.154 123.601  0.00  0.00    +0.277 C 
ENDBRANCH  20  24
BRANCH  21  26
ATOM     26  O   LIG A   1      -8.316  -2.433 122.421  0.00  0.00    -0.501 OA
ATOM     27  H   LIG A   1      -7.500  -2.236 121.913  0.00  0.00    +0.292 HD
ENDBRANCH  21  26
BRANCH  22  28
ATOM     28  O   LIG A   1      -9.862  -0.463 123.231  0.00  0.00    -0.491 OA
ATOM     29  C   LIG A   1      -9.819   0.927 122.916  0.00  0.00    +0.277 C 
ENDBRANCH  22  28
ENDBRANCH  14  18
BRANCH   1  31
ATOM     30  C   LIG A   1      -7.451   4.061 127.838  0.00  0.00    +0.277 C 
ATOM     31  O   LIG A   1      -8.536   3.290 128.337  0.00  0.00    -0.488 OA
ENDBRANCH   1  31
BRANCH  10  32
ATOM     32  O   LIG A   1      -7.981  -0.012 132.783  0.00  0.00    -0.505 OA
ATOM     33  H   LIG A   1      -7.064  -0.361 132.818  0.00  0.00    +0.292 HD
ENDBRANCH  10  32
TORSDOF 6
ENDMDL
MODEL 3
REMARK VINA RESULT:      -7.5      1.786      8.149
REMARK  Name = NuBBE_1694
REMARK  11 active torsions:
REMARK  status: ('A' for Active; 'I' for Inactive)
REMARK    1  A    between atoms: C_1  and  O_2
REMARK    2  A    between atoms: O_2  and  C_3
REMARK    3  A    between atoms: C_6  and  C_7
REMARK    4  A    between atoms: C_6  and  C_8
REMARK    5  A    between atoms: C_12  and  O_13
REMARK    6  A    between atoms: C_17  and  C_18
REMARK    7  A    between atoms: C_20  and  O_21
REMARK    8  A    between atoms: O_21  and  C_22
REMARK    9  A    between atoms: C_23  and  O_24
REMARK   10  A    between atoms: C_25  and  O_26
REMARK   11  A    between atoms: O_26  and  C_27
REMARK                            x       y       z     vdW  Elec       q    Type
REMARK                         _______ _______ _______ _____ _____    ______ ____
ROOT
ATOM      1  C   LIG A   1      -8.346   2.500 129.633  0.00  0.00    +0.206 A 
ATOM      2  C   LIG A   1      -8.313   3.025 130.945  0.00  0.00    +0.177 A 
ATOM      3  O   LIG A   1      -8.488   4.370 131.105  0.00  0.00    -0.478 OA
ATOM      4  C   LIG A   1      -8.591   4.964 132.411  0.00  0.00    +0.124 C 
ATOM      5  C   LIG A   1     -10.024   5.497 132.540  0.00  0.00    +0.060 C 
ATOM      6  C   LIG A   1      -7.604   6.138 132.402  0.00  0.00    +0.060 C 
ATOM      7  C   LIG A   1      -8.283   4.043 133.560  0.00  0.00    +0.020 C 
ATOM      8  C   LIG A   1      -8.056   2.739 133.399  0.00  0.00    +0.015 C 
ATOM      9  C   LIG A   1      -8.099   2.173 132.048  0.00  0.00    +0.062 A 
ATOM     10  C   LIG A   1      -7.921   0.804 131.840  0.00  0.00    +0.142 A 
ATOM     11  C   LIG A   1      -7.939   0.275 130.544  0.00  0.00    +0.110 A 
ATOM     12  C   LIG A   1      -8.157   1.117 129.438  0.00  0.00    +0.188 A 
ATOM     13  O   LIG A   1      -8.177   0.628 128.152  0.00  0.00    -0.451 OA
ATOM     14  C   LIG A   1      -8.001  -0.723 127.925  0.00  0.00    +0.140 A 
ATOM     15  C   LIG A   1      -7.815  -1.618 128.901  0.00  0.00    +0.098 A 
ATOM     16  C   LIG A   1      -7.760  -1.148 130.288  0.00  0.00    +0.197 A 
ATOM     17  O   LIG A   1      -7.568  -1.933 131.215  0.00  0.00    -0.287 OA
ENDROOT
BRANCH  14  18
ATOM     18  C   LIG A   1      -8.122  -1.161 126.515  0.00  0.00    +0.025 A 
ATOM     19  C   LIG A   1      -8.930  -0.480 125.580  0.00  0.00    +0.061 A 
ATOM     20  C   LIG A   1      -8.948  -0.825 124.224  0.00  0.00    +0.166 A 
ATOM     21  C   LIG A   1      -8.135  -1.872 123.790  0.00  0.00    +0.201 A 
ATOM     22  C   LIG A   1      -7.375  -2.614 124.707  0.00  0.00    +0.166 A 
ATOM     23  C   LIG A   1      -7.369  -2.258 126.060  0.00  0.00    +0.061 A 
BRANCH  20  24
ATOM     24  O   LIG A   1      -9.709   0.003 123.442  0.00  0.00    -0.491 OA
ATOM     25  C   LIG A   1     -10.032   1.271 124.001  0.00  0.00    +0.277 C 
ENDBRANCH  20  24
BRANCH  21  26
ATOM     26  O   LIG A   1      -8.008  -2.177 122.460  0.00  0.00    -0.501 OA
ATOM     27  H   LIG A   1      -8.766  -2.766 122.257  0.00  0.00    +0.292 HD
ENDBRANCH  21  26
BRANCH  22  28
ATOM     28  O   LIG A   1      -6.593  -3.604 124.160  0.00  0.00    -0.491 OA
ATOM     29  C   LIG A   1      -5.194  -3.329 124.126  0.00  0.00    +0.277 C 
ENDBRANCH  22  28
ENDBRANCH  14  18
BRANCH   1  31
ATOM     30  C   LIG A   1      -7.536   3.957 127.878  0.00  0.00    +0.277 C 
ATOM     31  O   LIG A   1      -8.582   3.194 128.466  0.00  0.00    -0.488 OA
ENDBRANCH   1  31
BRANCH  10  32
ATOM     32  O   LIG A   1      -7.723  -0.013 132.933  0.00  0.00    -0.505 OA
ATOM     33  H   LIG A   1      -6.786   0.052 133.218  0.00  0.00    +0.292 HD
ENDBRANCH  10  32
TORSDOF 6
ENDMDL
MODEL 4
REMARK VINA RESULT:      -7.4      1.727      3.349
REMARK  Name = NuBBE_1694
REMARK  11 active torsions:
REMARK  status: ('A' for Active; 'I' for Inactive)
REMARK    1  A    between atoms: C_1  and  O_2
REMARK    2  A    between atoms: O_2  and  C_3
REMARK    3  A    between atoms: C_6  and  C_7
REMARK    4  A    between atoms: C_6  and  C_8
REMARK    5  A    between atoms: C_12  and  O_13
REMARK    6  A    between atoms: C_17  and  C_18
REMARK    7  A    between atoms: C_20  and  O_21
REMARK    8  A    between atoms: O_21  and  C_22
REMARK    9  A    between atoms: C_23  and  O_24
REMARK   10  A    between atoms: C_25  and  O_26
REMARK   11  A    between atoms: O_26  and  C_27
REMARK                            x       y       z     vdW  Elec       q    Type
REMARK                         _______ _______ _______ _____ _____    ______ ____
ROOT
ATOM      1  C   LIG A   1      -7.636  -0.018 126.866  0.00  0.00    +0.206 A 
ATOM      2  C   LIG A   1      -7.363  -0.544 125.583  0.00  0.00    +0.177 A 
ATOM      3  O   LIG A   1      -7.293  -1.902 125.445  0.00  0.00    -0.478 OA
ATOM      4  C   LIG A   1      -7.143  -2.519 124.155  0.00  0.00    +0.124 C 
ATOM      5  C   LIG A   1      -8.441  -3.287 123.882  0.00  0.00    +0.060 C 
ATOM      6  C   LIG A   1      -5.982  -3.508 124.311  0.00  0.00    +0.060 C 
ATOM      7  C   LIG A   1      -6.861  -1.572 123.021  0.00  0.00    +0.020 C 
ATOM      8  C   LIG A   1      -6.874  -0.246 123.166  0.00  0.00    +0.015 C 
ATOM      9  C   LIG A   1      -7.168   0.319 124.485  0.00  0.00    +0.062 A 
ATOM     10  C   LIG A   1      -7.246   1.701 124.671  0.00  0.00    +0.142 A 
ATOM     11  C   LIG A   1      -7.503   2.233 125.939  0.00  0.00    +0.110 A 
ATOM     12  C   LIG A   1      -7.704   1.379 127.039  0.00  0.00    +0.188 A 
ATOM     13  O   LIG A   1      -7.955   1.872 128.299  0.00  0.00    -0.451 OA
ATOM     14  C   LIG A   1      -8.033   3.236 128.504  0.00  0.00    +0.140 A 
ATOM     15  C   LIG A   1      -7.887   4.138 127.527  0.00  0.00    +0.098 A 
ATOM     16  C   LIG A   1      -7.594   3.669 126.171  0.00  0.00    +0.197 A 
ATOM     17  O   LIG A   1      -7.429   4.465 125.247  0.00  0.00    -0.287 OA
ENDROOT
BRANCH  14  18
ATOM     18  C   LIG A   1      -8.389   3.663 129.877  0.00  0.00    +0.025 A 
ATOM     19  C   LIG A   1      -9.070   4.870 130.139  0.00  0.00    +0.061 A 
ATOM     20  C   LIG A   1      -9.509   5.212 131.423  0.00  0.00    +0.166 A 
ATOM     21  C   LIG A   1      -9.266   4.323 132.469  0.00  0.00    +0.201 A 
ATOM     22  C   LIG A   1      -8.529   3.148 132.254  0.00  0.00    +0.166 A 
ATOM     23  C   LIG A   1      -8.096   2.822 130.965  0.00  0.00    +0.061 A 
BRANCH  20  24
ATOM     24  O   LIG A   1     -10.240   6.369 131.479  0.00  0.00    -0.491 OA
ATOM     25  C   LIG A   1     -11.637   6.240 131.238  0.00  0.00    +0.277 C 
ENDBRANCH  20  24
BRANCH  21  26
ATOM     26  O   LIG A   1      -9.780   4.534 133.722  0.00  0.00    -0.501 OA
ATOM     27  H   LIG A   1      -9.573   5.471 133.931  0.00  0.00    +0.292 HD
ENDBRANCH  21  26
BRANCH  22  28
ATOM     28  O   LIG A   1      -8.378   2.337 133.354  0.00  0.00    -0.491 OA
ATOM     29  C   LIG A   1      -7.030   2.052 133.723  0.00  0.00    +0.277 C 
ENDBRANCH  22  28
ENDBRANCH  14  18
BRANCH   1  31
ATOM     30  C   LIG A   1      -6.805  -1.306 128.739  0.00  0.00    +0.277 C 
ATOM     31  O   LIG A   1      -7.887  -0.729 128.020  0.00  0.00    -0.488 OA
ENDBRANCH   1  31
BRANCH  10  32
ATOM     32  O   LIG A   1      -7.061   2.527 123.583  0.00  0.00    -0.505 OA
ATOM     33  H   LIG A   1      -7.675   3.290 123.650  0.00  0.00    +0.292 HD
ENDBRANCH  10  32
TORSDOF 6
ENDMDL
MODEL 5
REMARK VINA RESULT:      -7.4      2.842      7.762
REMARK  Name = NuBBE_1694
REMARK  11 active torsions:
REMARK  status: ('A' for Active; 'I' for Inactive)
REMARK    1  A    between atoms: C_1  and  O_2
REMARK    2  A    between atoms: O_2  and  C_3
REMARK    3  A    between atoms: C_6  and  C_7
REMARK    4  A    between atoms: C_6  and  C_8
REMARK    5  A    between atoms: C_12  and  O_13
REMARK    6  A    between atoms: C_17  and  C_18
REMARK    7  A    between atoms: C_20  and  O_21
REMARK    8  A    between atoms: O_21  and  C_22
REMARK    9  A    between atoms: C_23  and  O_24
REMARK   10  A    between atoms: C_25  and  O_26
REMARK   11  A    between atoms: O_26  and  C_27
REMARK                            x       y       z     vdW  Elec       q    Type
REMARK                         _______ _______ _______ _____ _____    ______ ____
ROOT
ATOM      1  C   LIG A   1      -9.273   4.235 129.528  0.00  0.00    +0.206 A 
ATOM      2  C   LIG A   1     -10.012   5.436 129.630  0.00  0.00    +0.177 A 
ATOM      3  O   LIG A   1     -10.368   6.074 128.475  0.00  0.00    -0.478 OA
ATOM      4  C   LIG A   1     -11.222   7.230 128.488  0.00  0.00    +0.124 C 
ATOM      5  C   LIG A   1     -12.532   6.816 127.807  0.00  0.00    +0.060 C 
ATOM      6  C   LIG A   1     -10.503   8.276 127.628  0.00  0.00    +0.060 C 
ATOM      7  C   LIG A   1     -11.511   7.797 129.851  0.00  0.00    +0.020 C 
ATOM      8  C   LIG A   1     -11.116   7.205 130.979  0.00  0.00    +0.015 C 
ATOM      9  C   LIG A   1     -10.361   5.953 130.895  0.00  0.00    +0.062 A 
ATOM     10  C   LIG A   1      -9.974   5.271 132.051  0.00  0.00    +0.142 A 
ATOM     11  C   LIG A   1      -9.232   4.088 131.961  0.00  0.00    +0.110 A 
ATOM     12  C   LIG A   1      -8.884   3.563 130.704  0.00  0.00    +0.188 A 
ATOM     13  O   LIG A   1      -8.152   2.404 130.584  0.00  0.00    -0.451 OA
ATOM     14  C   LIG A   1      -7.758   1.716 131.715  0.00  0.00    +0.140 A 
ATOM     15  C   LIG A   1      -8.057   2.107 132.958  0.00  0.00    +0.098 A 
ATOM     16  C   LIG A   1      -8.814   3.348 133.144  0.00  0.00    +0.197 A 
ATOM     17  O   LIG A   1      -9.091   3.757 134.272  0.00  0.00    -0.287 OA
ENDROOT
BRANCH  14  18
ATOM     18  C   LIG A   1      -7.046   0.439 131.478  0.00  0.00    +0.025 A 
ATOM     19  C   LIG A   1      -7.691  -0.695 130.938  0.00  0.00    +0.061 A 
ATOM     20  C   LIG A   1      -6.990  -1.859 130.605  0.00  0.00    +0.166 A 
ATOM     21  C   LIG A   1      -5.611  -1.890 130.811  0.00  0.00    +0.201 A 
ATOM     22  C   LIG A   1      -4.953  -0.806 131.412  0.00  0.00    +0.166 A 
ATOM     23  C   LIG A   1      -5.668   0.350 131.741  0.00  0.00    +0.061 A 
BRANCH  20  24
ATOM     24  O   LIG A   1      -7.752  -2.823 130.000  0.00  0.00    -0.491 OA
ATOM     25  C   LIG A   1      -7.921  -2.696 128.592  0.00  0.00    +0.277 C 
ENDBRANCH  20  24
BRANCH  21  26
ATOM     26  O   LIG A   1      -4.847  -2.947 130.389  0.00  0.00    -0.501 OA
ATOM     27  H   LIG A   1      -4.021  -2.545 130.042  0.00  0.00    +0.292 HD
ENDBRANCH  21  26
BRANCH  22  28
ATOM     28  O   LIG A   1      -3.590  -0.940 131.539  0.00  0.00    -0.491 OA
ATOM     29  C   LIG A   1      -3.108  -1.049 132.876  0.00  0.00    +0.277 C 
ENDBRANCH  22  28
ENDBRANCH  14  18
BRANCH   1  31
ATOM     30  C   LIG A   1      -7.746   4.036 127.661  0.00  0.00    +0.277 C 
ATOM     31  O   LIG A   1      -8.893   3.589 128.372  0.00  0.00    -0.488 OA
ENDBRANCH   1  31
BRANCH  10  32
ATOM     32  O   LIG A   1     -10.335   5.788 133.277  0.00  0.00    -0.505 OA
ATOM     33  H   LIG A   1     -11.275   5.571 133.454  0.00  0.00    +0.292 HD
ENDBRANCH  10  32
TORSDOF 6
ENDMDL
MODEL 6
REMARK VINA RESULT:      -7.4      2.838      8.079
REMARK  Name = NuBBE_1694
REMARK  11 active torsions:
REMARK  status: ('A' for Active; 'I' for Inactive)
REMARK    1  A    between atoms: C_1  and  O_2
REMARK    2  A    between atoms: O_2  and  C_3
REMARK    3  A    between atoms: C_6  and  C_7
REMARK    4  A    between atoms: C_6  and  C_8
REMARK    5  A    between atoms: C_12  and  O_13
REMARK    6  A    between atoms: C_17  and  C_18
REMARK    7  A    between atoms: C_20  and  O_21
REMARK    8  A    between atoms: O_21  and  C_22
REMARK    9  A    between atoms: C_23  and  O_24
REMARK   10  A    between atoms: C_25  and  O_26
REMARK   11  A    between atoms: O_26  and  C_27
REMARK                            x       y       z     vdW  Elec       q    Type
REMARK                         _______ _______ _______ _____ _____    ______ ____
ROOT
ATOM      1  C   LIG A   1      -9.050   4.055 129.379  0.00  0.00    +0.206 A 
ATOM      2  C   LIG A   1      -9.817   5.195 129.711  0.00  0.00    +0.177 A 
ATOM      3  O   LIG A   1     -10.248   6.001 128.696  0.00  0.00    -0.478 OA
ATOM      4  C   LIG A   1     -11.133   7.107 128.938  0.00  0.00    +0.124 C 
ATOM      5  C   LIG A   1     -12.463   6.764 128.255  0.00  0.00    +0.060 C 
ATOM      6  C   LIG A   1     -10.487   8.306 128.234  0.00  0.00    +0.060 C 
ATOM      7  C   LIG A   1     -11.372   7.431 130.388  0.00  0.00    +0.020 C 
ATOM      8  C   LIG A   1     -10.905   6.675 131.383  0.00  0.00    +0.015 C 
ATOM      9  C   LIG A   1     -10.120   5.482 131.059  0.00  0.00    +0.062 A 
ATOM     10  C   LIG A   1      -9.657   4.634 132.067  0.00  0.00    +0.142 A 
ATOM     11  C   LIG A   1      -8.886   3.509 131.750  0.00  0.00    +0.110 A 
ATOM     12  C   LIG A   1      -8.585   3.212 130.408  0.00  0.00    +0.188 A 
ATOM     13  O   LIG A   1      -7.827   2.116 130.065  0.00  0.00    -0.451 OA
ATOM     14  C   LIG A   1      -7.358   1.266 131.047  0.00  0.00    +0.140 A 
ATOM     15  C   LIG A   1      -7.608   1.435 132.351  0.00  0.00    +0.098 A 
ATOM     16  C   LIG A   1      -8.390   2.600 132.773  0.00  0.00    +0.197 A 
ATOM     17  O   LIG A   1      -8.623   2.807 133.964  0.00  0.00    -0.287 OA
ENDROOT
BRANCH  14  18
ATOM     18  C   LIG A   1      -6.623   0.072 130.571  0.00  0.00    +0.025 A 
ATOM     19  C   LIG A   1      -5.381  -0.317 131.116  0.00  0.00    +0.061 A 
ATOM     20  C   LIG A   1      -4.748  -1.509 130.747  0.00  0.00    +0.166 A 
ATOM     21  C   LIG A   1      -5.374  -2.336 129.815  0.00  0.00    +0.201 A 
ATOM     22  C   LIG A   1      -6.574  -1.943 129.202  0.00  0.00    +0.166 A 
ATOM     23  C   LIG A   1      -7.193  -0.748 129.581  0.00  0.00    +0.061 A 
BRANCH  20  24
ATOM     24  O   LIG A   1      -3.602  -1.779 131.446  0.00  0.00    -0.491 OA
ATOM     25  C   LIG A   1      -3.362  -0.970 132.593  0.00  0.00    +0.277 C 
ENDBRANCH  20  24
BRANCH  21  26
ATOM     26  O   LIG A   1      -4.875  -3.575 129.506  0.00  0.00    -0.501 OA
ATOM     27  H   LIG A   1      -4.954  -4.097 130.333  0.00  0.00    +0.292 HD
ENDBRANCH  21  26
BRANCH  22  28
ATOM     28  O   LIG A   1      -7.111  -2.852 128.321  0.00  0.00    -0.491 OA
ATOM     29  C   LIG A   1      -8.372  -3.400 128.700  0.00  0.00    +0.277 C 
ENDBRANCH  22  28
ENDBRANCH  14  18
BRANCH   1  31
ATOM     30  C   LIG A   1      -7.563   4.165 127.473  0.00  0.00    +0.277 C 
ATOM     31  O   LIG A   1      -8.709   3.622 128.116  0.00  0.00    -0.488 OA
ENDBRANCH   1  31
BRANCH  10  32
ATOM     32  O   LIG A   1      -9.972   4.927 133.377  0.00  0.00    -0.505 OA
ATOM     33  H   LIG A   1     -10.189   5.882 133.450  0.00  0.00    +0.292 HD
ENDBRANCH  10  32
TORSDOF 6
ENDMDL
MODEL 7
REMARK VINA RESULT:      -7.3      1.410      2.386
REMARK  Name = NuBBE_1694
REMARK  11 active torsions:
REMARK  status: ('A' for Active; 'I' for Inactive)
REMARK    1  A    between atoms: C_1  and  O_2
REMARK    2  A    between atoms: O_2  and  C_3
REMARK    3  A    between atoms: C_6  and  C_7
REMARK    4  A    between atoms: C_6  and  C_8
REMARK    5  A    between atoms: C_12  and  O_13
REMARK    6  A    between atoms: C_17  and  C_18
REMARK    7  A    between atoms: C_20  and  O_21
REMARK    8  A    between atoms: O_21  and  C_22
REMARK    9  A    between atoms: C_23  and  O_24
REMARK   10  A    between atoms: C_25  and  O_26
REMARK   11  A    between atoms: O_26  and  C_27
REMARK                            x       y       z     vdW  Elec       q    Type
REMARK                         _______ _______ _______ _____ _____    ______ ____
ROOT
ATOM      1  C   LIG A   1      -8.237   0.417 126.084  0.00  0.00    +0.206 A 
ATOM      2  C   LIG A   1      -7.985  -0.836 125.479  0.00  0.00    +0.177 A 
ATOM      3  O   LIG A   1      -8.052  -0.919 124.117  0.00  0.00    -0.478 OA
ATOM      4  C   LIG A   1      -7.688  -2.122 123.419  0.00  0.00    +0.124 C 
ATOM      5  C   LIG A   1      -6.426  -1.797 122.611  0.00  0.00    +0.060 C 
ATOM      6  C   LIG A   1      -8.853  -2.404 122.463  0.00  0.00    +0.060 C 
ATOM      7  C   LIG A   1      -7.441  -3.321 124.294  0.00  0.00    +0.020 C 
ATOM      8  C   LIG A   1      -7.430  -3.253 125.626  0.00  0.00    +0.015 C 
ATOM      9  C   LIG A   1      -7.677  -1.961 126.272  0.00  0.00    +0.062 A 
ATOM     10  C   LIG A   1      -7.622  -1.834 127.661  0.00  0.00    +0.142 A 
ATOM     11  C   LIG A   1      -7.883  -0.601 128.271  0.00  0.00    +0.110 A 
ATOM     12  C   LIG A   1      -8.185   0.528 127.488  0.00  0.00    +0.188 A 
ATOM     13  O   LIG A   1      -8.450   1.751 128.058  0.00  0.00    -0.451 OA
ATOM     14  C   LIG A   1      -8.403   1.898 129.431  0.00  0.00    +0.140 A 
ATOM     15  C   LIG A   1      -8.098   0.901 130.270  0.00  0.00    +0.098 A 
ATOM     16  C   LIG A   1      -7.832  -0.429 129.717  0.00  0.00    +0.197 A 
ATOM     17  O   LIG A   1      -7.571  -1.380 130.454  0.00  0.00    -0.287 OA
ENDROOT
BRANCH  14  18
ATOM     18  C   LIG A   1      -8.622   3.271 129.941  0.00  0.00    +0.025 A 
ATOM     19  C   LIG A   1      -7.569   4.200 130.082  0.00  0.00    +0.061 A 
ATOM     20  C   LIG A   1      -7.797   5.530 130.450  0.00  0.00    +0.166 A 
ATOM     21  C   LIG A   1      -9.108   5.945 130.677  0.00  0.00    +0.201 A 
ATOM     22  C   LIG A   1     -10.169   5.028 130.615  0.00  0.00    +0.166 A 
ATOM     23  C   LIG A   1      -9.925   3.701 130.247  0.00  0.00    +0.061 A 
BRANCH  20  24
ATOM     24  O   LIG A   1      -6.676   6.317 130.442  0.00  0.00    -0.491 OA
ATOM     25  C   LIG A   1      -5.943   6.377 131.661  0.00  0.00    +0.277 C 
ENDBRANCH  20  24
BRANCH  21  26
ATOM     26  O   LIG A   1      -9.414   7.260 130.914  0.00  0.00    -0.501 OA
ATOM     27  H   LIG A   1      -9.283   7.385 131.879  0.00  0.00    +0.292 HD
ENDBRANCH  21  26
BRANCH  22  28
ATOM     28  O   LIG A   1     -11.420   5.558 130.830  0.00  0.00    -0.491 OA
ATOM     29  C   LIG A   1     -12.118   5.974 129.659  0.00  0.00    +0.277 C 
ENDBRANCH  22  28
ENDBRANCH  14  18
BRANCH   1  31
ATOM     30  C   LIG A   1      -9.671   1.719 124.633  0.00  0.00    +0.277 C 
ATOM     31  O   LIG A   1      -8.510   1.607 125.447  0.00  0.00    -0.488 OA
ENDBRANCH   1  31
BRANCH  10  32
ATOM     32  O   LIG A   1      -7.310  -2.944 128.417  0.00  0.00    -0.505 OA
ATOM     33  H   LIG A   1      -6.340  -3.087 128.393  0.00  0.00    +0.292 HD
ENDBRANCH  10  32
TORSDOF 6
ENDMDL
MODEL 8
REMARK VINA RESULT:      -7.2      2.871      5.379
REMARK  Name = NuBBE_1694
REMARK  11 active torsions:
REMARK  status: ('A' for Active; 'I' for Inactive)
REMARK    1  A    between atoms: C_1  and  O_2
REMARK    2  A    between atoms: O_2  and  C_3
REMARK    3  A    between atoms: C_6  and  C_7
REMARK    4  A    between atoms: C_6  and  C_8
REMARK    5  A    between atoms: C_12  and  O_13
REMARK    6  A    between atoms: C_17  and  C_18
REMARK    7  A    between atoms: C_20  and  O_21
REMARK    8  A    between atoms: O_21  and  C_22
REMARK    9  A    between atoms: C_23  and  O_24
REMARK   10  A    between atoms: C_25  and  O_26
REMARK   11  A    between atoms: O_26  and  C_27
REMARK                            x       y       z     vdW  Elec       q    Type
REMARK                         _______ _______ _______ _____ _____    ______ ____
ROOT
ATOM      1  C   LIG A   1      -6.776  -1.114 132.574  0.00  0.00    +0.206 A 
ATOM      2  C   LIG A   1      -6.276  -2.417 132.350  0.00  0.00    +0.177 A 
ATOM      3  O   LIG A   1      -5.795  -3.116 133.420  0.00  0.00    -0.478 OA
ATOM      4  C   LIG A   1      -5.385  -4.489 133.299  0.00  0.00    +0.124 C 
ATOM      5  C   LIG A   1      -6.375  -5.318 134.125  0.00  0.00    +0.060 C 
ATOM      6  C   LIG A   1      -3.994  -4.555 133.941  0.00  0.00    +0.060 C 
ATOM      7  C   LIG A   1      -5.325  -5.017 131.891  0.00  0.00    +0.020 C 
ATOM      8  C   LIG A   1      -5.743  -4.314 130.837  0.00  0.00    +0.015 C 
ATOM      9  C   LIG A   1      -6.277  -2.967 131.051  0.00  0.00    +0.062 A 
ATOM     10  C   LIG A   1      -6.774  -2.217 129.983  0.00  0.00    +0.142 A 
ATOM     11  C   LIG A   1      -7.260  -0.921 130.192  0.00  0.00    +0.110 A 
ATOM     12  C   LIG A   1      -7.269  -0.367 131.485  0.00  0.00    +0.188 A 
ATOM     13  O   LIG A   1      -7.736   0.906 131.722  0.00  0.00    -0.451 OA
ATOM     14  C   LIG A   1      -8.230   1.664 130.679  0.00  0.00    +0.140 A 
ATOM     15  C   LIG A   1      -8.297   1.228 129.416  0.00  0.00    +0.098 A 
ATOM     16  C   LIG A   1      -7.790  -0.110 129.104  0.00  0.00    +0.197 A 
ATOM     17  O   LIG A   1      -7.811  -0.542 127.952  0.00  0.00    -0.287 OA
ENDROOT
BRANCH  14  18
ATOM     18  C   LIG A   1      -8.785   2.987 131.049  0.00  0.00    +0.025 A 
ATOM     19  C   LIG A   1      -9.816   3.606 130.312  0.00  0.00    +0.061 A 
ATOM     20  C   LIG A   1     -10.419   4.797 130.733  0.00  0.00    +0.166 A 
ATOM     21  C   LIG A   1      -9.984   5.380 131.922  0.00  0.00    +0.201 A 
ATOM     22  C   LIG A   1      -8.913   4.827 132.641  0.00  0.00    +0.166 A 
ATOM     23  C   LIG A   1      -8.320   3.637 132.206  0.00  0.00    +0.061 A 
BRANCH  20  24
ATOM     24  O   LIG A   1     -11.468   5.204 129.953  0.00  0.00    -0.491 OA
ATOM     25  C   LIG A   1     -11.265   6.397 129.202  0.00  0.00    +0.277 C 
ENDBRANCH  20  24
BRANCH  21  26
ATOM     26  O   LIG A   1     -10.616   6.473 132.457  0.00  0.00    -0.501 OA
ATOM     27  H   LIG A   1     -10.515   6.378 133.429  0.00  0.00    +0.292 HD
ENDBRANCH  21  26
BRANCH  22  28
ATOM     28  O   LIG A   1      -8.592   5.473 133.811  0.00  0.00    -0.491 OA
ATOM     29  C   LIG A   1      -8.016   4.653 134.825  0.00  0.00    +0.277 C 
ENDBRANCH  22  28
ENDBRANCH  14  18
BRANCH   1  31
ATOM     30  C   LIG A   1      -5.729   0.160 134.345  0.00  0.00    +0.277 C 
ATOM     31  O   LIG A   1      -6.878  -0.459 133.783  0.00  0.00    -0.488 OA
ENDBRANCH   1  31
BRANCH  10  32
ATOM     32  O   LIG A   1      -6.775  -2.776 128.723  0.00  0.00    -0.505 OA
ATOM     33  H   LIG A   1      -6.512  -3.719 128.789  0.00  0.00    +0.292 HD
ENDBRANCH  10  32
TORSDOF 6
ENDMDL
MODEL 9
REMARK VINA RESULT:      -7.0      4.477      6.913
REMARK  Name = NuBBE_1694
REMARK  11 active torsions:
REMARK  status: ('A' for Active; 'I' for Inactive)
REMARK    1  A    between atoms: C_1  and  O_2
REMARK    2  A    between atoms: O_2  and  C_3
REMARK    3  A    between atoms: C_6  and  C_7
REMARK    4  A    between atoms: C_6  and  C_8
REMARK    5  A    between atoms: C_12  and  O_13
REMARK    6  A    between atoms: C_17  and  C_18
REMARK    7  A    between atoms: C_20  and  O_21
REMARK    8  A    between atoms: O_21  and  C_22
REMARK    9  A    between atoms: C_23  and  O_24
REMARK   10  A    between atoms: C_25  and  O_26
REMARK   11  A    between atoms: O_26  and  C_27
REMARK                            x       y       z     vdW  Elec       q    Type
REMARK                         _______ _______ _______ _____ _____    ______ ____
ROOT
ATOM      1  C   LIG A   1      -6.632  -0.135 127.024  0.00  0.00    +0.206 A 
ATOM      2  C   LIG A   1      -7.424   0.263 125.923  0.00  0.00    +0.177 A 
ATOM      3  O   LIG A   1      -7.110   1.433 125.292  0.00  0.00    -0.478 OA
ATOM      4  C   LIG A   1      -7.787   1.845 124.092  0.00  0.00    +0.124 C 
ATOM      5  C   LIG A   1      -6.747   1.804 122.965  0.00  0.00    +0.060 C 
ATOM      6  C   LIG A   1      -8.216   3.295 124.344  0.00  0.00    +0.060 C 
ATOM      7  C   LIG A   1      -8.983   1.014 123.714  0.00  0.00    +0.020 C 
ATOM      8  C   LIG A   1      -9.324  -0.100 124.364  0.00  0.00    +0.015 C 
ATOM      9  C   LIG A   1      -8.507  -0.535 125.499  0.00  0.00    +0.062 A 
ATOM     10  C   LIG A   1      -8.796  -1.723 126.174  0.00  0.00    +0.142 A 
ATOM     11  C   LIG A   1      -8.026  -2.119 127.274  0.00  0.00    +0.110 A 
ATOM     12  C   LIG A   1      -6.940  -1.333 127.699  0.00  0.00    +0.188 A 
ATOM     13  O   LIG A   1      -6.167  -1.693 128.779  0.00  0.00    -0.451 OA
ATOM     14  C   LIG A   1      -6.437  -2.864 129.461  0.00  0.00    +0.140 A 
ATOM     15  C   LIG A   1      -7.425  -3.701 129.127  0.00  0.00    +0.098 A 
ATOM     16  C   LIG A   1      -8.294  -3.353 128.000  0.00  0.00    +0.197 A 
ATOM     17  O   LIG A   1      -9.229  -4.084 127.673  0.00  0.00    -0.287 OA
ENDROOT
BRANCH  14  18
ATOM     18  C   LIG A   1      -5.498  -3.205 130.555  0.00  0.00    +0.025 A 
ATOM     19  C   LIG A   1      -4.397  -2.387 130.886  0.00  0.00    +0.061 A 
ATOM     20  C   LIG A   1      -3.584  -2.650 131.994  0.00  0.00    +0.166 A 
ATOM     21  C   LIG A   1      -3.881  -3.752 132.794  0.00  0.00    +0.201 A 
ATOM     22  C   LIG A   1      -4.926  -4.624 132.450  0.00  0.00    +0.166 A 
ATOM     23  C   LIG A   1      -5.729  -4.349 131.339  0.00  0.00    +0.061 A 
BRANCH  20  24
ATOM     24  O   LIG A   1      -2.623  -1.701 132.225  0.00  0.00    -0.491 OA
ATOM     25  C   LIG A   1      -2.997  -0.627 133.082  0.00  0.00    +0.277 C 
ENDBRANCH  20  24
BRANCH  21  26
ATOM     26  O   LIG A   1      -3.207  -3.992 133.963  0.00  0.00    -0.501 OA
ATOM     27  H   LIG A   1      -2.287  -4.201 133.691  0.00  0.00    +0.292 HD
ENDBRANCH  21  26
BRANCH  22  28
ATOM     28  O   LIG A   1      -5.143  -5.659 133.329  0.00  0.00    -0.491 OA
ATOM     29  C   LIG A   1      -6.209  -5.463 134.255  0.00  0.00    +0.277 C 
ENDBRANCH  22  28
ENDBRANCH  14  18
BRANCH   1  31
ATOM     30  C   LIG A   1      -5.696   1.652 128.361  0.00  0.00    +0.277 C 
ATOM     31  O   LIG A   1      -5.525   0.513 127.528  0.00  0.00    -0.488 OA
ENDBRANCH   1  31
BRANCH  10  32
ATOM     32  O   LIG A   1      -9.853  -2.493 125.739  0.00  0.00    -0.505 OA
ATOM     33  H   LIG A   1      -9.549  -3.073 125.007  0.00  0.00    +0.292 HD
ENDBRANCH  10  32
TORSDOF 6
ENDMDL
