MODEL 1
REMARK VINA RESULT:      -8.6      0.000      0.000
REMARK  Name = NuBBE_1824
REMARK  8 active torsions:
REMARK  status: ('A' for Active; 'I' for Inactive)
REMARK    1  A    between atoms: C_5  and  O_6
REMARK    2  A    between atoms: C_7  and  C_8
REMARK    3  A    between atoms: C_8  and  C_9
REMARK    4  A    between atoms: C_10  and  C_11
REMARK    5  A    between atoms: C_10  and  C_12
REMARK    6  A    between atoms: C_13  and  O_14
REMARK    7  A    between atoms: C_18  and  C_19
REMARK    8  A    between atoms: C_18  and  C_20
REMARK                            x       y       z     vdW  Elec       q    Type
REMARK                         _______ _______ _______ _____ _____    ______ ____
ROOT
ATOM      1  O   LIG A   1      -8.662   2.953 125.907  0.00  0.00    -0.292 OA
ATOM      2  C   LIG A   1      -8.085   2.557 124.902  0.00  0.00    +0.174 C 
ATOM      3  C   LIG A   1      -7.410   3.486 123.930  0.00  0.00    +0.132 C 
ATOM      4  C   LIG A   1      -7.964   1.111 124.642  0.00  0.00    +0.101 A 
ATOM      5  C   LIG A   1      -8.476   0.153 125.536  0.00  0.00    +0.138 A 
ATOM      6  C   LIG A   1      -8.322  -1.228 125.292  0.00  0.00    +0.040 A 
ATOM      7  C   LIG A   1      -7.638  -1.598 124.121  0.00  0.00    +0.127 A 
ATOM      8  C   LIG A   1      -7.141  -0.647 123.227  0.00  0.00    +0.092 A 
ATOM      9  C   LIG A   1      -7.322   0.708 123.477  0.00  0.00    +0.139 A 
ATOM     10  O   LIG A   1      -6.858   1.566 122.517  0.00  0.00    -0.480 OA
ATOM     11  C   LIG A   1      -7.438   2.891 122.520  0.00  0.00    +0.140 C 
ATOM     12  C   LIG A   1      -8.876   2.782 121.955  0.00  0.00    +0.061 C 
ENDROOT
BRANCH  11  13
ATOM     13  C   LIG A   1      -6.557   3.780 121.619  0.00  0.00    -0.004 A 
ATOM     14  C   LIG A   1      -5.319   4.291 122.054  0.00  0.00    +0.007 A 
ATOM     15  C   LIG A   1      -4.530   5.086 121.220  0.00  0.00    +0.000 A 
ATOM     16  C   LIG A   1      -4.949   5.374 119.925  0.00  0.00    +0.000 A 
ATOM     17  C   LIG A   1      -6.157   4.862 119.463  0.00  0.00    +0.000 A 
ATOM     18  C   LIG A   1      -6.950   4.070 120.299  0.00  0.00    +0.007 A 
ENDBRANCH  11  13
BRANCH   5  19
ATOM     19  O   LIG A   1      -9.158   0.534 126.665  0.00  0.00    -0.505 OA
ATOM     20  H   LIG A   1     -10.089   0.219 126.592  0.00  0.00    +0.292 HD
ENDBRANCH   5  19
BRANCH   7  21
ATOM     21  O   LIG A   1      -7.425  -2.897 123.749  0.00  0.00    -0.506 OA
ATOM     22  H   LIG A   1      -7.732  -3.024 122.838  0.00  0.00    +0.292 HD
ENDBRANCH   7  21
BRANCH   6  23
ATOM     23  C   LIG A   1      -8.936  -2.245 126.237  0.00  0.00    +0.069 C 
BRANCH  23  24
ATOM     24  C   LIG A   1      -8.089  -2.538 127.451  0.00  0.00    -0.023 C 
ATOM     25  C   LIG A   1      -8.326  -3.420 128.443  0.00  0.00    -0.079 C 
ATOM     26  C   LIG A   1      -9.509  -4.349 128.531  0.00  0.00    +0.038 C 
ATOM     27  C   LIG A   1      -7.369  -3.539 129.602  0.00  0.00    +0.038 C 
ENDBRANCH  23  24
ENDBRANCH   6  23
TORSDOF 5
ENDMDL
MODEL 2
REMARK VINA RESULT:      -8.0      6.004      8.179
REMARK  Name = NuBBE_1824
REMARK  8 active torsions:
REMARK  status: ('A' for Active; 'I' for Inactive)
REMARK    1  A    between atoms: C_5  and  O_6
REMARK    2  A    between atoms: C_7  and  C_8
REMARK    3  A    between atoms: C_8  and  C_9
REMARK    4  A    between atoms: C_10  and  C_11
REMARK    5  A    between atoms: C_10  and  C_12
REMARK    6  A    between atoms: C_13  and  O_14
REMARK    7  A    between atoms: C_18  and  C_19
REMARK    8  A    between atoms: C_18  and  C_20
REMARK                            x       y       z     vdW  Elec       q    Type
REMARK                         _______ _______ _______ _____ _____    ______ ____
ROOT
ATOM      1  O   LIG A   1      -7.338   4.572 128.215  0.00  0.00    -0.292 OA
ATOM      2  C   LIG A   1      -8.295   4.569 128.980  0.00  0.00    +0.174 C 
ATOM      3  C   LIG A   1      -9.264   5.715 129.078  0.00  0.00    +0.132 C 
ATOM      4  C   LIG A   1      -8.581   3.377 129.799  0.00  0.00    +0.101 A 
ATOM      5  C   LIG A   1      -7.793   2.214 129.715  0.00  0.00    +0.138 A 
ATOM      6  C   LIG A   1      -8.099   1.069 130.478  0.00  0.00    +0.040 A 
ATOM      7  C   LIG A   1      -9.221   1.144 131.323  0.00  0.00    +0.127 A 
ATOM      8  C   LIG A   1      -9.995   2.303 131.417  0.00  0.00    +0.092 A 
ATOM      9  C   LIG A   1      -9.662   3.428 130.670  0.00  0.00    +0.139 A 
ATOM     10  O   LIG A   1     -10.438   4.537 130.872  0.00  0.00    -0.480 OA
ATOM     11  C   LIG A   1      -9.845   5.800 130.491  0.00  0.00    +0.140 C 
ATOM     12  C   LIG A   1      -8.773   6.161 131.549  0.00  0.00    +0.061 C 
ENDROOT
BRANCH  11  13
ATOM     13  C   LIG A   1     -10.975   6.849 130.471  0.00  0.00    -0.004 A 
ATOM     14  C   LIG A   1     -11.088   7.805 129.443  0.00  0.00    +0.007 A 
ATOM     15  C   LIG A   1     -12.125   8.742 129.436  0.00  0.00    +0.000 A 
ATOM     16  C   LIG A   1     -13.082   8.734 130.445  0.00  0.00    +0.000 A 
ATOM     17  C   LIG A   1     -13.006   7.786 131.460  0.00  0.00    +0.000 A 
ATOM     18  C   LIG A   1     -11.966   6.851 131.471  0.00  0.00    +0.007 A 
ENDBRANCH  11  13
BRANCH   5  19
ATOM     19  O   LIG A   1      -6.691   2.166 128.898  0.00  0.00    -0.505 OA
ATOM     20  H   LIG A   1      -5.974   2.708 129.302  0.00  0.00    +0.292 HD
ENDBRANCH   5  19
BRANCH   7  21
ATOM     21  O   LIG A   1      -9.629   0.118 132.130  0.00  0.00    -0.506 OA
ATOM     22  H   LIG A   1      -9.497  -0.724 131.668  0.00  0.00    +0.292 HD
ENDBRANCH   7  21
BRANCH   6  23
ATOM     23  C   LIG A   1      -7.201  -0.153 130.419  0.00  0.00    +0.069 C 
BRANCH  23  24
ATOM     24  C   LIG A   1      -7.730  -1.255 129.534  0.00  0.00    -0.023 C 
ATOM     25  C   LIG A   1      -7.662  -2.589 129.728  0.00  0.00    -0.079 C 
ATOM     26  C   LIG A   1      -7.050  -3.275 130.921  0.00  0.00    +0.038 C 
ATOM     27  C   LIG A   1      -8.220  -3.538 128.698  0.00  0.00    +0.038 C 
ENDBRANCH  23  24
ENDBRANCH   6  23
TORSDOF 5
ENDMDL
MODEL 3
REMARK VINA RESULT:      -7.9      1.962      2.351
REMARK  Name = NuBBE_1824
REMARK  8 active torsions:
REMARK  status: ('A' for Active; 'I' for Inactive)
REMARK    1  A    between atoms: C_5  and  O_6
REMARK    2  A    between atoms: C_7  and  C_8
REMARK    3  A    between atoms: C_8  and  C_9
REMARK    4  A    between atoms: C_10  and  C_11
REMARK    5  A    between atoms: C_10  and  C_12
REMARK    6  A    between atoms: C_13  and  O_14
REMARK    7  A    between atoms: C_18  and  C_19
REMARK    8  A    between atoms: C_18  and  C_20
REMARK                            x       y       z     vdW  Elec       q    Type
REMARK                         _______ _______ _______ _____ _____    ______ ____
ROOT
ATOM      1  O   LIG A   1      -5.700   2.903 126.498  0.00  0.00    -0.292 OA
ATOM      2  C   LIG A   1      -6.066   2.409 125.439  0.00  0.00    +0.174 C 
ATOM      3  C   LIG A   1      -6.147   3.193 124.158  0.00  0.00    +0.132 C 
ATOM      4  C   LIG A   1      -6.379   0.970 125.365  0.00  0.00    +0.101 A 
ATOM      5  C   LIG A   1      -6.246   0.125 126.482  0.00  0.00    +0.138 A 
ATOM      6  C   LIG A   1      -6.515  -1.256 126.388  0.00  0.00    +0.040 A 
ATOM      7  C   LIG A   1      -6.920  -1.745 125.134  0.00  0.00    +0.127 A 
ATOM      8  C   LIG A   1      -7.065  -0.903 124.028  0.00  0.00    +0.092 A 
ATOM      9  C   LIG A   1      -6.815   0.458 124.149  0.00  0.00    +0.139 A 
ATOM     10  O   LIG A   1      -7.043   1.215 123.031  0.00  0.00    -0.480 OA
ATOM     11  C   LIG A   1      -7.248   2.629 123.258  0.00  0.00    +0.140 C 
ATOM     12  C   LIG A   1      -8.660   2.814 123.867  0.00  0.00    +0.061 C 
ENDROOT
BRANCH  11  13
ATOM     13  C   LIG A   1      -7.142   3.332 121.889  0.00  0.00    -0.004 A 
ATOM     14  C   LIG A   1      -5.914   3.800 121.384  0.00  0.00    +0.007 A 
ATOM     15  C   LIG A   1      -5.835   4.426 120.136  0.00  0.00    +0.000 A 
ATOM     16  C   LIG A   1      -6.977   4.582 119.359  0.00  0.00    +0.000 A 
ATOM     17  C   LIG A   1      -8.198   4.108 119.825  0.00  0.00    +0.000 A 
ATOM     18  C   LIG A   1      -8.279   3.486 121.075  0.00  0.00    +0.007 A 
ENDBRANCH  11  13
BRANCH   5  19
ATOM     19  O   LIG A   1      -5.866   0.625 127.704  0.00  0.00    -0.505 OA
ATOM     20  H   LIG A   1      -4.893   0.508 127.803  0.00  0.00    +0.292 HD
ENDBRANCH   5  19
BRANCH   7  21
ATOM     21  O   LIG A   1      -7.226  -3.056 124.897  0.00  0.00    -0.506 OA
ATOM     22  H   LIG A   1      -8.121  -3.115 124.529  0.00  0.00    +0.292 HD
ENDBRANCH   7  21
BRANCH   6  23
ATOM     23  C   LIG A   1      -6.424  -2.139 127.619  0.00  0.00    +0.069 C 
BRANCH  23  24
ATOM     24  C   LIG A   1      -5.015  -2.536 127.982  0.00  0.00    -0.023 C 
ATOM     25  C   LIG A   1      -4.579  -3.144 129.105  0.00  0.00    -0.079 C 
ATOM     26  C   LIG A   1      -5.443  -3.594 130.253  0.00  0.00    +0.038 C 
ATOM     27  C   LIG A   1      -3.111  -3.424 129.300  0.00  0.00    +0.038 C 
ENDBRANCH  23  24
ENDBRANCH   6  23
TORSDOF 5
ENDMDL
MODEL 4
REMARK VINA RESULT:      -7.9      8.934     11.073
REMARK  Name = NuBBE_1824
REMARK  8 active torsions:
REMARK  status: ('A' for Active; 'I' for Inactive)
REMARK    1  A    between atoms: C_5  and  O_6
REMARK    2  A    between atoms: C_7  and  C_8
REMARK    3  A    between atoms: C_8  and  C_9
REMARK    4  A    between atoms: C_10  and  C_11
REMARK    5  A    between atoms: C_10  and  C_12
REMARK    6  A    between atoms: C_13  and  O_14
REMARK    7  A    between atoms: C_18  and  C_19
REMARK    8  A    between atoms: C_18  and  C_20
REMARK                            x       y       z     vdW  Elec       q    Type
REMARK                         _______ _______ _______ _____ _____    ______ ____
ROOT
ATOM      1  O   LIG A   1      -8.330   4.986 133.849  0.00  0.00    -0.292 OA
ATOM      2  C   LIG A   1      -8.255   5.700 132.856  0.00  0.00    +0.174 C 
ATOM      3  C   LIG A   1      -9.465   6.258 132.159  0.00  0.00    +0.132 C 
ATOM      4  C   LIG A   1      -6.936   6.110 132.340  0.00  0.00    +0.101 A 
ATOM      5  C   LIG A   1      -5.740   5.722 132.973  0.00  0.00    +0.138 A 
ATOM      6  C   LIG A   1      -4.487   6.151 132.489  0.00  0.00    +0.040 A 
ATOM      7  C   LIG A   1      -4.489   6.978 131.352  0.00  0.00    +0.127 A 
ATOM      8  C   LIG A   1      -5.675   7.352 130.716  0.00  0.00    +0.092 A 
ATOM      9  C   LIG A   1      -6.899   6.900 131.198  0.00  0.00    +0.139 A 
ATOM     10  O   LIG A   1      -8.003   7.265 130.476  0.00  0.00    -0.480 OA
ATOM     11  C   LIG A   1      -9.180   6.446 130.668  0.00  0.00    +0.140 C 
ATOM     12  C   LIG A   1      -8.949   5.100 129.937  0.00  0.00    +0.061 C 
ENDROOT
BRANCH  11  13
ATOM     13  C   LIG A   1     -10.373   7.208 130.055  0.00  0.00    -0.004 A 
ATOM     14  C   LIG A   1     -10.259   7.931 128.852  0.00  0.00    +0.007 A 
ATOM     15  C   LIG A   1     -11.354   8.606 128.306  0.00  0.00    +0.000 A 
ATOM     16  C   LIG A   1     -12.591   8.561 128.940  0.00  0.00    +0.000 A 
ATOM     17  C   LIG A   1     -12.735   7.835 130.117  0.00  0.00    +0.000 A 
ATOM     18  C   LIG A   1     -11.640   7.163 130.667  0.00  0.00    +0.007 A 
ENDBRANCH  11  13
BRANCH   5  19
ATOM     19  O   LIG A   1      -5.758   4.900 134.072  0.00  0.00    -0.505 OA
ATOM     20  H   LIG A   1      -6.629   4.440 134.108  0.00  0.00    +0.292 HD
ENDBRANCH   5  19
BRANCH   7  21
ATOM     21  O   LIG A   1      -3.351   7.459 130.766  0.00  0.00    -0.506 OA
ATOM     22  H   LIG A   1      -2.582   7.196 131.295  0.00  0.00    +0.292 HD
ENDBRANCH   7  21
BRANCH   6  23
ATOM     23  C   LIG A   1      -3.207   5.672 133.150  0.00  0.00    +0.069 C 
BRANCH  23  24
ATOM     24  C   LIG A   1      -2.552   6.706 134.032  0.00  0.00    -0.023 C 
ATOM     25  C   LIG A   1      -1.350   7.297 133.877  0.00  0.00    -0.079 C 
ATOM     26  C   LIG A   1      -0.393   7.061 132.738  0.00  0.00    +0.038 C 
ATOM     27  C   LIG A   1      -0.849   8.286 134.899  0.00  0.00    +0.038 C 
ENDBRANCH  23  24
ENDBRANCH   6  23
TORSDOF 5
ENDMDL
MODEL 5
REMARK VINA RESULT:      -7.9      4.800      6.159
REMARK  Name = NuBBE_1824
REMARK  8 active torsions:
REMARK  status: ('A' for Active; 'I' for Inactive)
REMARK    1  A    between atoms: C_5  and  O_6
REMARK    2  A    between atoms: C_7  and  C_8
REMARK    3  A    between atoms: C_8  and  C_9
REMARK    4  A    between atoms: C_10  and  C_11
REMARK    5  A    between atoms: C_10  and  C_12
REMARK    6  A    between atoms: C_13  and  O_14
REMARK    7  A    between atoms: C_18  and  C_19
REMARK    8  A    between atoms: C_18  and  C_20
REMARK                            x       y       z     vdW  Elec       q    Type
REMARK                         _______ _______ _______ _____ _____    ______ ____
ROOT
ATOM      1  O   LIG A   1      -8.277   3.781 127.201  0.00  0.00    -0.292 OA
ATOM      2  C   LIG A   1      -7.441   3.795 126.305  0.00  0.00    +0.174 C 
ATOM      3  C   LIG A   1      -7.808   3.898 124.849  0.00  0.00    +0.132 C 
ATOM      4  C   LIG A   1      -6.005   3.788 126.636  0.00  0.00    +0.101 A 
ATOM      5  C   LIG A   1      -5.552   3.789 127.968  0.00  0.00    +0.138 A 
ATOM      6  C   LIG A   1      -4.175   3.818 128.270  0.00  0.00    +0.040 A 
ATOM      7  C   LIG A   1      -3.282   3.844 127.184  0.00  0.00    +0.127 A 
ATOM      8  C   LIG A   1      -3.732   3.830 125.862  0.00  0.00    +0.092 A 
ATOM      9  C   LIG A   1      -5.093   3.780 125.587  0.00  0.00    +0.139 A 
ATOM     10  O   LIG A   1      -5.440   3.706 124.265  0.00  0.00    -0.480 OA
ATOM     11  C   LIG A   1      -6.761   3.188 123.987  0.00  0.00    +0.140 C 
ATOM     12  C   LIG A   1      -6.735   1.659 124.232  0.00  0.00    +0.061 C 
ENDROOT
BRANCH  11  13
ATOM     13  C   LIG A   1      -7.077   3.505 122.511  0.00  0.00    -0.004 A 
ATOM     14  C   LIG A   1      -6.072   3.866 121.593  0.00  0.00    +0.007 A 
ATOM     15  C   LIG A   1      -6.376   4.140 120.257  0.00  0.00    +0.000 A 
ATOM     16  C   LIG A   1      -7.687   4.041 119.803  0.00  0.00    +0.000 A 
ATOM     17  C   LIG A   1      -8.694   3.663 120.684  0.00  0.00    +0.000 A 
ATOM     18  C   LIG A   1      -8.392   3.394 122.022  0.00  0.00    +0.007 A 
ENDBRANCH  11  13
BRANCH   5  19
ATOM     19  O   LIG A   1      -6.439   3.745 129.015  0.00  0.00    -0.505 OA
ATOM     20  H   LIG A   1      -7.184   4.362 128.824  0.00  0.00    +0.292 HD
ENDBRANCH   5  19
BRANCH   7  21
ATOM     21  O   LIG A   1      -1.922   3.861 127.325  0.00  0.00    -0.506 OA
ATOM     22  H   LIG A   1      -1.698   3.930 128.266  0.00  0.00    +0.292 HD
ENDBRANCH   7  21
BRANCH   6  23
ATOM     23  C   LIG A   1      -3.706   3.756 129.713  0.00  0.00    +0.069 C 
BRANCH  23  24
ATOM     24  C   LIG A   1      -2.988   5.000 130.173  0.00  0.00    -0.023 C 
ATOM     25  C   LIG A   1      -2.358   5.217 131.346  0.00  0.00    -0.079 C 
ATOM     26  C   LIG A   1      -2.210   4.217 132.464  0.00  0.00    +0.038 C 
ATOM     27  C   LIG A   1      -1.728   6.555 131.638  0.00  0.00    +0.038 C 
ENDBRANCH  23  24
ENDBRANCH   6  23
TORSDOF 5
ENDMDL
MODEL 6
REMARK VINA RESULT:      -7.9      1.350      8.289
REMARK  Name = NuBBE_1824
REMARK  8 active torsions:
REMARK  status: ('A' for Active; 'I' for Inactive)
REMARK    1  A    between atoms: C_5  and  O_6
REMARK    2  A    between atoms: C_7  and  C_8
REMARK    3  A    between atoms: C_8  and  C_9
REMARK    4  A    between atoms: C_10  and  C_11
REMARK    5  A    between atoms: C_10  and  C_12
REMARK    6  A    between atoms: C_13  and  O_14
REMARK    7  A    between atoms: C_18  and  C_19
REMARK    8  A    between atoms: C_18  and  C_20
REMARK                            x       y       z     vdW  Elec       q    Type
REMARK                         _______ _______ _______ _____ _____    ______ ____
ROOT
ATOM      1  O   LIG A   1      -5.859  -1.757 123.755  0.00  0.00    -0.292 OA
ATOM      2  C   LIG A   1      -6.339  -1.356 124.809  0.00  0.00    +0.174 C 
ATOM      3  C   LIG A   1      -6.153  -2.076 126.116  0.00  0.00    +0.132 C 
ATOM      4  C   LIG A   1      -7.073  -0.078 124.845  0.00  0.00    +0.101 A 
ATOM      5  C   LIG A   1      -7.224   0.723 123.698  0.00  0.00    +0.138 A 
ATOM      6  C   LIG A   1      -7.897   1.960 123.755  0.00  0.00    +0.040 A 
ATOM      7  C   LIG A   1      -8.409   2.352 125.005  0.00  0.00    +0.127 A 
ATOM      8  C   LIG A   1      -8.271   1.551 126.141  0.00  0.00    +0.092 A 
ATOM      9  C   LIG A   1      -7.622   0.325 126.057  0.00  0.00    +0.139 A 
ATOM     10  O   LIG A   1      -7.588  -0.420 127.205  0.00  0.00    -0.480 OA
ATOM     11  C   LIG A   1      -7.358  -1.837 127.030  0.00  0.00    +0.140 C 
ATOM     12  C   LIG A   1      -8.657  -2.466 126.469  0.00  0.00    +0.061 C 
ENDROOT
BRANCH  11  13
ATOM     13  C   LIG A   1      -7.017  -2.420 128.416  0.00  0.00    -0.004 A 
ATOM     14  C   LIG A   1      -5.698  -2.749 128.785  0.00  0.00    +0.007 A 
ATOM     15  C   LIG A   1      -5.407  -3.267 130.050  0.00  0.00    +0.000 A 
ATOM     16  C   LIG A   1      -6.423  -3.451 130.981  0.00  0.00    +0.000 A 
ATOM     17  C   LIG A   1      -7.731  -3.112 130.650  0.00  0.00    +0.000 A 
ATOM     18  C   LIG A   1      -8.024  -2.599 129.383  0.00  0.00    +0.007 A 
ENDBRANCH  11  13
BRANCH   5  19
ATOM     19  O   LIG A   1      -6.732   0.314 122.483  0.00  0.00    -0.505 OA
ATOM     20  H   LIG A   1      -7.151  -0.546 122.247  0.00  0.00    +0.292 HD
ENDBRANCH   5  19
BRANCH   7  21
ATOM     21  O   LIG A   1      -9.095   3.518 125.208  0.00  0.00    -0.506 OA
ATOM     22  H   LIG A   1      -9.233   3.961 124.357  0.00  0.00    +0.292 HD
ENDBRANCH   7  21
BRANCH   6  23
ATOM     23  C   LIG A   1      -8.102   2.780 122.494  0.00  0.00    +0.069 C 
BRANCH  23  24
ATOM     24  C   LIG A   1      -6.849   3.454 121.995  0.00  0.00    -0.023 C 
ATOM     25  C   LIG A   1      -6.624   4.016 120.790  0.00  0.00    -0.079 C 
ATOM     26  C   LIG A   1      -7.622   4.117 119.666  0.00  0.00    +0.038 C 
ATOM     27  C   LIG A   1      -5.277   4.609 120.465  0.00  0.00    +0.038 C 
ENDBRANCH  23  24
ENDBRANCH   6  23
TORSDOF 5
ENDMDL
MODEL 7
REMARK VINA RESULT:      -7.8      5.886      9.820
REMARK  Name = NuBBE_1824
REMARK  8 active torsions:
REMARK  status: ('A' for Active; 'I' for Inactive)
REMARK    1  A    between atoms: C_5  and  O_6
REMARK    2  A    between atoms: C_7  and  C_8
REMARK    3  A    between atoms: C_8  and  C_9
REMARK    4  A    between atoms: C_10  and  C_11
REMARK    5  A    between atoms: C_10  and  C_12
REMARK    6  A    between atoms: C_13  and  O_14
REMARK    7  A    between atoms: C_18  and  C_19
REMARK    8  A    between atoms: C_18  and  C_20
REMARK                            x       y       z     vdW  Elec       q    Type
REMARK                         _______ _______ _______ _____ _____    ______ ____
ROOT
ATOM      1  O   LIG A   1      -9.517   2.416 133.339  0.00  0.00    -0.292 OA
ATOM      2  C   LIG A   1      -9.158   2.068 132.221  0.00  0.00    +0.174 C 
ATOM      3  C   LIG A   1      -8.852   0.638 131.870  0.00  0.00    +0.132 C 
ATOM      4  C   LIG A   1      -9.085   3.057 131.129  0.00  0.00    +0.101 A 
ATOM      5  C   LIG A   1      -9.441   4.404 131.325  0.00  0.00    +0.138 A 
ATOM      6  C   LIG A   1      -9.400   5.331 130.263  0.00  0.00    +0.040 A 
ATOM      7  C   LIG A   1      -8.988   4.848 129.008  0.00  0.00    +0.127 A 
ATOM      8  C   LIG A   1      -8.621   3.514 128.817  0.00  0.00    +0.092 A 
ATOM      9  C   LIG A   1      -8.649   2.622 129.883  0.00  0.00    +0.139 A 
ATOM     10  O   LIG A   1      -8.214   1.351 129.619  0.00  0.00    -0.480 OA
ATOM     11  C   LIG A   1      -7.795   0.577 130.766  0.00  0.00    +0.140 C 
ATOM     12  C   LIG A   1      -6.422   1.121 131.232  0.00  0.00    +0.061 C 
ENDROOT
BRANCH  11  13
ATOM     13  C   LIG A   1      -7.679  -0.892 130.309  0.00  0.00    -0.004 A 
ATOM     14  C   LIG A   1      -7.735  -1.259 128.951  0.00  0.00    +0.007 A 
ATOM     15  C   LIG A   1      -7.617  -2.594 128.555  0.00  0.00    +0.000 A 
ATOM     16  C   LIG A   1      -7.423  -3.591 129.505  0.00  0.00    +0.000 A 
ATOM     17  C   LIG A   1      -7.341  -3.252 130.852  0.00  0.00    +0.000 A 
ATOM     18  C   LIG A   1      -7.464  -1.917 131.249  0.00  0.00    +0.007 A 
ENDBRANCH  11  13
BRANCH   5  19
ATOM     19  O   LIG A   1      -9.824   4.860 132.562  0.00  0.00    -0.505 OA
ATOM     20  H   LIG A   1     -10.789   4.697 132.673  0.00  0.00    +0.292 HD
ENDBRANCH   5  19
BRANCH   7  21
ATOM     21  O   LIG A   1      -8.887   5.632 127.893  0.00  0.00    -0.506 OA
ATOM     22  H   LIG A   1      -7.958   5.681 127.618  0.00  0.00    +0.292 HD
ENDBRANCH   7  21
BRANCH   6  23
ATOM     23  C   LIG A   1      -9.729   6.792 130.509  0.00  0.00    +0.069 C 
BRANCH  23  24
ATOM     24  C   LIG A   1     -11.137   7.172 130.124  0.00  0.00    -0.023 C 
ATOM     25  C   LIG A   1     -11.545   7.937 129.090  0.00  0.00    -0.079 C 
ATOM     26  C   LIG A   1     -10.650   8.564 128.053  0.00  0.00    +0.038 C 
ATOM     27  C   LIG A   1     -13.009   8.238 128.895  0.00  0.00    +0.038 C 
ENDBRANCH  23  24
ENDBRANCH   6  23
TORSDOF 5
ENDMDL
MODEL 8
REMARK VINA RESULT:      -7.8      7.961     10.327
REMARK  Name = NuBBE_1824
REMARK  8 active torsions:
REMARK  status: ('A' for Active; 'I' for Inactive)
REMARK    1  A    between atoms: C_5  and  O_6
REMARK    2  A    between atoms: C_7  and  C_8
REMARK    3  A    between atoms: C_8  and  C_9
REMARK    4  A    between atoms: C_10  and  C_11
REMARK    5  A    between atoms: C_10  and  C_12
REMARK    6  A    between atoms: C_13  and  O_14
REMARK    7  A    between atoms: C_18  and  C_19
REMARK    8  A    between atoms: C_18  and  C_20
REMARK                            x       y       z     vdW  Elec       q    Type
REMARK                         _______ _______ _______ _____ _____    ______ ____
ROOT
ATOM      1  O   LIG A   1      -6.503   4.529 128.222  0.00  0.00    -0.292 OA
ATOM      2  C   LIG A   1      -6.250   4.938 129.348  0.00  0.00    +0.174 C 
ATOM      3  C   LIG A   1      -4.847   5.191 129.828  0.00  0.00    +0.132 C 
ATOM      4  C   LIG A   1      -7.347   5.277 130.274  0.00  0.00    +0.101 A 
ATOM      5  C   LIG A   1      -8.697   5.167 129.894  0.00  0.00    +0.138 A 
ATOM      6  C   LIG A   1      -9.735   5.529 130.777  0.00  0.00    +0.040 A 
ATOM      7  C   LIG A   1      -9.359   6.000 132.047  0.00  0.00    +0.127 A 
ATOM      8  C   LIG A   1      -8.018   6.096 132.430  0.00  0.00    +0.092 A 
ATOM      9  C   LIG A   1      -7.012   5.714 131.550  0.00  0.00    +0.139 A 
ATOM     10  O   LIG A   1      -5.732   5.783 132.031  0.00  0.00    -0.480 OA
ATOM     11  C   LIG A   1      -4.755   4.971 131.340  0.00  0.00    +0.140 C 
ATOM     12  C   LIG A   1      -4.995   3.494 131.737  0.00  0.00    +0.061 C 
ENDROOT
BRANCH  11  13
ATOM     13  C   LIG A   1      -3.360   5.445 131.798  0.00  0.00    -0.004 A 
ATOM     14  C   LIG A   1      -2.351   4.539 132.178  0.00  0.00    +0.007 A 
ATOM     15  C   LIG A   1      -1.090   4.987 132.580  0.00  0.00    +0.000 A 
ATOM     16  C   LIG A   1      -0.802   6.347 132.594  0.00  0.00    +0.000 A 
ATOM     17  C   LIG A   1      -1.773   7.261 132.200  0.00  0.00    +0.000 A 
ATOM     18  C   LIG A   1      -3.037   6.815 131.803  0.00  0.00    +0.007 A 
ENDBRANCH  11  13
BRANCH   5  19
ATOM     19  O   LIG A   1      -9.045   4.688 128.655  0.00  0.00    -0.505 OA
ATOM     20  H   LIG A   1      -9.405   3.777 128.759  0.00  0.00    +0.292 HD
ENDBRANCH   5  19
BRANCH   7  21
ATOM     21  O   LIG A   1     -10.255   6.374 133.010  0.00  0.00    -0.506 OA
ATOM     22  H   LIG A   1      -9.866   7.076 133.555  0.00  0.00    +0.292 HD
ENDBRANCH   7  21
BRANCH   6  23
ATOM     23  C   LIG A   1     -11.185   5.345 130.370  0.00  0.00    +0.069 C 
BRANCH  23  24
ATOM     24  C   LIG A   1     -11.744   6.496 129.569  0.00  0.00    -0.023 C 
ATOM     25  C   LIG A   1     -12.528   7.508 129.994  0.00  0.00    -0.079 C 
ATOM     26  C   LIG A   1     -13.000   7.722 131.408  0.00  0.00    +0.038 C 
ATOM     27  C   LIG A   1     -13.021   8.549 129.022  0.00  0.00    +0.038 C 
ENDBRANCH  23  24
ENDBRANCH   6  23
TORSDOF 5
ENDMDL
MODEL 9
REMARK VINA RESULT:      -7.7      4.684     10.326
REMARK  Name = NuBBE_1824
REMARK  8 active torsions:
REMARK  status: ('A' for Active; 'I' for Inactive)
REMARK    1  A    between atoms: C_5  and  O_6
REMARK    2  A    between atoms: C_7  and  C_8
REMARK    3  A    between atoms: C_8  and  C_9
REMARK    4  A    between atoms: C_10  and  C_11
REMARK    5  A    between atoms: C_10  and  C_12
REMARK    6  A    between atoms: C_13  and  O_14
REMARK    7  A    between atoms: C_18  and  C_19
REMARK    8  A    between atoms: C_18  and  C_20
REMARK                            x       y       z     vdW  Elec       q    Type
REMARK                         _______ _______ _______ _____ _____    ______ ____
ROOT
ATOM      1  O   LIG A   1      -4.230  -1.180 130.451  0.00  0.00    -0.292 OA
ATOM      2  C   LIG A   1      -5.221  -1.860 130.691  0.00  0.00    +0.174 C 
ATOM      3  C   LIG A   1      -5.589  -2.302 132.081  0.00  0.00    +0.132 C 
ATOM      4  C   LIG A   1      -6.152  -2.215 129.605  0.00  0.00    +0.101 A 
ATOM      5  C   LIG A   1      -5.953  -1.773 128.284  0.00  0.00    +0.138 A 
ATOM      6  C   LIG A   1      -6.871  -2.090 127.262  0.00  0.00    +0.040 A 
ATOM      7  C   LIG A   1      -7.987  -2.865 127.623  0.00  0.00    +0.127 A 
ATOM      8  C   LIG A   1      -8.178  -3.315 128.932  0.00  0.00    +0.092 A 
ATOM      9  C   LIG A   1      -7.249  -3.008 129.919  0.00  0.00    +0.139 A 
ATOM     10  O   LIG A   1      -7.485  -3.543 131.157  0.00  0.00    -0.480 OA
ATOM     11  C   LIG A   1      -6.338  -3.636 132.032  0.00  0.00    +0.140 C 
ATOM     12  C   LIG A   1      -5.444  -4.795 131.525  0.00  0.00    +0.061 C 
ENDROOT
BRANCH  11  13
ATOM     13  C   LIG A   1      -6.866  -3.928 133.451  0.00  0.00    -0.004 A 
ATOM     14  C   LIG A   1      -7.868  -3.142 134.052  0.00  0.00    +0.007 A 
ATOM     15  C   LIG A   1      -8.342  -3.428 135.335  0.00  0.00    +0.000 A 
ATOM     16  C   LIG A   1      -7.841  -4.517 136.039  0.00  0.00    +0.000 A 
ATOM     17  C   LIG A   1      -6.868  -5.324 135.459  0.00  0.00    +0.000 A 
ATOM     18  C   LIG A   1      -6.389  -5.035 134.178  0.00  0.00    +0.007 A 
ENDBRANCH  11  13
BRANCH   5  19
ATOM     19  O   LIG A   1      -4.847  -1.032 127.947  0.00  0.00    -0.505 OA
ATOM     20  H   LIG A   1      -4.705  -0.344 128.639  0.00  0.00    +0.292 HD
ENDBRANCH   5  19
BRANCH   7  21
ATOM     21  O   LIG A   1      -8.951  -3.259 126.738  0.00  0.00    -0.506 OA
ATOM     22  H   LIG A   1      -8.592  -3.949 126.158  0.00  0.00    +0.292 HD
ENDBRANCH   7  21
BRANCH   6  23
ATOM     23  C   LIG A   1      -6.605  -1.655 125.832  0.00  0.00    +0.069 C 
BRANCH  23  24
ATOM     24  C   LIG A   1      -5.616  -2.530 125.103  0.00  0.00    -0.023 C 
ATOM     25  C   LIG A   1      -5.473  -2.703 123.773  0.00  0.00    -0.079 C 
ATOM     26  C   LIG A   1      -6.279  -2.011 122.704  0.00  0.00    +0.038 C 
ATOM     27  C   LIG A   1      -4.442  -3.661 123.235  0.00  0.00    +0.038 C 
ENDBRANCH  23  24
ENDBRANCH   6  23
TORSDOF 5
ENDMDL
