MODEL 1
REMARK VINA RESULT:      -6.2      0.000      0.000
REMARK  Name = NuBBE_2336
REMARK  6 active torsions:
REMARK  status: ('A' for Active; 'I' for Inactive)
REMARK    1  A    between atoms: O_1  and  C_2
REMARK    2  A    between atoms: C_2  and  C_3
REMARK    3  A    between atoms: C_6  and  C_8
REMARK    4  A    between atoms: C_8  and  C_9
REMARK    5  A    between atoms: C_8  and  C_10
REMARK    6  A    between atoms: C_17  and  C_18
REMARK                            x       y       z     vdW  Elec       q    Type
REMARK                         _______ _______ _______ _____ _____    ______ ____
ROOT
ATOM      1  C   LIG A   1      -9.133  -1.863 123.308  0.00  0.00    +0.067 C 
ATOM      2  C   LIG A   1      -9.694  -0.487 122.902  0.00  0.00    +0.041 C 
ATOM      3  C   LIG A   1      -7.885  -2.193 122.477  0.00  0.00    +0.035 C 
ATOM      4  C   LIG A   1      -6.683  -1.345 122.875  0.00  0.00    +0.007 C 
ATOM      5  C   LIG A   1      -6.274  -1.593 124.344  0.00  0.00    -0.001 C 
ATOM      6  C   LIG A   1      -7.512  -1.225 125.238  0.00  0.00    +0.021 C 
ATOM      7  C   LIG A   1      -8.864  -1.892 124.838  0.00  0.00    +0.028 C 
ATOM      8  C   LIG A   1      -9.022  -3.269 125.506  0.00  0.00    +0.011 C 
ATOM      9  C   LIG A   1      -8.931  -3.163 127.033  0.00  0.00    +0.030 C 
ATOM     10  C   LIG A   1      -7.905  -2.180 127.537  0.00  0.00    -0.076 C 
ATOM     11  C   LIG A   1      -7.642  -2.211 129.016  0.00  0.00    +0.038 C 
ATOM     12  C   LIG A   1      -7.259  -1.330 126.719  0.00  0.00    -0.024 C 
ENDROOT
BRANCH   5  13
ATOM     13  C   LIG A   1      -5.589  -2.994 124.545  0.00  0.00    -0.013 C 
ATOM     14  C   LIG A   1      -4.811  -3.113 125.864  0.00  0.00    +0.007 C 
ATOM     15  C   LIG A   1      -4.597  -3.331 123.414  0.00  0.00    +0.007 C 
ENDBRANCH   5  13
BRANCH   1  16
ATOM     16  O   LIG A   1     -10.163  -2.795 122.958  0.00  0.00    -0.389 OA
ATOM     17  H   LIG A   1     -10.722  -2.942 123.740  0.00  0.00    +0.210 HD
ENDBRANCH   1  16
TORSDOF 2
ENDMDL
MODEL 2
REMARK VINA RESULT:      -6.1      2.185      3.614
REMARK  Name = NuBBE_2336
REMARK  6 active torsions:
REMARK  status: ('A' for Active; 'I' for Inactive)
REMARK    1  A    between atoms: O_1  and  C_2
REMARK    2  A    between atoms: C_2  and  C_3
REMARK    3  A    between atoms: C_6  and  C_8
REMARK    4  A    between atoms: C_8  and  C_9
REMARK    5  A    between atoms: C_8  and  C_10
REMARK    6  A    between atoms: C_17  and  C_18
REMARK                            x       y       z     vdW  Elec       q    Type
REMARK                         _______ _______ _______ _____ _____    ______ ____
ROOT
ATOM      1  C   LIG A   1      -9.030  -2.509 124.755  0.00  0.00    +0.067 C 
ATOM      2  C   LIG A   1      -9.213  -3.285 123.437  0.00  0.00    +0.041 C 
ATOM      3  C   LIG A   1      -7.838  -3.074 125.542  0.00  0.00    +0.035 C 
ATOM      4  C   LIG A   1      -6.502  -2.724 124.900  0.00  0.00    +0.007 C 
ATOM      5  C   LIG A   1      -6.275  -1.198 124.854  0.00  0.00    -0.001 C 
ATOM      6  C   LIG A   1      -7.451  -0.578 124.018  0.00  0.00    +0.021 C 
ATOM      7  C   LIG A   1      -8.890  -0.990 124.458  0.00  0.00    +0.028 C 
ATOM      8  C   LIG A   1      -9.422  -0.055 125.557  0.00  0.00    +0.011 C 
ATOM      9  C   LIG A   1      -9.423   1.407 125.095  0.00  0.00    +0.030 C 
ATOM     10  C   LIG A   1      -8.232   1.806 124.261  0.00  0.00    -0.076 C 
ATOM     11  C   LIG A   1      -8.095   3.274 123.978  0.00  0.00    +0.038 C 
ATOM     12  C   LIG A   1      -7.341   0.908 123.801  0.00  0.00    -0.024 C 
ENDROOT
BRANCH   5  13
ATOM     13  C   LIG A   1      -5.962  -0.598 126.274  0.00  0.00    -0.013 C 
ATOM     14  C   LIG A   1      -5.008   0.605 126.235  0.00  0.00    +0.007 C 
ATOM     15  C   LIG A   1      -5.330  -1.634 127.224  0.00  0.00    +0.007 C 
ENDBRANCH   5  13
BRANCH   1  16
ATOM     16  O   LIG A   1     -10.224  -2.770 125.501  0.00  0.00    -0.389 OA
ATOM     17  H   LIG A   1     -10.621  -1.919 125.752  0.00  0.00    +0.210 HD
ENDBRANCH   1  16
TORSDOF 2
ENDMDL
MODEL 3
REMARK VINA RESULT:      -6.1      1.663      3.310
REMARK  Name = NuBBE_2336
REMARK  6 active torsions:
REMARK  status: ('A' for Active; 'I' for Inactive)
REMARK    1  A    between atoms: O_1  and  C_2
REMARK    2  A    between atoms: C_2  and  C_3
REMARK    3  A    between atoms: C_6  and  C_8
REMARK    4  A    between atoms: C_8  and  C_9
REMARK    5  A    between atoms: C_8  and  C_10
REMARK    6  A    between atoms: C_17  and  C_18
REMARK                            x       y       z     vdW  Elec       q    Type
REMARK                         _______ _______ _______ _____ _____    ______ ____
ROOT
ATOM      1  C   LIG A   1      -8.717  -1.803 123.304  0.00  0.00    +0.067 C 
ATOM      2  C   LIG A   1      -8.116  -2.332 121.988  0.00  0.00    +0.041 C 
ATOM      3  C   LIG A   1      -9.207  -2.971 124.172  0.00  0.00    +0.035 C 
ATOM      4  C   LIG A   1      -8.056  -3.771 124.768  0.00  0.00    +0.007 C 
ATOM      5  C   LIG A   1      -7.185  -2.904 125.704  0.00  0.00    -0.001 C 
ATOM      6  C   LIG A   1      -6.624  -1.715 124.845  0.00  0.00    +0.021 C 
ATOM      7  C   LIG A   1      -7.680  -0.903 124.033  0.00  0.00    +0.028 C 
ATOM      8  C   LIG A   1      -8.278   0.232 124.881  0.00  0.00    +0.011 C 
ATOM      9  C   LIG A   1      -7.187   1.178 125.398  0.00  0.00    +0.030 C 
ATOM     10  C   LIG A   1      -5.910   0.497 125.820  0.00  0.00    -0.076 C 
ATOM     11  C   LIG A   1      -4.910   1.365 126.529  0.00  0.00    +0.038 C 
ATOM     12  C   LIG A   1      -5.677  -0.808 125.586  0.00  0.00    -0.024 C 
ENDROOT
BRANCH   5  13
ATOM     13  C   LIG A   1      -7.908  -2.578 127.061  0.00  0.00    -0.013 C 
ATOM     14  C   LIG A   1      -6.940  -2.308 128.223  0.00  0.00    +0.007 C 
ATOM     15  C   LIG A   1      -8.842  -3.715 127.518  0.00  0.00    +0.007 C 
ENDBRANCH   5  13
BRANCH   1  16
ATOM     16  O   LIG A   1      -9.857  -1.035 122.902  0.00  0.00    -0.389 OA
ATOM     17  H   LIG A   1     -10.451  -1.612 122.392  0.00  0.00    +0.210 HD
ENDBRANCH   1  16
TORSDOF 2
ENDMDL
MODEL 4
REMARK VINA RESULT:      -6.0      2.332      4.728
REMARK  Name = NuBBE_2336
REMARK  6 active torsions:
REMARK  status: ('A' for Active; 'I' for Inactive)
REMARK    1  A    between atoms: O_1  and  C_2
REMARK    2  A    between atoms: C_2  and  C_3
REMARK    3  A    between atoms: C_6  and  C_8
REMARK    4  A    between atoms: C_8  and  C_9
REMARK    5  A    between atoms: C_8  and  C_10
REMARK    6  A    between atoms: C_17  and  C_18
REMARK                            x       y       z     vdW  Elec       q    Type
REMARK                         _______ _______ _______ _____ _____    ______ ____
ROOT
ATOM      1  C   LIG A   1      -5.979   0.131 126.611  0.00  0.00    +0.067 C 
ATOM      2  C   LIG A   1      -6.372   1.618 126.534  0.00  0.00    +0.041 C 
ATOM      3  C   LIG A   1      -5.999  -0.348 128.070  0.00  0.00    +0.035 C 
ATOM      4  C   LIG A   1      -7.414  -0.471 128.620  0.00  0.00    +0.007 C 
ATOM      5  C   LIG A   1      -8.241  -1.514 127.836  0.00  0.00    -0.001 C 
ATOM      6  C   LIG A   1      -8.284  -1.041 126.339  0.00  0.00    +0.021 C 
ATOM      7  C   LIG A   1      -6.906  -0.709 125.689  0.00  0.00    +0.028 C 
ATOM      8  C   LIG A   1      -6.263  -1.966 125.081  0.00  0.00    +0.011 C 
ATOM      9  C   LIG A   1      -7.181  -2.616 124.039  0.00  0.00    +0.030 C 
ATOM     10  C   LIG A   1      -8.646  -2.600 124.392  0.00  0.00    -0.076 C 
ATOM     11  C   LIG A   1      -9.542  -3.415 123.503  0.00  0.00    +0.038 C 
ATOM     12  C   LIG A   1      -9.128  -1.906 125.440  0.00  0.00    -0.024 C 
ENDROOT
BRANCH   5  13
ATOM     13  C   LIG A   1      -7.791  -2.988 128.147  0.00  0.00    -0.013 C 
ATOM     14  C   LIG A   1      -8.891  -4.031 127.900  0.00  0.00    +0.007 C 
ATOM     15  C   LIG A   1      -7.332  -3.167 129.608  0.00  0.00    +0.007 C 
ENDBRANCH   5  13
BRANCH   1  16
ATOM     16  O   LIG A   1      -4.626   0.085 126.144  0.00  0.00    -0.389 OA
ATOM     17  H   LIG A   1      -4.615  -0.365 125.282  0.00  0.00    +0.210 HD
ENDBRANCH   1  16
TORSDOF 2
ENDMDL
MODEL 5
REMARK VINA RESULT:      -5.8      2.607      4.822
REMARK  Name = NuBBE_2336
REMARK  6 active torsions:
REMARK  status: ('A' for Active; 'I' for Inactive)
REMARK    1  A    between atoms: O_1  and  C_2
REMARK    2  A    between atoms: C_2  and  C_3
REMARK    3  A    between atoms: C_6  and  C_8
REMARK    4  A    between atoms: C_8  and  C_9
REMARK    5  A    between atoms: C_8  and  C_10
REMARK    6  A    between atoms: C_17  and  C_18
REMARK                            x       y       z     vdW  Elec       q    Type
REMARK                         _______ _______ _______ _____ _____    ______ ____
ROOT
ATOM      1  C   LIG A   1      -6.668  -0.904 127.495  0.00  0.00    +0.067 C 
ATOM      2  C   LIG A   1      -7.188  -0.435 128.867  0.00  0.00    +0.041 C 
ATOM      3  C   LIG A   1      -6.923  -2.408 127.318  0.00  0.00    +0.035 C 
ATOM      4  C   LIG A   1      -8.398  -2.725 127.108  0.00  0.00    +0.007 C 
ATOM      5  C   LIG A   1      -8.945  -2.063 125.825  0.00  0.00    -0.001 C 
ATOM      6  C   LIG A   1      -8.744  -0.514 125.980  0.00  0.00    +0.021 C 
ATOM      7  C   LIG A   1      -7.307  -0.048 126.367  0.00  0.00    +0.028 C 
ATOM      8  C   LIG A   1      -6.433   0.150 125.118  0.00  0.00    +0.011 C 
ATOM      9  C   LIG A   1      -7.059   1.162 124.151  0.00  0.00    +0.030 C 
ATOM     10  C   LIG A   1      -8.559   1.073 124.030  0.00  0.00    -0.076 C 
ATOM     11  C   LIG A   1      -9.176   1.897 122.937  0.00  0.00    +0.038 C 
ATOM     12  C   LIG A   1      -9.303   0.301 124.843  0.00  0.00    -0.024 C 
ENDROOT
BRANCH   5  13
ATOM     13  C   LIG A   1      -8.416  -2.765 124.520  0.00  0.00    -0.013 C 
ATOM     14  C   LIG A   1      -9.462  -2.842 123.398  0.00  0.00    +0.007 C 
ATOM     15  C   LIG A   1      -7.937  -4.206 124.780  0.00  0.00    +0.007 C 
ENDBRANCH   5  13
BRANCH   1  16
ATOM     16  O   LIG A   1      -5.252  -0.693 127.550  0.00  0.00    -0.389 OA
ATOM     17  H   LIG A   1      -4.892  -1.221 128.282  0.00  0.00    +0.210 HD
ENDBRANCH   1  16
TORSDOF 2
ENDMDL
MODEL 6
REMARK VINA RESULT:      -5.8      8.938     11.485
REMARK  Name = NuBBE_2336
REMARK  6 active torsions:
REMARK  status: ('A' for Active; 'I' for Inactive)
REMARK    1  A    between atoms: O_1  and  C_2
REMARK    2  A    between atoms: C_2  and  C_3
REMARK    3  A    between atoms: C_6  and  C_8
REMARK    4  A    between atoms: C_8  and  C_9
REMARK    5  A    between atoms: C_8  and  C_10
REMARK    6  A    between atoms: C_17  and  C_18
REMARK                            x       y       z     vdW  Elec       q    Type
REMARK                         _______ _______ _______ _____ _____    ______ ____
ROOT
ATOM      1  C   LIG A   1      -7.199   5.271 134.200  0.00  0.00    +0.067 C 
ATOM      2  C   LIG A   1      -7.626   5.872 135.553  0.00  0.00    +0.041 C 
ATOM      3  C   LIG A   1      -7.486   3.762 134.175  0.00  0.00    +0.035 C 
ATOM      4  C   LIG A   1      -8.976   3.458 134.085  0.00  0.00    +0.007 C 
ATOM      5  C   LIG A   1      -9.592   4.013 132.782  0.00  0.00    -0.001 C 
ATOM      6  C   LIG A   1      -9.359   5.566 132.784  0.00  0.00    +0.021 C 
ATOM      7  C   LIG A   1      -7.894   6.036 133.040  0.00  0.00    +0.028 C 
ATOM      8  C   LIG A   1      -7.096   6.103 131.727  0.00  0.00    +0.011 C 
ATOM      9  C   LIG A   1      -7.767   7.036 130.712  0.00  0.00    +0.030 C 
ATOM     10  C   LIG A   1      -9.272   6.967 130.690  0.00  0.00    -0.076 C 
ATOM     11  C   LIG A   1      -9.944   7.703 129.566  0.00  0.00    +0.038 C 
ATOM     12  C   LIG A   1      -9.976   6.286 131.613  0.00  0.00    -0.024 C 
ENDROOT
BRANCH   5  13
ATOM     13  C   LIG A   1      -9.155   3.187 131.516  0.00  0.00    -0.013 C 
ATOM     14  C   LIG A   1     -10.116   3.333 130.327  0.00  0.00    +0.007 C 
ATOM     15  C   LIG A   1      -9.039   1.679 131.810  0.00  0.00    +0.007 C 
ENDBRANCH   5  13
BRANCH   1  16
ATOM     16  O   LIG A   1      -5.780   5.457 134.149  0.00  0.00    -0.389 OA
ATOM     17  H   LIG A   1      -5.369   4.612 133.901  0.00  0.00    +0.210 HD
ENDBRANCH   1  16
TORSDOF 2
ENDMDL
MODEL 7
REMARK VINA RESULT:      -5.8      2.494      4.555
REMARK  Name = NuBBE_2336
REMARK  6 active torsions:
REMARK  status: ('A' for Active; 'I' for Inactive)
REMARK    1  A    between atoms: O_1  and  C_2
REMARK    2  A    between atoms: C_2  and  C_3
REMARK    3  A    between atoms: C_6  and  C_8
REMARK    4  A    between atoms: C_8  and  C_9
REMARK    5  A    between atoms: C_8  and  C_10
REMARK    6  A    between atoms: C_17  and  C_18
REMARK                            x       y       z     vdW  Elec       q    Type
REMARK                         _______ _______ _______ _____ _____    ______ ____
ROOT
ATOM      1  C   LIG A   1      -6.211  -1.691 127.863  0.00  0.00    +0.067 C 
ATOM      2  C   LIG A   1      -4.991  -2.596 128.120  0.00  0.00    +0.041 C 
ATOM      3  C   LIG A   1      -5.753  -0.260 127.546  0.00  0.00    +0.035 C 
ATOM      4  C   LIG A   1      -5.110  -0.149 126.170  0.00  0.00    +0.007 C 
ATOM      5  C   LIG A   1      -6.103  -0.518 125.046  0.00  0.00    -0.001 C 
ATOM      6  C   LIG A   1      -6.567  -1.996 125.305  0.00  0.00    +0.021 C 
ATOM      7  C   LIG A   1      -7.095  -2.303 126.741  0.00  0.00    +0.028 C 
ATOM      8  C   LIG A   1      -8.599  -2.005 126.854  0.00  0.00    +0.011 C 
ATOM      9  C   LIG A   1      -9.407  -2.806 125.826  0.00  0.00    +0.030 C 
ATOM     10  C   LIG A   1      -8.752  -2.939 124.475  0.00  0.00    -0.076 C 
ATOM     11  C   LIG A   1      -9.608  -3.526 123.389  0.00  0.00    +0.038 C 
ATOM     12  C   LIG A   1      -7.484  -2.552 124.247  0.00  0.00    -0.024 C 
ENDROOT
BRANCH   5  13
ATOM     13  C   LIG A   1      -7.199   0.589 124.830  0.00  0.00    -0.013 C 
ATOM     14  C   LIG A   1      -7.827   0.566 123.429  0.00  0.00    +0.007 C 
ATOM     15  C   LIG A   1      -6.647   2.012 125.045  0.00  0.00    +0.007 C 
ENDBRANCH   5  13
BRANCH   1  16
ATOM     16  O   LIG A   1      -6.918  -1.670 129.108  0.00  0.00    -0.389 OA
ATOM     17  H   LIG A   1      -7.661  -2.295 129.049  0.00  0.00    +0.210 HD
ENDBRANCH   1  16
TORSDOF 2
ENDMDL
MODEL 8
REMARK VINA RESULT:      -5.7      2.160      3.098
REMARK  Name = NuBBE_2336
REMARK  6 active torsions:
REMARK  status: ('A' for Active; 'I' for Inactive)
REMARK    1  A    between atoms: O_1  and  C_2
REMARK    2  A    between atoms: C_2  and  C_3
REMARK    3  A    between atoms: C_6  and  C_8
REMARK    4  A    between atoms: C_8  and  C_9
REMARK    5  A    between atoms: C_8  and  C_10
REMARK    6  A    between atoms: C_17  and  C_18
REMARK                            x       y       z     vdW  Elec       q    Type
REMARK                         _______ _______ _______ _____ _____    ______ ____
ROOT
ATOM      1  C   LIG A   1      -8.977   1.140 123.984  0.00  0.00    +0.067 C 
ATOM      2  C   LIG A   1      -8.258   2.157 123.079  0.00  0.00    +0.041 C 
ATOM      3  C   LIG A   1      -9.678   0.073 123.130  0.00  0.00    +0.035 C 
ATOM      4  C   LIG A   1      -8.691  -0.884 122.474  0.00  0.00    +0.007 C 
ATOM      5  C   LIG A   1      -7.878  -1.671 123.525  0.00  0.00    -0.001 C 
ATOM      6  C   LIG A   1      -7.106  -0.618 124.398  0.00  0.00    +0.021 C 
ATOM      7  C   LIG A   1      -7.971   0.532 125.000  0.00  0.00    +0.028 C 
ATOM      8  C   LIG A   1      -8.572   0.123 126.355  0.00  0.00    +0.011 C 
ATOM      9  C   LIG A   1      -7.480  -0.278 127.353  0.00  0.00    +0.030 C 
ATOM     10  C   LIG A   1      -6.335  -1.056 126.757  0.00  0.00    -0.076 C 
ATOM     11  C   LIG A   1      -5.364  -1.647 127.739  0.00  0.00    +0.038 C 
ATOM     12  C   LIG A   1      -6.189  -1.221 125.429  0.00  0.00    -0.024 C 
ENDROOT
BRANCH   5  13
ATOM     13  C   LIG A   1      -8.742  -2.765 124.253  0.00  0.00    -0.013 C 
ATOM     14  C   LIG A   1      -7.910  -3.916 124.836  0.00  0.00    +0.007 C 
ATOM     15  C   LIG A   1      -9.789  -3.403 123.319  0.00  0.00    +0.007 C 
ENDBRANCH   5  13
BRANCH   1  16
ATOM     16  O   LIG A   1      -9.983   1.902 124.663  0.00  0.00    -0.389 OA
ATOM     17  H   LIG A   1     -10.548   2.327 123.995  0.00  0.00    +0.210 HD
ENDBRANCH   1  16
TORSDOF 2
ENDMDL
MODEL 9
REMARK VINA RESULT:      -5.7     10.330     11.963
REMARK  Name = NuBBE_2336
REMARK  6 active torsions:
REMARK  status: ('A' for Active; 'I' for Inactive)
REMARK    1  A    between atoms: O_1  and  C_2
REMARK    2  A    between atoms: C_2  and  C_3
REMARK    3  A    between atoms: C_6  and  C_8
REMARK    4  A    between atoms: C_8  and  C_9
REMARK    5  A    between atoms: C_8  and  C_10
REMARK    6  A    between atoms: C_17  and  C_18
REMARK                            x       y       z     vdW  Elec       q    Type
REMARK                         _______ _______ _______ _____ _____    ______ ____
ROOT
ATOM      1  C   LIG A   1      -3.619   6.932 129.458  0.00  0.00    +0.067 C 
ATOM      2  C   LIG A   1      -2.887   6.848 128.105  0.00  0.00    +0.041 C 
ATOM      3  C   LIG A   1      -4.500   5.691 129.663  0.00  0.00    +0.035 C 
ATOM      4  C   LIG A   1      -3.680   4.438 129.940  0.00  0.00    +0.007 C 
ATOM      5  C   LIG A   1      -2.856   4.573 131.239  0.00  0.00    -0.001 C 
ATOM      6  C   LIG A   1      -1.905   5.810 131.059  0.00  0.00    +0.021 C 
ATOM      7  C   LIG A   1      -2.589   7.135 130.604  0.00  0.00    +0.028 C 
ATOM      8  C   LIG A   1      -3.101   7.938 131.811  0.00  0.00    +0.011 C 
ATOM      9  C   LIG A   1      -1.967   8.254 132.794  0.00  0.00    +0.030 C 
ATOM     10  C   LIG A   1      -0.967   7.142 132.982  0.00  0.00    -0.076 C 
ATOM     11  C   LIG A   1       0.026   7.337 134.092  0.00  0.00    +0.038 C 
ATOM     12  C   LIG A   1      -0.962   6.039 132.211  0.00  0.00    -0.024 C 
ENDROOT
BRANCH   5  13
ATOM     13  C   LIG A   1      -3.756   4.497 132.527  0.00  0.00    -0.013 C 
ATOM     14  C   LIG A   1      -3.056   3.842 133.727  0.00  0.00    +0.007 C 
ATOM     15  C   LIG A   1      -5.058   3.707 132.289  0.00  0.00    +0.007 C 
ENDBRANCH   5  13
BRANCH   1  16
ATOM     16  O   LIG A   1      -4.475   8.074 129.339  0.00  0.00    -0.389 OA
ATOM     17  H   LIG A   1      -3.964   8.866 129.578  0.00  0.00    +0.210 HD
ENDBRANCH   1  16
TORSDOF 2
ENDMDL
