MODEL 1
REMARK VINA RESULT:      -9.0      0.000      0.000
REMARK  Name = NuBBE_1034
REMARK  10 active torsions:
REMARK  status: ('A' for Active; 'I' for Inactive)
REMARK    1  A    between atoms: O_1  and  C_2
REMARK    2  A    between atoms: C_5  and  C_38
REMARK    3  A    between atoms: C_8  and  C_9
REMARK    4  A    between atoms: C_8  and  C_10
REMARK    5  A    between atoms: C_13  and  C_37
REMARK    6  A    between atoms: C_18  and  C_35
REMARK    7  A    between atoms: C_21  and  C_32
REMARK    8  A    between atoms: C_23  and  C_30
REMARK    9  A    between atoms: C_25  and  C_26
REMARK   10  A    between atoms: C_32  and  O_33
REMARK                            x       y       z     vdW  Elec       q    Type
REMARK                         _______ _______ _______ _____ _____    ______ ____
ROOT
ATOM      1  C   LIG A   1      -4.100  -3.931 131.002  0.00  0.00    +0.120 C 
ATOM      2  C   LIG A   1      -3.231  -3.406 129.865  0.00  0.00    +0.032 C 
ATOM      3  C   LIG A   1      -4.001  -3.301 128.549  0.00  0.00    +0.010 C 
ATOM      4  C   LIG A   1      -5.311  -2.446 128.630  0.00  0.00    -0.025 C 
ATOM      5  C   LIG A   1      -6.155  -3.007 129.830  0.00  0.00    +0.003 C 
ATOM      6  C   LIG A   1      -5.410  -3.118 131.213  0.00  0.00    -0.006 C 
ATOM      7  C   LIG A   1      -6.283  -3.918 132.221  0.00  0.00    +0.014 C 
ATOM      8  C   LIG A   1      -5.127  -1.759 131.883  0.00  0.00    +0.014 C 
ATOM      9  C   LIG A   1      -7.529  -2.323 129.888  0.00  0.00    +0.005 C 
ATOM     10  C   LIG A   1      -8.355  -2.643 128.643  0.00  0.00    +0.008 C 
ATOM     11  C   LIG A   1      -7.697  -2.328 127.266  0.00  0.00    -0.019 C 
ATOM     12  C   LIG A   1      -6.152  -2.676 127.296  0.00  0.00    +0.006 C 
ATOM     13  C   LIG A   1      -5.446  -2.244 125.996  0.00  0.00    +0.031 C 
ATOM     14  C   LIG A   1      -5.988  -1.044 125.295  0.00  0.00    -0.026 C 
ATOM     15  C   LIG A   1      -7.140  -0.396 125.547  0.00  0.00    -0.063 C 
ATOM     16  C   LIG A   1      -8.060  -0.833 126.714  0.00  0.00    -0.005 C 
ATOM     17  C   LIG A   1      -9.550  -0.776 126.229  0.00  0.00    +0.012 C 
ATOM     18  C   LIG A   1      -9.972   0.530 125.547  0.00  0.00    +0.019 C 
ATOM     19  C   LIG A   1      -9.070   0.896 124.346  0.00  0.00    +0.074 C 
ATOM     20  C   LIG A   1      -7.567   0.870 124.763  0.00  0.00    +0.035 C 
ATOM     21  C   LIG A   1      -6.622   1.411 123.627  0.00  0.00    -0.003 C 
ATOM     22  C   LIG A   1      -7.038   2.841 123.179  0.00  0.00    -0.011 C 
ATOM     23  C   LIG A   1      -6.663   3.903 124.221  0.00  0.00    +0.008 C 
ATOM     24  C   LIG A   1      -8.529   2.917 122.824  0.00  0.00    +0.004 C 
ATOM     25  C   LIG A   1      -9.439   2.344 123.911  0.00  0.00    +0.019 C 
ATOM     26  C   LIG A   1      -6.496   0.520 122.377  0.00  0.00    +0.008 C 
ATOM     27  C   LIG A   1      -7.936   0.242 127.823  0.00  0.00    +0.016 C 
ATOM     28  C   LIG A   1      -8.321  -3.387 126.278  0.00  0.00    +0.012 C 
ATOM     29  C   LIG A   1      -4.886  -0.971 128.794  0.00  0.00    +0.012 C 
ENDROOT
BRANCH   1  30
ATOM     30  O   LIG A   1      -3.324  -3.952 132.199  0.00  0.00    -0.391 OA
ATOM     31  H   LIG A   1      -3.707  -4.625 132.787  0.00  0.00    +0.210 HD
ENDBRANCH   1  30
BRANCH  19  32
ATOM     32  C   LIG A   1      -9.395  -0.119 123.242  0.00  0.00    +0.311 C 
ATOM     33  O   LIG A   1      -8.851  -1.193 123.042  0.00  0.00    -0.250 OA
BRANCH  32  34
ATOM     34  O   LIG A   1     -10.463   0.210 122.487  0.00  0.00    -0.480 OA
ATOM     35  H   LIG A   1     -10.132   0.953 121.939  0.00  0.00    +0.295 HD
ENDBRANCH  32  34
ENDBRANCH  19  32
TORSDOF 3
ENDMDL
MODEL 2
REMARK VINA RESULT:      -8.7      2.037      4.140
REMARK  Name = NuBBE_1034
REMARK  10 active torsions:
REMARK  status: ('A' for Active; 'I' for Inactive)
REMARK    1  A    between atoms: O_1  and  C_2
REMARK    2  A    between atoms: C_5  and  C_38
REMARK    3  A    between atoms: C_8  and  C_9
REMARK    4  A    between atoms: C_8  and  C_10
REMARK    5  A    between atoms: C_13  and  C_37
REMARK    6  A    between atoms: C_18  and  C_35
REMARK    7  A    between atoms: C_21  and  C_32
REMARK    8  A    between atoms: C_23  and  C_30
REMARK    9  A    between atoms: C_25  and  C_26
REMARK   10  A    between atoms: C_32  and  O_33
REMARK                            x       y       z     vdW  Elec       q    Type
REMARK                         _______ _______ _______ _____ _____    ______ ____
ROOT
ATOM      1  C   LIG A   1      -5.610  -3.161 134.610  0.00  0.00    +0.120 C 
ATOM      2  C   LIG A   1      -6.331  -4.223 133.788  0.00  0.00    +0.032 C 
ATOM      3  C   LIG A   1      -7.148  -3.617 132.647  0.00  0.00    +0.010 C 
ATOM      4  C   LIG A   1      -6.330  -2.692 131.683  0.00  0.00    -0.025 C 
ATOM      5  C   LIG A   1      -5.586  -1.636 132.579  0.00  0.00    +0.003 C 
ATOM      6  C   LIG A   1      -4.716  -2.213 133.758  0.00  0.00    -0.006 C 
ATOM      7  C   LIG A   1      -4.261  -1.057 134.693  0.00  0.00    +0.014 C 
ATOM      8  C   LIG A   1      -3.426  -2.919 133.297  0.00  0.00    +0.014 C 
ATOM      9  C   LIG A   1      -4.877  -0.592 131.703  0.00  0.00    +0.005 C 
ATOM     10  C   LIG A   1      -5.886   0.221 130.892  0.00  0.00    +0.008 C 
ATOM     11  C   LIG A   1      -6.882  -0.584 130.005  0.00  0.00    -0.019 C 
ATOM     12  C   LIG A   1      -7.350  -1.902 130.748  0.00  0.00    +0.006 C 
ATOM     13  C   LIG A   1      -8.224  -2.788 129.840  0.00  0.00    +0.031 C 
ATOM     14  C   LIG A   1      -7.943  -2.747 128.376  0.00  0.00    -0.026 C 
ATOM     15  C   LIG A   1      -7.146  -1.885 127.717  0.00  0.00    -0.063 C 
ATOM     16  C   LIG A   1      -6.340  -0.806 128.478  0.00  0.00    -0.005 C 
ATOM     17  C   LIG A   1      -6.411   0.538 127.673  0.00  0.00    +0.012 C 
ATOM     18  C   LIG A   1      -6.072   0.431 126.182  0.00  0.00    +0.019 C 
ATOM     19  C   LIG A   1      -6.945  -0.609 125.443  0.00  0.00    +0.074 C 
ATOM     20  C   LIG A   1      -6.910  -1.980 126.189  0.00  0.00    +0.035 C 
ATOM     21  C   LIG A   1      -7.635  -3.119 125.380  0.00  0.00    -0.003 C 
ATOM     22  C   LIG A   1      -7.042  -3.262 123.950  0.00  0.00    -0.011 C 
ATOM     23  C   LIG A   1      -5.659  -3.928 123.964  0.00  0.00    +0.008 C 
ATOM     24  C   LIG A   1      -6.999  -1.917 123.212  0.00  0.00    +0.004 C 
ATOM     25  C   LIG A   1      -6.340  -0.802 124.023  0.00  0.00    +0.019 C 
ATOM     26  C   LIG A   1      -9.166  -2.994 125.268  0.00  0.00    +0.008 C 
ATOM     27  C   LIG A   1      -4.851  -1.237 128.448  0.00  0.00    +0.016 C 
ATOM     28  C   LIG A   1      -8.175   0.317 129.945  0.00  0.00    +0.012 C 
ATOM     29  C   LIG A   1      -5.387  -3.601 130.866  0.00  0.00    +0.012 C 
ENDROOT
BRANCH   1  30
ATOM     30  O   LIG A   1      -4.835  -3.809 135.617  0.00  0.00    -0.391 OA
ATOM     31  H   LIG A   1      -4.558  -4.673 135.266  0.00  0.00    +0.210 HD
ENDBRANCH   1  30
BRANCH  19  32
ATOM     32  C   LIG A   1      -8.356  -0.011 125.373  0.00  0.00    +0.311 C 
ATOM     33  O   LIG A   1      -9.202  -0.005 126.252  0.00  0.00    -0.250 OA
BRANCH  32  34
ATOM     34  O   LIG A   1      -8.618   0.649 124.226  0.00  0.00    -0.480 OA
ATOM     35  H   LIG A   1      -8.387   1.578 124.441  0.00  0.00    +0.295 HD
ENDBRANCH  32  34
ENDBRANCH  19  32
TORSDOF 3
ENDMDL
MODEL 3
REMARK VINA RESULT:      -8.6      5.409      7.952
REMARK  Name = NuBBE_1034
REMARK  10 active torsions:
REMARK  status: ('A' for Active; 'I' for Inactive)
REMARK    1  A    between atoms: O_1  and  C_2
REMARK    2  A    between atoms: C_5  and  C_38
REMARK    3  A    between atoms: C_8  and  C_9
REMARK    4  A    between atoms: C_8  and  C_10
REMARK    5  A    between atoms: C_13  and  C_37
REMARK    6  A    between atoms: C_18  and  C_35
REMARK    7  A    between atoms: C_21  and  C_32
REMARK    8  A    between atoms: C_23  and  C_30
REMARK    9  A    between atoms: C_25  and  C_26
REMARK   10  A    between atoms: C_32  and  O_33
REMARK                            x       y       z     vdW  Elec       q    Type
REMARK                         _______ _______ _______ _____ _____    ______ ____
ROOT
ATOM      1  C   LIG A   1      -8.224  -1.876 126.746  0.00  0.00    +0.120 C 
ATOM      2  C   LIG A   1      -7.766  -0.521 126.218  0.00  0.00    +0.032 C 
ATOM      3  C   LIG A   1      -8.171   0.628 127.140  0.00  0.00    +0.010 C 
ATOM      4  C   LIG A   1      -7.693   0.468 128.624  0.00  0.00    -0.025 C 
ATOM      5  C   LIG A   1      -8.164  -0.950 129.110  0.00  0.00    +0.003 C 
ATOM      6  C   LIG A   1      -7.755  -2.169 128.201  0.00  0.00    -0.006 C 
ATOM      7  C   LIG A   1      -8.501  -3.450 128.668  0.00  0.00    +0.014 C 
ATOM      8  C   LIG A   1      -6.253  -2.511 128.250  0.00  0.00    +0.014 C 
ATOM      9  C   LIG A   1      -7.868  -1.131 130.607  0.00  0.00    +0.005 C 
ATOM     10  C   LIG A   1      -8.670  -0.140 131.449  0.00  0.00    +0.008 C 
ATOM     11  C   LIG A   1      -8.520   1.368 131.088  0.00  0.00    -0.019 C 
ATOM     12  C   LIG A   1      -8.435   1.559 129.518  0.00  0.00    +0.006 C 
ATOM     13  C   LIG A   1      -8.145   3.023 129.137  0.00  0.00    +0.031 C 
ATOM     14  C   LIG A   1      -7.322   3.823 130.090  0.00  0.00    -0.026 C 
ATOM     15  C   LIG A   1      -6.959   3.488 131.341  0.00  0.00    -0.063 C 
ATOM     16  C   LIG A   1      -7.340   2.113 131.940  0.00  0.00    -0.005 C 
ATOM     17  C   LIG A   1      -7.788   2.318 133.429  0.00  0.00    +0.012 C 
ATOM     18  C   LIG A   1      -6.830   3.141 134.298  0.00  0.00    +0.019 C 
ATOM     19  C   LIG A   1      -6.528   4.534 133.699  0.00  0.00    +0.074 C 
ATOM     20  C   LIG A   1      -6.063   4.402 132.216  0.00  0.00    +0.035 C 
ATOM     21  C   LIG A   1      -5.570   5.773 131.619  0.00  0.00    -0.003 C 
ATOM     22  C   LIG A   1      -4.442   6.395 132.489  0.00  0.00    -0.011 C 
ATOM     23  C   LIG A   1      -3.108   5.655 132.318  0.00  0.00    +0.008 C 
ATOM     24  C   LIG A   1      -4.841   6.477 133.969  0.00  0.00    +0.004 C 
ATOM     25  C   LIG A   1      -5.367   5.155 134.529  0.00  0.00    +0.019 C 
ATOM     26  C   LIG A   1      -6.660   6.837 131.392  0.00  0.00    +0.008 C 
ATOM     27  C   LIG A   1      -6.044   1.264 132.003  0.00  0.00    +0.016 C 
ATOM     28  C   LIG A   1      -9.902   2.011 131.490  0.00  0.00    +0.012 C 
ATOM     29  C   LIG A   1      -6.162   0.661 128.635  0.00  0.00    +0.012 C 
ENDROOT
BRANCH   1  30
ATOM     30  O   LIG A   1      -7.765  -2.893 125.857  0.00  0.00    -0.391 OA
ATOM     31  H   LIG A   1      -7.990  -2.617 124.952  0.00  0.00    +0.210 HD
ENDBRANCH   1  30
BRANCH  19  32
ATOM     32  C   LIG A   1      -7.818   5.351 133.844  0.00  0.00    +0.311 C 
ATOM     33  O   LIG A   1      -8.710   5.479 133.021  0.00  0.00    -0.250 OA
BRANCH  32  34
ATOM     34  O   LIG A   1      -7.987   5.902 135.064  0.00  0.00    -0.480 OA
ATOM     35  H   LIG A   1      -7.511   6.757 134.994  0.00  0.00    +0.295 HD
ENDBRANCH  32  34
ENDBRANCH  19  32
TORSDOF 3
ENDMDL
MODEL 4
REMARK VINA RESULT:      -8.5      4.510      8.792
REMARK  Name = NuBBE_1034
REMARK  10 active torsions:
REMARK  status: ('A' for Active; 'I' for Inactive)
REMARK    1  A    between atoms: O_1  and  C_2
REMARK    2  A    between atoms: C_5  and  C_38
REMARK    3  A    between atoms: C_8  and  C_9
REMARK    4  A    between atoms: C_8  and  C_10
REMARK    5  A    between atoms: C_13  and  C_37
REMARK    6  A    between atoms: C_18  and  C_35
REMARK    7  A    between atoms: C_21  and  C_32
REMARK    8  A    between atoms: C_23  and  C_30
REMARK    9  A    between atoms: C_25  and  C_26
REMARK   10  A    between atoms: C_32  and  O_33
REMARK                            x       y       z     vdW  Elec       q    Type
REMARK                         _______ _______ _______ _____ _____    ______ ____
ROOT
ATOM      1  C   LIG A   1     -10.090   5.281 130.815  0.00  0.00    +0.120 C 
ATOM      2  C   LIG A   1     -10.793   3.948 130.594  0.00  0.00    +0.032 C 
ATOM      3  C   LIG A   1      -9.852   2.882 130.032  0.00  0.00    +0.010 C 
ATOM      4  C   LIG A   1      -8.559   2.644 130.884  0.00  0.00    -0.025 C 
ATOM      5  C   LIG A   1      -7.889   4.049 131.106  0.00  0.00    +0.003 C 
ATOM      6  C   LIG A   1      -8.815   5.175 131.701  0.00  0.00    -0.006 C 
ATOM      7  C   LIG A   1      -8.092   6.549 131.622  0.00  0.00    +0.014 C 
ATOM      8  C   LIG A   1      -9.177   4.970 133.186  0.00  0.00    +0.014 C 
ATOM      9  C   LIG A   1      -6.531   3.891 131.806  0.00  0.00    +0.005 C 
ATOM     10  C   LIG A   1      -5.546   3.120 130.927  0.00  0.00    +0.008 C 
ATOM     11  C   LIG A   1      -6.010   1.724 130.415  0.00  0.00    -0.019 C 
ATOM     12  C   LIG A   1      -7.547   1.753 130.034  0.00  0.00    +0.006 C 
ATOM     13  C   LIG A   1      -8.067   0.353 129.658  0.00  0.00    +0.031 C 
ATOM     14  C   LIG A   1      -7.427  -0.814 130.333  0.00  0.00    -0.026 C 
ATOM     15  C   LIG A   1      -6.315  -0.815 131.090  0.00  0.00    -0.063 C 
ATOM     16  C   LIG A   1      -5.565   0.502 131.405  0.00  0.00    -0.005 C 
ATOM     17  C   LIG A   1      -4.023   0.242 131.294  0.00  0.00    +0.012 C 
ATOM     18  C   LIG A   1      -3.503  -0.979 132.060  0.00  0.00    +0.019 C 
ATOM     19  C   LIG A   1      -4.231  -2.286 131.668  0.00  0.00    +0.074 C 
ATOM     20  C   LIG A   1      -5.777  -2.100 131.768  0.00  0.00    +0.035 C 
ATOM     21  C   LIG A   1      -6.556  -3.451 131.555  0.00  0.00    -0.003 C 
ATOM     22  C   LIG A   1      -6.074  -4.545 132.549  0.00  0.00    -0.011 C 
ATOM     23  C   LIG A   1      -6.579  -4.290 133.976  0.00  0.00    +0.008 C 
ATOM     24  C   LIG A   1      -4.547  -4.706 132.525  0.00  0.00    +0.004 C 
ATOM     25  C   LIG A   1      -3.796  -3.383 132.681  0.00  0.00    +0.019 C 
ATOM     26  C   LIG A   1      -6.519  -4.031 130.129  0.00  0.00    +0.008 C 
ATOM     27  C   LIG A   1      -5.830   0.836 132.895  0.00  0.00    +0.016 C 
ATOM     28  C   LIG A   1      -5.265   1.542 129.037  0.00  0.00    +0.012 C 
ATOM     29  C   LIG A   1      -8.992   1.940 132.187  0.00  0.00    +0.012 C 
ENDROOT
BRANCH   1  30
ATOM     30  O   LIG A   1     -11.021   6.201 131.385  0.00  0.00    -0.391 OA
ATOM     31  H   LIG A   1     -10.918   6.164 132.351  0.00  0.00    +0.210 HD
ENDBRANCH   1  30
BRANCH  19  32
ATOM     32  C   LIG A   1      -3.768  -2.623 130.245  0.00  0.00    +0.311 C 
ATOM     33  O   LIG A   1      -4.132  -2.100 129.204  0.00  0.00    -0.250 OA
BRANCH  32  34
ATOM     34  O   LIG A   1      -2.785  -3.545 130.190  0.00  0.00    -0.480 OA
ATOM     35  H   LIG A   1      -3.031  -4.093 129.415  0.00  0.00    +0.295 HD
ENDBRANCH  32  34
ENDBRANCH  19  32
TORSDOF 3
ENDMDL
MODEL 5
REMARK VINA RESULT:      -8.4      4.016      7.335
REMARK  Name = NuBBE_1034
REMARK  10 active torsions:
REMARK  status: ('A' for Active; 'I' for Inactive)
REMARK    1  A    between atoms: O_1  and  C_2
REMARK    2  A    between atoms: C_5  and  C_38
REMARK    3  A    between atoms: C_8  and  C_9
REMARK    4  A    between atoms: C_8  and  C_10
REMARK    5  A    between atoms: C_13  and  C_37
REMARK    6  A    between atoms: C_18  and  C_35
REMARK    7  A    between atoms: C_21  and  C_32
REMARK    8  A    between atoms: C_23  and  C_30
REMARK    9  A    between atoms: C_25  and  C_26
REMARK   10  A    between atoms: C_32  and  O_33
REMARK                            x       y       z     vdW  Elec       q    Type
REMARK                         _______ _______ _______ _____ _____    ______ ____
ROOT
ATOM      1  C   LIG A   1      -8.207  -2.743 124.221  0.00  0.00    +0.120 C 
ATOM      2  C   LIG A   1      -9.186  -2.775 125.388  0.00  0.00    +0.032 C 
ATOM      3  C   LIG A   1      -8.597  -2.159 126.656  0.00  0.00    +0.010 C 
ATOM      4  C   LIG A   1      -8.059  -0.698 126.479  0.00  0.00    -0.025 C 
ATOM      5  C   LIG A   1      -7.079  -0.714 125.251  0.00  0.00    +0.003 C 
ATOM      6  C   LIG A   1      -7.648  -1.323 123.914  0.00  0.00    -0.006 C 
ATOM      7  C   LIG A   1      -6.498  -1.501 122.884  0.00  0.00    +0.014 C 
ATOM      8  C   LIG A   1      -8.704  -0.439 123.223  0.00  0.00    +0.014 C 
ATOM      9  C   LIG A   1      -6.387   0.649 125.097  0.00  0.00    +0.005 C 
ATOM     10  C   LIG A   1      -5.500   0.954 126.305  0.00  0.00    +0.008 C 
ATOM     11  C   LIG A   1      -6.179   0.892 127.705  0.00  0.00    -0.019 C 
ATOM     12  C   LIG A   1      -7.211  -0.308 127.771  0.00  0.00    +0.006 C 
ATOM     13  C   LIG A   1      -8.000  -0.309 129.095  0.00  0.00    +0.031 C 
ATOM     14  C   LIG A   1      -8.263   1.015 129.730  0.00  0.00    -0.026 C 
ATOM     15  C   LIG A   1      -7.732   2.205 129.396  0.00  0.00    -0.063 C 
ATOM     16  C   LIG A   1      -6.766   2.337 128.194  0.00  0.00    -0.005 C 
ATOM     17  C   LIG A   1      -5.591   3.296 128.594  0.00  0.00    +0.012 C 
ATOM     18  C   LIG A   1      -6.014   4.633 129.214  0.00  0.00    +0.019 C 
ATOM     19  C   LIG A   1      -6.923   4.457 130.452  0.00  0.00    +0.074 C 
ATOM     20  C   LIG A   1      -8.124   3.518 130.119  0.00  0.00    +0.035 C 
ATOM     21  C   LIG A   1      -9.175   3.453 131.290  0.00  0.00    -0.003 C 
ATOM     22  C   LIG A   1      -9.682   4.872 131.673  0.00  0.00    -0.011 C 
ATOM     23  C   LIG A   1     -10.645   5.442 130.623  0.00  0.00    +0.008 C 
ATOM     24  C   LIG A   1      -8.522   5.840 131.943  0.00  0.00    +0.004 C 
ATOM     25  C   LIG A   1      -7.479   5.861 130.825  0.00  0.00    +0.019 C 
ATOM     26  C   LIG A   1      -8.710   2.733 132.569  0.00  0.00    +0.008 C 
ATOM     27  C   LIG A   1      -7.536   3.064 127.063  0.00  0.00    +0.016 C 
ATOM     28  C   LIG A   1      -5.020   0.470 128.687  0.00  0.00    +0.012 C 
ATOM     29  C   LIG A   1      -9.284   0.222 126.296  0.00  0.00    +0.012 C 
ENDROOT
BRANCH   1  30
ATOM     30  O   LIG A   1      -8.850  -3.287 123.069  0.00  0.00    -0.391 OA
ATOM     31  H   LIG A   1      -9.564  -2.679 122.814  0.00  0.00    +0.210 HD
ENDBRANCH   1  30
BRANCH  19  32
ATOM     32  C   LIG A   1      -6.027   3.897 131.565  0.00  0.00    +0.311 C 
ATOM     33  O   LIG A   1      -5.715   2.732 131.748  0.00  0.00    -0.250 OA
BRANCH  32  34
ATOM     34  O   LIG A   1      -5.474   4.841 132.353  0.00  0.00    -0.480 OA
ATOM     35  H   LIG A   1      -5.955   5.658 132.102  0.00  0.00    +0.295 HD
ENDBRANCH  32  34
ENDBRANCH  19  32
TORSDOF 3
ENDMDL
MODEL 6
REMARK VINA RESULT:      -8.3      4.793      7.855
REMARK  Name = NuBBE_1034
REMARK  10 active torsions:
REMARK  status: ('A' for Active; 'I' for Inactive)
REMARK    1  A    between atoms: O_1  and  C_2
REMARK    2  A    between atoms: C_5  and  C_38
REMARK    3  A    between atoms: C_8  and  C_9
REMARK    4  A    between atoms: C_8  and  C_10
REMARK    5  A    between atoms: C_13  and  C_37
REMARK    6  A    between atoms: C_18  and  C_35
REMARK    7  A    between atoms: C_21  and  C_32
REMARK    8  A    between atoms: C_23  and  C_30
REMARK    9  A    between atoms: C_25  and  C_26
REMARK   10  A    between atoms: C_32  and  O_33
REMARK                            x       y       z     vdW  Elec       q    Type
REMARK                         _______ _______ _______ _____ _____    ______ ____
ROOT
ATOM      1  C   LIG A   1      -9.158  -1.034 125.850  0.00  0.00    +0.120 C 
ATOM      2  C   LIG A   1      -9.219   0.458 125.547  0.00  0.00    +0.032 C 
ATOM      3  C   LIG A   1      -9.003   1.312 126.797  0.00  0.00    +0.010 C 
ATOM      4  C   LIG A   1      -7.680   1.000 127.576  0.00  0.00    -0.025 C 
ATOM      5  C   LIG A   1      -7.654  -0.550 127.837  0.00  0.00    +0.003 C 
ATOM      6  C   LIG A   1      -7.854  -1.472 126.576  0.00  0.00    -0.006 C 
ATOM      7  C   LIG A   1      -8.058  -2.946 127.027  0.00  0.00    +0.014 C 
ATOM      8  C   LIG A   1      -6.650  -1.486 125.613  0.00  0.00    +0.014 C 
ATOM      9  C   LIG A   1      -6.461  -0.924 128.730  0.00  0.00    +0.005 C 
ATOM     10  C   LIG A   1      -6.593  -0.293 130.116  0.00  0.00    +0.008 C 
ATOM     11  C   LIG A   1      -6.791   1.251 130.167  0.00  0.00    -0.019 C 
ATOM     12  C   LIG A   1      -7.739   1.730 128.991  0.00  0.00    +0.006 C 
ATOM     13  C   LIG A   1      -7.839   3.266 128.930  0.00  0.00    +0.031 C 
ATOM     14  C   LIG A   1      -6.643   4.043 129.367  0.00  0.00    -0.026 C 
ATOM     15  C   LIG A   1      -5.547   3.579 129.993  0.00  0.00    -0.063 C 
ATOM     16  C   LIG A   1      -5.381   2.070 130.296  0.00  0.00    -0.005 C 
ATOM     17  C   LIG A   1      -4.786   1.908 131.737  0.00  0.00    +0.012 C 
ATOM     18  C   LIG A   1      -3.541   2.751 132.035  0.00  0.00    +0.019 C 
ATOM     19  C   LIG A   1      -3.768   4.260 131.784  0.00  0.00    +0.074 C 
ATOM     20  C   LIG A   1      -4.351   4.495 130.356  0.00  0.00    +0.035 C 
ATOM     21  C   LIG A   1      -4.429   6.023 129.987  0.00  0.00    -0.003 C 
ATOM     22  C   LIG A   1      -3.041   6.710 130.127  0.00  0.00    -0.011 C 
ATOM     23  C   LIG A   1      -2.087   6.317 128.992  0.00  0.00    +0.008 C 
ATOM     24  C   LIG A   1      -2.407   6.442 131.499  0.00  0.00    +0.004 C 
ATOM     25  C   LIG A   1      -2.381   4.960 131.875  0.00  0.00    +0.019 C 
ATOM     26  C   LIG A   1      -5.469   6.851 130.764  0.00  0.00    +0.008 C 
ATOM     27  C   LIG A   1      -4.301   1.523 129.329  0.00  0.00    +0.016 C 
ATOM     28  C   LIG A   1      -7.630   1.500 131.478  0.00  0.00    +0.012 C 
ATOM     29  C   LIG A   1      -6.508   1.513 126.712  0.00  0.00    +0.012 C 
ENDROOT
BRANCH   1  30
ATOM     30  O   LIG A   1      -9.318  -1.756 124.629  0.00  0.00    -0.391 OA
ATOM     31  H   LIG A   1     -10.214  -1.575 124.295  0.00  0.00    +0.210 HD
ENDBRANCH   1  30
BRANCH  19  32
ATOM     32  C   LIG A   1      -4.710   4.742 132.895  0.00  0.00    +0.311 C 
ATOM     33  O   LIG A   1      -5.927   4.651 132.923  0.00  0.00    -0.250 OA
BRANCH  32  34
ATOM     34  O   LIG A   1      -4.078   5.233 133.980  0.00  0.00    -0.480 OA
ATOM     35  H   LIG A   1      -4.679   4.999 134.718  0.00  0.00    +0.295 HD
ENDBRANCH  32  34
ENDBRANCH  19  32
TORSDOF 3
ENDMDL
MODEL 7
REMARK VINA RESULT:      -8.1      2.175      7.965
REMARK  Name = NuBBE_1034
REMARK  10 active torsions:
REMARK  status: ('A' for Active; 'I' for Inactive)
REMARK    1  A    between atoms: O_1  and  C_2
REMARK    2  A    between atoms: C_5  and  C_38
REMARK    3  A    between atoms: C_8  and  C_9
REMARK    4  A    between atoms: C_8  and  C_10
REMARK    5  A    between atoms: C_13  and  C_37
REMARK    6  A    between atoms: C_18  and  C_35
REMARK    7  A    between atoms: C_21  and  C_32
REMARK    8  A    between atoms: C_23  and  C_30
REMARK    9  A    between atoms: C_25  and  C_26
REMARK   10  A    between atoms: C_32  and  O_33
REMARK                            x       y       z     vdW  Elec       q    Type
REMARK                         _______ _______ _______ _____ _____    ______ ____
ROOT
ATOM      1  C   LIG A   1      -6.377   4.113 123.880  0.00  0.00    +0.120 C 
ATOM      2  C   LIG A   1      -5.086   4.029 124.684  0.00  0.00    +0.032 C 
ATOM      3  C   LIG A   1      -5.317   3.499 126.099  0.00  0.00    +0.010 C 
ATOM      4  C   LIG A   1      -6.051   2.116 126.162  0.00  0.00    -0.025 C 
ATOM      5  C   LIG A   1      -7.357   2.247 125.297  0.00  0.00    +0.003 C 
ATOM      6  C   LIG A   1      -7.167   2.773 123.825  0.00  0.00    -0.006 C 
ATOM      7  C   LIG A   1      -8.552   3.088 123.194  0.00  0.00    +0.014 C 
ATOM      8  C   LIG A   1      -6.491   1.759 122.880  0.00  0.00    +0.014 C 
ATOM      9  C   LIG A   1      -8.216   0.980 125.427  0.00  0.00    +0.005 C 
ATOM     10  C   LIG A   1      -8.711   0.796 126.861  0.00  0.00    +0.008 C 
ATOM     11  C   LIG A   1      -7.627   0.781 127.979  0.00  0.00    -0.019 C 
ATOM     12  C   LIG A   1      -6.492   1.842 127.669  0.00  0.00    +0.006 C 
ATOM     13  C   LIG A   1      -5.335   1.752 128.682  0.00  0.00    +0.031 C 
ATOM     14  C   LIG A   1      -5.044   0.409 129.263  0.00  0.00    -0.026 C 
ATOM     15  C   LIG A   1      -5.788  -0.707 129.163  0.00  0.00    -0.063 C 
ATOM     16  C   LIG A   1      -7.090  -0.724 128.326  0.00  0.00    -0.005 C 
ATOM     17  C   LIG A   1      -8.184  -1.526 129.112  0.00  0.00    +0.012 C 
ATOM     18  C   LIG A   1      -7.749  -2.901 129.630  0.00  0.00    +0.019 C 
ATOM     19  C   LIG A   1      -6.484  -2.834 130.517  0.00  0.00    +0.074 C 
ATOM     20  C   LIG A   1      -5.346  -2.055 129.787  0.00  0.00    +0.035 C 
ATOM     21  C   LIG A   1      -3.983  -2.115 130.571  0.00  0.00    -0.003 C 
ATOM     22  C   LIG A   1      -3.550  -3.584 130.841  0.00  0.00    -0.011 C 
ATOM     23  C   LIG A   1      -3.038  -4.277 129.571  0.00  0.00    +0.008 C 
ATOM     24  C   LIG A   1      -4.673  -4.398 131.499  0.00  0.00    +0.004 C 
ATOM     25  C   LIG A   1      -6.008  -4.295 130.761  0.00  0.00    +0.019 C 
ATOM     26  C   LIG A   1      -3.936  -1.336 131.898  0.00  0.00    +0.008 C 
ATOM     27  C   LIG A   1      -6.803  -1.548 127.045  0.00  0.00    +0.016 C 
ATOM     28  C   LIG A   1      -8.363   1.350 129.252  0.00  0.00    +0.012 C 
ATOM     29  C   LIG A   1      -5.061   1.048 125.649  0.00  0.00    +0.012 C 
ENDROOT
BRANCH   1  30
ATOM     30  O   LIG A   1      -6.068   4.566 122.562  0.00  0.00    -0.391 OA
ATOM     31  H   LIG A   1      -6.321   5.504 122.507  0.00  0.00    +0.210 HD
ENDBRANCH   1  30
BRANCH  19  32
ATOM     32  C   LIG A   1      -6.916  -2.160 131.826  0.00  0.00    +0.311 C 
ATOM     33  O   LIG A   1      -7.024  -0.964 132.042  0.00  0.00    -0.250 OA
BRANCH  32  34
ATOM     34  O   LIG A   1      -7.292  -3.023 132.791  0.00  0.00    -0.480 OA
ATOM     35  H   LIG A   1      -7.899  -3.636 132.325  0.00  0.00    +0.295 HD
ENDBRANCH  32  34
ENDBRANCH  19  32
TORSDOF 3
ENDMDL
MODEL 8
REMARK VINA RESULT:      -8.0      4.503      7.102
REMARK  Name = NuBBE_1034
REMARK  10 active torsions:
REMARK  status: ('A' for Active; 'I' for Inactive)
REMARK    1  A    between atoms: O_1  and  C_2
REMARK    2  A    between atoms: C_5  and  C_38
REMARK    3  A    between atoms: C_8  and  C_9
REMARK    4  A    between atoms: C_8  and  C_10
REMARK    5  A    between atoms: C_13  and  C_37
REMARK    6  A    between atoms: C_18  and  C_35
REMARK    7  A    between atoms: C_21  and  C_32
REMARK    8  A    between atoms: C_23  and  C_30
REMARK    9  A    between atoms: C_25  and  C_26
REMARK   10  A    between atoms: C_32  and  O_33
REMARK                            x       y       z     vdW  Elec       q    Type
REMARK                         _______ _______ _______ _____ _____    ______ ____
ROOT
ATOM      1  C   LIG A   1      -3.977   6.587 130.962  0.00  0.00    +0.120 C 
ATOM      2  C   LIG A   1      -3.755   6.108 129.533  0.00  0.00    +0.032 C 
ATOM      3  C   LIG A   1      -3.609   4.589 129.447  0.00  0.00    +0.010 C 
ATOM      4  C   LIG A   1      -4.797   3.786 130.078  0.00  0.00    -0.025 C 
ATOM      5  C   LIG A   1      -5.002   4.335 131.536  0.00  0.00    +0.003 C 
ATOM      6  C   LIG A   1      -5.175   5.895 131.674  0.00  0.00    -0.006 C 
ATOM      7  C   LIG A   1      -5.110   6.302 133.173  0.00  0.00    +0.014 C 
ATOM      8  C   LIG A   1      -6.524   6.424 131.148  0.00  0.00    +0.014 C 
ATOM      9  C   LIG A   1      -6.052   3.499 132.283  0.00  0.00    +0.005 C 
ATOM     10  C   LIG A   1      -5.576   2.058 132.468  0.00  0.00    +0.008 C 
ATOM     11  C   LIG A   1      -5.148   1.291 131.182  0.00  0.00    -0.019 C 
ATOM     12  C   LIG A   1      -4.372   2.254 130.192  0.00  0.00    +0.006 C 
ATOM     13  C   LIG A   1      -4.060   1.561 128.851  0.00  0.00    +0.031 C 
ATOM     14  C   LIG A   1      -5.028   0.530 128.378  0.00  0.00    -0.026 C 
ATOM     15  C   LIG A   1      -6.047  -0.017 129.066  0.00  0.00    -0.063 C 
ATOM     16  C   LIG A   1      -6.373   0.445 130.507  0.00  0.00    -0.005 C 
ATOM     17  C   LIG A   1      -6.711  -0.815 131.376  0.00  0.00    +0.012 C 
ATOM     18  C   LIG A   1      -7.742  -1.775 130.773  0.00  0.00    +0.019 C 
ATOM     19  C   LIG A   1      -7.346  -2.267 129.361  0.00  0.00    +0.074 C 
ATOM     20  C   LIG A   1      -7.008  -1.057 128.436  0.00  0.00    +0.035 C 
ATOM     21  C   LIG A   1      -6.776  -1.494 126.942  0.00  0.00    -0.003 C 
ATOM     22  C   LIG A   1      -7.998  -2.278 126.386  0.00  0.00    -0.011 C 
ATOM     23  C   LIG A   1      -9.193  -1.357 126.103  0.00  0.00    +0.008 C 
ATOM     24  C   LIG A   1      -8.401  -3.437 127.308  0.00  0.00    +0.004 C 
ATOM     25  C   LIG A   1      -8.575  -3.016 128.768  0.00  0.00    +0.019 C 
ATOM     26  C   LIG A   1      -5.500  -2.313 126.671  0.00  0.00    +0.008 C 
ATOM     27  C   LIG A   1      -7.682   1.273 130.439  0.00  0.00    +0.016 C 
ATOM     28  C   LIG A   1      -4.054   0.269 131.677  0.00  0.00    +0.012 C 
ATOM     29  C   LIG A   1      -6.020   3.977 129.155  0.00  0.00    +0.012 C 
ENDROOT
BRANCH   1  30
ATOM     30  O   LIG A   1      -4.152   8.003 130.949  0.00  0.00    -0.391 OA
ATOM     31  H   LIG A   1      -3.903   8.322 130.064  0.00  0.00    +0.210 HD
ENDBRANCH   1  30
BRANCH  19  32
ATOM     32  C   LIG A   1      -6.155  -3.214 129.556  0.00  0.00    +0.311 C 
ATOM     33  O   LIG A   1      -4.970  -2.946 129.442  0.00  0.00    -0.250 OA
BRANCH  32  34
ATOM     34  O   LIG A   1      -6.496  -4.446 129.985  0.00  0.00    -0.480 OA
ATOM     35  H   LIG A   1      -5.813  -4.648 130.660  0.00  0.00    +0.295 HD
ENDBRANCH  32  34
ENDBRANCH  19  32
TORSDOF 3
ENDMDL
MODEL 9
REMARK VINA RESULT:      -8.0      2.213      9.231
REMARK  Name = NuBBE_1034
REMARK  10 active torsions:
REMARK  status: ('A' for Active; 'I' for Inactive)
REMARK    1  A    between atoms: O_1  and  C_2
REMARK    2  A    between atoms: C_5  and  C_38
REMARK    3  A    between atoms: C_8  and  C_9
REMARK    4  A    between atoms: C_8  and  C_10
REMARK    5  A    between atoms: C_13  and  C_37
REMARK    6  A    between atoms: C_18  and  C_35
REMARK    7  A    between atoms: C_21  and  C_32
REMARK    8  A    between atoms: C_23  and  C_30
REMARK    9  A    between atoms: C_25  and  C_26
REMARK   10  A    between atoms: C_32  and  O_33
REMARK                            x       y       z     vdW  Elec       q    Type
REMARK                         _______ _______ _______ _____ _____    ______ ____
ROOT
ATOM      1  C   LIG A   1      -8.388  -1.850 125.897  0.00  0.00    +0.120 C 
ATOM      2  C   LIG A   1      -9.003  -2.884 126.832  0.00  0.00    +0.032 C 
ATOM      3  C   LIG A   1      -7.963  -3.529 127.748  0.00  0.00    +0.010 C 
ATOM      4  C   LIG A   1      -7.122  -2.511 128.592  0.00  0.00    -0.025 C 
ATOM      5  C   LIG A   1      -6.535  -1.454 127.588  0.00  0.00    +0.003 C 
ATOM      6  C   LIG A   1      -7.571  -0.749 126.634  0.00  0.00    -0.006 C 
ATOM      7  C   LIG A   1      -6.818   0.064 125.545  0.00  0.00    +0.014 C 
ATOM      8  C   LIG A   1      -8.498   0.255 127.349  0.00  0.00    +0.014 C 
ATOM      9  C   LIG A   1      -5.571  -0.502 128.313  0.00  0.00    +0.005 C 
ATOM     10  C   LIG A   1      -4.353  -1.256 128.848  0.00  0.00    +0.008 C 
ATOM     11  C   LIG A   1      -4.636  -2.479 129.770  0.00  0.00    -0.019 C 
ATOM     12  C   LIG A   1      -5.896  -3.288 129.251  0.00  0.00    +0.006 C 
ATOM     13  C   LIG A   1      -6.285  -4.419 130.221  0.00  0.00    +0.031 C 
ATOM     14  C   LIG A   1      -6.014  -4.195 131.671  0.00  0.00    -0.026 C 
ATOM     15  C   LIG A   1      -5.292  -3.206 132.227  0.00  0.00    -0.063 C 
ATOM     16  C   LIG A   1      -4.672  -2.086 131.356  0.00  0.00    -0.005 C 
ATOM     17  C   LIG A   1      -3.223  -1.787 131.877  0.00  0.00    +0.012 C 
ATOM     18  C   LIG A   1      -3.100  -1.554 133.386  0.00  0.00    +0.019 C 
ATOM     19  C   LIG A   1      -3.670  -2.724 134.221  0.00  0.00    +0.074 C 
ATOM     20  C   LIG A   1      -5.121  -3.067 133.761  0.00  0.00    +0.035 C 
ATOM     21  C   LIG A   1      -5.810  -4.128 134.698  0.00  0.00    -0.003 C 
ATOM     22  C   LIG A   1      -5.806  -3.660 136.180  0.00  0.00    -0.011 C 
ATOM     23  C   LIG A   1      -6.821  -2.537 136.433  0.00  0.00    +0.008 C 
ATOM     24  C   LIG A   1      -4.402  -3.250 136.646  0.00  0.00    +0.004 C 
ATOM     25  C   LIG A   1      -3.718  -2.258 135.705  0.00  0.00    +0.019 C 
ATOM     26  C   LIG A   1      -5.238  -5.556 134.630  0.00  0.00    +0.008 C 
ATOM     27  C   LIG A   1      -5.488  -0.795 131.617  0.00  0.00    +0.016 C 
ATOM     28  C   LIG A   1      -3.417  -3.449 129.526  0.00  0.00    +0.012 C 
ATOM     29  C   LIG A   1      -8.064  -1.912 129.658  0.00  0.00    +0.012 C 
ENDROOT
BRANCH   1  30
ATOM     30  O   LIG A   1      -9.428  -1.263 125.115  0.00  0.00    -0.391 OA
ATOM     31  H   LIG A   1     -10.223  -1.813 125.222  0.00  0.00    +0.210 HD
ENDBRANCH   1  30
BRANCH  19  32
ATOM     32  C   LIG A   1      -2.698  -3.896 134.034  0.00  0.00    +0.311 C 
ATOM     33  O   LIG A   1      -2.638  -4.664 133.088  0.00  0.00    -0.250 OA
BRANCH  32  34
ATOM     34  O   LIG A   1      -1.767  -3.999 135.004  0.00  0.00    -0.480 OA
ATOM     35  H   LIG A   1      -2.154  -3.487 135.746  0.00  0.00    +0.295 HD
ENDBRANCH  32  34
ENDBRANCH  19  32
TORSDOF 3
ENDMDL
