MODEL 1
REMARK VINA RESULT:      -8.6      0.000      0.000
REMARK  Name = NuBBE_491
REMARK  11 active torsions:
REMARK  status: ('A' for Active; 'I' for Inactive)
REMARK    1  A    between atoms: O_1  and  C_2
REMARK    2  A    between atoms: C_6  and  C_35
REMARK    3  A    between atoms: C_17  and  C_34
REMARK    4  A    between atoms: C_21  and  C_23
REMARK    5  A    between atoms: C_23  and  C_25
REMARK    6  A    between atoms: C_23  and  C_33
REMARK    7  A    between atoms: C_26  and  C_27
REMARK    8  A    between atoms: C_27  and  C_29
REMARK    9  A    between atoms: C_27  and  C_32
REMARK   10  A    between atoms: C_29  and  C_30
REMARK   11  A    between atoms: C_29  and  C_31
REMARK                            x       y       z     vdW  Elec       q    Type
REMARK                         _______ _______ _______ _____ _____    ______ ____
ROOT
ATOM      1  C   LIG A   1      -3.023   7.109 132.386  0.00  0.00    +0.118 C 
ATOM      2  C   LIG A   1      -1.871   6.150 132.075  0.00  0.00    +0.032 C 
ATOM      3  C   LIG A   1      -2.272   5.009 131.131  0.00  0.00    +0.012 C 
ATOM      4  C   LIG A   1      -2.935   5.505 129.820  0.00  0.00    +0.010 C 
ATOM      5  C   LIG A   1      -4.144   6.458 130.174  0.00  0.00    +0.131 C 
ATOM      6  O   LIG A   1      -4.605   7.046 128.935  0.00  0.00    -0.223 OA
ATOM      7  O   LIG A   1      -4.843   5.974 127.921  0.00  0.00    -0.223 OA
ATOM      8  C   LIG A   1      -3.762   7.591 131.137  0.00  0.00    +0.074 C 
ATOM      9  C   LIG A   1      -5.359   5.696 130.665  0.00  0.00    +0.010 C 
ATOM     10  C   LIG A   1      -5.815   4.802 129.794  0.00  0.00    +0.010 C 
ATOM     11  C   LIG A   1      -4.965   4.667 128.539  0.00  0.00    +0.129 C 
ATOM     12  C   LIG A   1      -3.537   4.267 129.013  0.00  0.00    +0.037 C 
ATOM     13  C   LIG A   1      -2.668   3.666 127.889  0.00  0.00    +0.008 C 
ATOM     14  C   LIG A   1      -3.249   3.868 126.488  0.00  0.00    +0.008 C 
ATOM     15  C   LIG A   1      -4.684   3.289 126.312  0.00  0.00    -0.023 C 
ATOM     16  C   LIG A   1      -5.584   3.660 127.542  0.00  0.00    +0.034 C 
ATOM     17  C   LIG A   1      -6.886   4.166 126.918  0.00  0.00    +0.007 C 
ATOM     18  C   LIG A   1      -6.467   4.857 125.632  0.00  0.00    +0.005 C 
ATOM     19  C   LIG A   1      -5.369   3.961 125.036  0.00  0.00    +0.002 C 
ATOM     20  C   LIG A   1      -4.565   1.750 126.260  0.00  0.00    +0.012 C 
ATOM     21  C   LIG A   1      -1.877   6.285 128.992  0.00  0.00    +0.015 C 
ENDROOT
BRANCH   1  22
ATOM     22  O   LIG A   1      -3.933   6.511 133.308  0.00  0.00    -0.392 OA
ATOM     23  H   LIG A   1      -4.519   5.899 132.831  0.00  0.00    +0.210 HD
ENDBRANCH   1  22
BRANCH  19  24
ATOM     24  C   LIG A   1      -5.882   3.086 123.841  0.00  0.00    +0.012 C 
ATOM     25  C   LIG A   1      -5.878   3.867 122.504  0.00  0.00    +0.012 C 
BRANCH  24  26
ATOM     26  C   LIG A   1      -7.273   2.526 123.995  0.00  0.00    -0.027 C 
ATOM     27  C   LIG A   1      -7.541   1.273 124.397  0.00  0.00    -0.027 C 
BRANCH  27  28
ATOM     28  C   LIG A   1      -8.929   0.667 124.481  0.00  0.00    +0.011 C 
ATOM     29  C   LIG A   1     -10.005   1.689 124.075  0.00  0.00    +0.012 C 
BRANCH  28  30
ATOM     30  C   LIG A   1      -9.189   0.043 125.881  0.00  0.00    -0.011 C 
ATOM     31  C   LIG A   1      -8.933  -1.468 125.897  0.00  0.00    +0.008 C 
ATOM     32  C   LIG A   1      -8.332   0.698 126.974  0.00  0.00    +0.008 C 
ENDBRANCH  28  30
ENDBRANCH  27  28
ENDBRANCH  24  26
ENDBRANCH  19  24
TORSDOF 5
ENDMDL
MODEL 2
REMARK VINA RESULT:      -8.5      4.981      7.041
REMARK  Name = NuBBE_491
REMARK  11 active torsions:
REMARK  status: ('A' for Active; 'I' for Inactive)
REMARK    1  A    between atoms: O_1  and  C_2
REMARK    2  A    between atoms: C_6  and  C_35
REMARK    3  A    between atoms: C_17  and  C_34
REMARK    4  A    between atoms: C_21  and  C_23
REMARK    5  A    between atoms: C_23  and  C_25
REMARK    6  A    between atoms: C_23  and  C_33
REMARK    7  A    between atoms: C_26  and  C_27
REMARK    8  A    between atoms: C_27  and  C_29
REMARK    9  A    between atoms: C_27  and  C_32
REMARK   10  A    between atoms: C_29  and  C_30
REMARK   11  A    between atoms: C_29  and  C_31
REMARK                            x       y       z     vdW  Elec       q    Type
REMARK                         _______ _______ _______ _____ _____    ______ ____
ROOT
ATOM      1  C   LIG A   1      -5.423  -2.561 133.191  0.00  0.00    +0.118 C 
ATOM      2  C   LIG A   1      -6.718  -3.343 132.959  0.00  0.00    +0.032 C 
ATOM      3  C   LIG A   1      -7.513  -2.850 131.744  0.00  0.00    +0.012 C 
ATOM      4  C   LIG A   1      -6.670  -2.798 130.443  0.00  0.00    +0.010 C 
ATOM      5  C   LIG A   1      -5.362  -1.951 130.702  0.00  0.00    +0.131 C 
ATOM      6  O   LIG A   1      -4.521  -2.092 129.533  0.00  0.00    -0.223 OA
ATOM      7  O   LIG A   1      -5.308  -1.788 128.300  0.00  0.00    -0.223 OA
ATOM      8  C   LIG A   1      -4.569  -2.419 131.930  0.00  0.00    +0.074 C 
ATOM      9  C   LIG A   1      -5.636  -0.461 130.751  0.00  0.00    +0.010 C 
ATOM     10  C   LIG A   1      -6.189   0.015 129.640  0.00  0.00    +0.010 C 
ATOM     11  C   LIG A   1      -6.519  -1.049 128.605  0.00  0.00    +0.129 C 
ATOM     12  C   LIG A   1      -7.489  -2.053 129.294  0.00  0.00    +0.037 C 
ATOM     13  C   LIG A   1      -8.266  -2.934 128.294  0.00  0.00    +0.008 C 
ATOM     14  C   LIG A   1      -7.715  -2.878 126.868  0.00  0.00    +0.008 C 
ATOM     15  C   LIG A   1      -7.669  -1.443 126.267  0.00  0.00    -0.023 C 
ATOM     16  C   LIG A   1      -7.101  -0.422 127.315  0.00  0.00    +0.034 C 
ATOM     17  C   LIG A   1      -6.068   0.390 126.532  0.00  0.00    +0.007 C 
ATOM     18  C   LIG A   1      -5.471  -0.586 125.533  0.00  0.00    +0.005 C 
ATOM     19  C   LIG A   1      -6.660  -1.422 125.030  0.00  0.00    +0.002 C 
ATOM     20  C   LIG A   1      -9.119  -1.025 125.939  0.00  0.00    +0.012 C 
ATOM     21  C   LIG A   1      -6.286  -4.249 130.042  0.00  0.00    +0.015 C 
ENDROOT
BRANCH   1  22
ATOM     22  O   LIG A   1      -5.707  -1.280 133.751  0.00  0.00    -0.392 OA
ATOM     23  H   LIG A   1      -5.344  -1.235 134.651  0.00  0.00    +0.210 HD
ENDBRANCH   1  22
BRANCH  19  24
ATOM     24  C   LIG A   1      -7.142  -0.992 123.602  0.00  0.00    +0.012 C 
ATOM     25  C   LIG A   1      -6.431  -1.792 122.482  0.00  0.00    +0.012 C 
BRANCH  24  26
ATOM     26  C   LIG A   1      -6.953   0.464 123.262  0.00  0.00    -0.027 C 
ATOM     27  C   LIG A   1      -7.900   1.403 123.415  0.00  0.00    -0.027 C 
BRANCH  27  28
ATOM     28  C   LIG A   1      -7.756   2.856 123.005  0.00  0.00    +0.011 C 
ATOM     29  C   LIG A   1      -8.630   3.175 121.780  0.00  0.00    +0.012 C 
BRANCH  28  30
ATOM     30  C   LIG A   1      -6.264   3.240 122.797  0.00  0.00    -0.011 C 
ATOM     31  C   LIG A   1      -6.009   3.831 121.407  0.00  0.00    +0.008 C 
ATOM     32  C   LIG A   1      -5.771   4.239 123.854  0.00  0.00    +0.008 C 
ENDBRANCH  28  30
ENDBRANCH  27  28
ENDBRANCH  24  26
ENDBRANCH  19  24
TORSDOF 5
ENDMDL
MODEL 3
REMARK VINA RESULT:      -8.3      2.003      3.005
REMARK  Name = NuBBE_491
REMARK  11 active torsions:
REMARK  status: ('A' for Active; 'I' for Inactive)
REMARK    1  A    between atoms: O_1  and  C_2
REMARK    2  A    between atoms: C_6  and  C_35
REMARK    3  A    between atoms: C_17  and  C_34
REMARK    4  A    between atoms: C_21  and  C_23
REMARK    5  A    between atoms: C_23  and  C_25
REMARK    6  A    between atoms: C_23  and  C_33
REMARK    7  A    between atoms: C_26  and  C_27
REMARK    8  A    between atoms: C_27  and  C_29
REMARK    9  A    between atoms: C_27  and  C_32
REMARK   10  A    between atoms: C_29  and  C_30
REMARK   11  A    between atoms: C_29  and  C_31
REMARK                            x       y       z     vdW  Elec       q    Type
REMARK                         _______ _______ _______ _____ _____    ______ ____
ROOT
ATOM      1  C   LIG A   1      -2.667   7.179 134.345  0.00  0.00    +0.118 C 
ATOM      2  C   LIG A   1      -1.711   7.883 133.378  0.00  0.00    +0.032 C 
ATOM      3  C   LIG A   1      -1.451   7.084 132.095  0.00  0.00    +0.012 C 
ATOM      4  C   LIG A   1      -2.752   6.665 131.363  0.00  0.00    +0.010 C 
ATOM      5  C   LIG A   1      -3.698   5.905 132.374  0.00  0.00    +0.131 C 
ATOM      6  O   LIG A   1      -4.968   5.707 131.708  0.00  0.00    -0.223 OA
ATOM      7  O   LIG A   1      -4.747   5.085 130.367  0.00  0.00    -0.223 OA
ATOM      8  C   LIG A   1      -3.948   6.683 133.673  0.00  0.00    +0.074 C 
ATOM      9  C   LIG A   1      -3.233   4.490 132.654  0.00  0.00    +0.010 C 
ATOM     10  C   LIG A   1      -3.146   3.733 131.565  0.00  0.00    +0.010 C 
ATOM     11  C   LIG A   1      -3.435   4.475 130.268  0.00  0.00    +0.129 C 
ATOM     12  C   LIG A   1      -2.408   5.642 130.187  0.00  0.00    +0.037 C 
ATOM     13  C   LIG A   1      -2.257   6.223 128.766  0.00  0.00    +0.008 C 
ATOM     14  C   LIG A   1      -3.349   5.768 127.796  0.00  0.00    +0.008 C 
ATOM     15  C   LIG A   1      -3.454   4.223 127.646  0.00  0.00    -0.023 C 
ATOM     16  C   LIG A   1      -3.379   3.524 129.048  0.00  0.00    +0.034 C 
ATOM     17  C   LIG A   1      -4.528   2.514 129.030  0.00  0.00    +0.007 C 
ATOM     18  C   LIG A   1      -5.617   3.169 128.200  0.00  0.00    +0.005 C 
ATOM     19  C   LIG A   1      -4.880   3.849 127.035  0.00  0.00    +0.002 C 
ATOM     20  C   LIG A   1      -2.239   3.749 126.817  0.00  0.00    +0.012 C 
ATOM     21  C   LIG A   1      -3.461   7.943 130.839  0.00  0.00    +0.015 C 
ENDROOT
BRANCH   1  22
ATOM     22  O   LIG A   1      -2.001   6.106 135.010  0.00  0.00    -0.392 OA
ATOM     23  H   LIG A   1      -2.601   5.344 135.070  0.00  0.00    +0.210 HD
ENDBRANCH   1  22
BRANCH  19  24
ATOM     24  C   LIG A   1      -4.999   3.047 125.693  0.00  0.00    +0.012 C 
ATOM     25  C   LIG A   1      -5.692   3.874 124.581  0.00  0.00    +0.012 C 
BRANCH  24  26
ATOM     26  C   LIG A   1      -5.750   1.744 125.777  0.00  0.00    -0.027 C 
ATOM     27  C   LIG A   1      -5.164   0.539 125.865  0.00  0.00    -0.027 C 
BRANCH  27  28
ATOM     28  C   LIG A   1      -5.899  -0.787 125.871  0.00  0.00    +0.011 C 
ATOM     29  C   LIG A   1      -5.498  -1.637 127.089  0.00  0.00    +0.012 C 
BRANCH  28  30
ATOM     30  C   LIG A   1      -5.717  -1.541 124.524  0.00  0.00    -0.011 C 
ATOM     31  C   LIG A   1      -5.806  -3.061 124.696  0.00  0.00    +0.008 C 
ATOM     32  C   LIG A   1      -6.748  -1.104 123.473  0.00  0.00    +0.008 C 
ENDBRANCH  28  30
ENDBRANCH  27  28
ENDBRANCH  24  26
ENDBRANCH  19  24
TORSDOF 5
ENDMDL
MODEL 4
REMARK VINA RESULT:      -8.2      1.639      2.666
REMARK  Name = NuBBE_491
REMARK  11 active torsions:
REMARK  status: ('A' for Active; 'I' for Inactive)
REMARK    1  A    between atoms: O_1  and  C_2
REMARK    2  A    between atoms: C_6  and  C_35
REMARK    3  A    between atoms: C_17  and  C_34
REMARK    4  A    between atoms: C_21  and  C_23
REMARK    5  A    between atoms: C_23  and  C_25
REMARK    6  A    between atoms: C_23  and  C_33
REMARK    7  A    between atoms: C_26  and  C_27
REMARK    8  A    between atoms: C_27  and  C_29
REMARK    9  A    between atoms: C_27  and  C_32
REMARK   10  A    between atoms: C_29  and  C_30
REMARK   11  A    between atoms: C_29  and  C_31
REMARK                            x       y       z     vdW  Elec       q    Type
REMARK                         _______ _______ _______ _____ _____    ______ ____
ROOT
ATOM      1  C   LIG A   1      -2.725   6.901 134.327  0.00  0.00    +0.118 C 
ATOM      2  C   LIG A   1      -1.713   7.580 133.400  0.00  0.00    +0.032 C 
ATOM      3  C   LIG A   1      -1.487   6.818 132.088  0.00  0.00    +0.012 C 
ATOM      4  C   LIG A   1      -2.803   6.514 131.326  0.00  0.00    +0.010 C 
ATOM      5  C   LIG A   1      -3.810   5.777 132.294  0.00  0.00    +0.131 C 
ATOM      6  O   LIG A   1      -5.081   5.689 131.607  0.00  0.00    -0.223 OA
ATOM      7  O   LIG A   1      -4.882   5.109 130.244  0.00  0.00    -0.223 OA
ATOM      8  C   LIG A   1      -4.026   6.517 133.622  0.00  0.00    +0.074 C 
ATOM      9  C   LIG A   1      -3.441   4.324 132.520  0.00  0.00    +0.010 C 
ATOM     10  C   LIG A   1      -3.388   3.609 131.402  0.00  0.00    +0.010 C 
ATOM     11  C   LIG A   1      -3.611   4.419 130.134  0.00  0.00    +0.129 C 
ATOM     12  C   LIG A   1      -2.510   5.519 130.112  0.00  0.00    +0.037 C 
ATOM     13  C   LIG A   1      -2.303   6.147 128.718  0.00  0.00    +0.008 C 
ATOM     14  C   LIG A   1      -3.409   5.803 127.718  0.00  0.00    +0.008 C 
ATOM     15  C   LIG A   1      -3.611   4.275 127.503  0.00  0.00    -0.023 C 
ATOM     16  C   LIG A   1      -3.600   3.517 128.877  0.00  0.00    +0.034 C 
ATOM     17  C   LIG A   1      -4.811   2.585 128.805  0.00  0.00    +0.007 C 
ATOM     18  C   LIG A   1      -5.845   3.342 127.991  0.00  0.00    +0.005 C 
ATOM     19  C   LIG A   1      -5.050   4.019 126.862  0.00  0.00    +0.002 C 
ATOM     20  C   LIG A   1      -2.419   3.757 126.669  0.00  0.00    +0.012 C 
ATOM     21  C   LIG A   1      -3.422   7.856 130.847  0.00  0.00    +0.015 C 
ENDROOT
BRANCH   1  22
ATOM     22  O   LIG A   1      -2.139   5.761 134.954  0.00  0.00    -0.392 OA
ATOM     23  H   LIG A   1      -1.947   5.969 135.884  0.00  0.00    +0.210 HD
ENDBRANCH   1  22
BRANCH  19  24
ATOM     24  C   LIG A   1      -5.202   3.282 125.487  0.00  0.00    +0.012 C 
ATOM     25  C   LIG A   1      -5.324   4.276 124.305  0.00  0.00    +0.012 C 
BRANCH  24  26
ATOM     26  C   LIG A   1      -6.381   2.350 125.375  0.00  0.00    -0.027 C 
ATOM     27  C   LIG A   1      -6.797   1.795 124.226  0.00  0.00    -0.027 C 
BRANCH  27  28
ATOM     28  C   LIG A   1      -8.026   0.919 124.079  0.00  0.00    +0.011 C 
ATOM     29  C   LIG A   1      -7.690  -0.387 123.338  0.00  0.00    +0.012 C 
BRANCH  28  30
ATOM     30  C   LIG A   1      -9.201   1.698 123.424  0.00  0.00    -0.011 C 
ATOM     31  C   LIG A   1      -8.709   2.785 122.464  0.00  0.00    +0.008 C 
ATOM     32  C   LIG A   1     -10.159   0.768 122.665  0.00  0.00    +0.008 C 
ENDBRANCH  28  30
ENDBRANCH  27  28
ENDBRANCH  24  26
ENDBRANCH  19  24
TORSDOF 5
ENDMDL
MODEL 5
REMARK VINA RESULT:      -8.1      6.444      8.129
REMARK  Name = NuBBE_491
REMARK  11 active torsions:
REMARK  status: ('A' for Active; 'I' for Inactive)
REMARK    1  A    between atoms: O_1  and  C_2
REMARK    2  A    between atoms: C_6  and  C_35
REMARK    3  A    between atoms: C_17  and  C_34
REMARK    4  A    between atoms: C_21  and  C_23
REMARK    5  A    between atoms: C_23  and  C_25
REMARK    6  A    between atoms: C_23  and  C_33
REMARK    7  A    between atoms: C_26  and  C_27
REMARK    8  A    between atoms: C_27  and  C_29
REMARK    9  A    between atoms: C_27  and  C_32
REMARK   10  A    between atoms: C_29  and  C_30
REMARK   11  A    between atoms: C_29  and  C_31
REMARK                            x       y       z     vdW  Elec       q    Type
REMARK                         _______ _______ _______ _____ _____    ______ ____
ROOT
ATOM      1  C   LIG A   1      -1.962  -2.545 135.882  0.00  0.00    +0.118 C 
ATOM      2  C   LIG A   1      -3.343  -2.473 136.539  0.00  0.00    +0.032 C 
ATOM      3  C   LIG A   1      -4.432  -1.934 135.602  0.00  0.00    +0.012 C 
ATOM      4  C   LIG A   1      -4.510  -2.698 134.255  0.00  0.00    +0.010 C 
ATOM      5  C   LIG A   1      -3.081  -2.719 133.582  0.00  0.00    +0.131 C 
ATOM      6  O   LIG A   1      -3.158  -3.599 132.436  0.00  0.00    -0.223 OA
ATOM      7  O   LIG A   1      -4.320  -3.217 131.579  0.00  0.00    -0.223 OA
ATOM      8  C   LIG A   1      -1.978  -3.233 134.517  0.00  0.00    +0.074 C 
ATOM      9  C   LIG A   1      -2.710  -1.384 132.965  0.00  0.00    +0.010 C 
ATOM     10  C   LIG A   1      -3.566  -0.971 132.037  0.00  0.00    +0.010 C 
ATOM     11  C   LIG A   1      -4.780  -1.872 131.866  0.00  0.00    +0.129 C 
ATOM     12  C   LIG A   1      -5.487  -1.932 133.252  0.00  0.00    +0.037 C 
ATOM     13  C   LIG A   1      -6.946  -2.425 133.171  0.00  0.00    +0.008 C 
ATOM     14  C   LIG A   1      -7.311  -3.049 131.822  0.00  0.00    +0.008 C 
ATOM     15  C   LIG A   1      -7.084  -2.102 130.608  0.00  0.00    -0.023 C 
ATOM     16  C   LIG A   1      -5.702  -1.368 130.729  0.00  0.00    +0.034 C 
ATOM     17  C   LIG A   1      -5.072  -1.518 129.344  0.00  0.00    +0.007 C 
ATOM     18  C   LIG A   1      -5.543  -2.870 128.838  0.00  0.00    +0.005 C 
ATOM     19  C   LIG A   1      -7.015  -2.969 129.270  0.00  0.00    +0.002 C 
ATOM     20  C   LIG A   1      -8.193  -1.027 130.639  0.00  0.00    +0.012 C 
ATOM     21  C   LIG A   1      -4.980  -4.152 134.534  0.00  0.00    +0.015 C 
ENDROOT
BRANCH   1  22
ATOM     22  O   LIG A   1      -1.391  -1.241 135.780  0.00  0.00    -0.392 OA
ATOM     23  H   LIG A   1      -2.005  -0.658 135.302  0.00  0.00    +0.210 HD
ENDBRANCH   1  22
BRANCH  19  24
ATOM     24  C   LIG A   1      -8.013  -2.711 128.089  0.00  0.00    +0.012 C 
ATOM     25  C   LIG A   1      -9.007  -3.883 127.900  0.00  0.00    +0.012 C 
BRANCH  24  26
ATOM     26  C   LIG A   1      -7.379  -2.477 126.741  0.00  0.00    -0.027 C 
ATOM     27  C   LIG A   1      -7.655  -3.198 125.643  0.00  0.00    -0.027 C 
BRANCH  27  28
ATOM     28  C   LIG A   1      -6.972  -3.030 124.299  0.00  0.00    +0.011 C 
ATOM     29  C   LIG A   1      -5.713  -2.154 124.425  0.00  0.00    +0.012 C 
BRANCH  28  30
ATOM     30  C   LIG A   1      -7.963  -2.509 123.221  0.00  0.00    -0.011 C 
ATOM     31  C   LIG A   1      -9.364  -3.107 123.388  0.00  0.00    +0.008 C 
ATOM     32  C   LIG A   1      -8.078  -0.977 123.234  0.00  0.00    +0.008 C 
ENDBRANCH  28  30
ENDBRANCH  27  28
ENDBRANCH  24  26
ENDBRANCH  19  24
TORSDOF 5
ENDMDL
MODEL 6
REMARK VINA RESULT:      -8.1      6.263     10.132
REMARK  Name = NuBBE_491
REMARK  11 active torsions:
REMARK  status: ('A' for Active; 'I' for Inactive)
REMARK    1  A    between atoms: O_1  and  C_2
REMARK    2  A    between atoms: C_6  and  C_35
REMARK    3  A    between atoms: C_17  and  C_34
REMARK    4  A    between atoms: C_21  and  C_23
REMARK    5  A    between atoms: C_23  and  C_25
REMARK    6  A    between atoms: C_23  and  C_33
REMARK    7  A    between atoms: C_26  and  C_27
REMARK    8  A    between atoms: C_27  and  C_29
REMARK    9  A    between atoms: C_27  and  C_32
REMARK   10  A    between atoms: C_29  and  C_30
REMARK   11  A    between atoms: C_29  and  C_31
REMARK                            x       y       z     vdW  Elec       q    Type
REMARK                         _______ _______ _______ _____ _____    ______ ____
ROOT
ATOM      1  C   LIG A   1      -8.929  -1.993 123.014  0.00  0.00    +0.118 C 
ATOM      2  C   LIG A   1      -9.180  -0.549 123.457  0.00  0.00    +0.032 C 
ATOM      3  C   LIG A   1      -9.180  -0.374 124.981  0.00  0.00    +0.012 C 
ATOM      4  C   LIG A   1      -7.904  -0.936 125.659  0.00  0.00    +0.010 C 
ATOM      5  C   LIG A   1      -7.695  -2.438 125.217  0.00  0.00    +0.131 C 
ATOM      6  O   LIG A   1      -6.401  -2.857 125.713  0.00  0.00    -0.223 OA
ATOM      7  O   LIG A   1      -6.290  -2.543 127.169  0.00  0.00    -0.223 OA
ATOM      8  C   LIG A   1      -7.717  -2.631 123.694  0.00  0.00    +0.074 C 
ATOM      9  C   LIG A   1      -8.652  -3.387 125.912  0.00  0.00    +0.010 C 
ATOM     10  C   LIG A   1      -8.560  -3.359 127.237  0.00  0.00    +0.010 C 
ATOM     11  C   LIG A   1      -7.590  -2.316 127.771  0.00  0.00    +0.129 C 
ATOM     12  C   LIG A   1      -8.087  -0.938 127.245  0.00  0.00    +0.037 C 
ATOM     13  C   LIG A   1      -7.505   0.259 128.025  0.00  0.00    +0.008 C 
ATOM     14  C   LIG A   1      -6.334  -0.113 128.937  0.00  0.00    +0.008 C 
ATOM     15  C   LIG A   1      -6.674  -1.214 129.982  0.00  0.00    -0.023 C 
ATOM     16  C   LIG A   1      -7.483  -2.380 129.314  0.00  0.00    +0.034 C 
ATOM     17  C   LIG A   1      -6.793  -3.653 129.809  0.00  0.00    +0.007 C 
ATOM     18  C   LIG A   1      -5.326  -3.283 129.935  0.00  0.00    +0.005 C 
ATOM     19  C   LIG A   1      -5.319  -1.863 130.523  0.00  0.00    +0.002 C 
ATOM     20  C   LIG A   1      -7.573  -0.573 131.062  0.00  0.00    +0.012 C 
ATOM     21  C   LIG A   1      -6.685  -0.083 125.212  0.00  0.00    +0.015 C 
ENDROOT
BRANCH   1  22
ATOM     22  O   LIG A   1     -10.096  -2.787 123.222  0.00  0.00    -0.392 OA
ATOM     23  H   LIG A   1      -9.833  -3.707 123.393  0.00  0.00    +0.210 HD
ENDBRANCH   1  22
BRANCH  19  24
ATOM     24  C   LIG A   1      -4.967  -1.840 132.051  0.00  0.00    +0.012 C 
ATOM     25  C   LIG A   1      -3.623  -1.122 132.328  0.00  0.00    +0.012 C 
BRANCH  24  26
ATOM     26  C   LIG A   1      -4.867  -3.189 132.715  0.00  0.00    -0.027 C 
ATOM     27  C   LIG A   1      -5.534  -3.533 133.829  0.00  0.00    -0.027 C 
BRANCH  27  28
ATOM     28  C   LIG A   1      -5.386  -4.855 134.557  0.00  0.00    +0.011 C 
ATOM     29  C   LIG A   1      -4.421  -5.793 133.810  0.00  0.00    +0.012 C 
BRANCH  28  30
ATOM     30  C   LIG A   1      -6.770  -5.508 134.830  0.00  0.00    -0.011 C 
ATOM     31  C   LIG A   1      -6.775  -6.333 136.121  0.00  0.00    +0.008 C 
ATOM     32  C   LIG A   1      -7.895  -4.466 134.909  0.00  0.00    +0.008 C 
ENDBRANCH  28  30
ENDBRANCH  27  28
ENDBRANCH  24  26
ENDBRANCH  19  24
TORSDOF 5
ENDMDL
MODEL 7
REMARK VINA RESULT:      -7.9      4.217      5.682
REMARK  Name = NuBBE_491
REMARK  11 active torsions:
REMARK  status: ('A' for Active; 'I' for Inactive)
REMARK    1  A    between atoms: O_1  and  C_2
REMARK    2  A    between atoms: C_6  and  C_35
REMARK    3  A    between atoms: C_17  and  C_34
REMARK    4  A    between atoms: C_21  and  C_23
REMARK    5  A    between atoms: C_23  and  C_25
REMARK    6  A    between atoms: C_23  and  C_33
REMARK    7  A    between atoms: C_26  and  C_27
REMARK    8  A    between atoms: C_27  and  C_29
REMARK    9  A    between atoms: C_27  and  C_32
REMARK   10  A    between atoms: C_29  and  C_30
REMARK   11  A    between atoms: C_29  and  C_31
REMARK                            x       y       z     vdW  Elec       q    Type
REMARK                         _______ _______ _______ _____ _____    ______ ____
ROOT
ATOM      1  C   LIG A   1      -8.692   5.997 133.482  0.00  0.00    +0.118 C 
ATOM      2  C   LIG A   1      -8.467   4.950 134.576  0.00  0.00    +0.032 C 
ATOM      3  C   LIG A   1      -8.590   3.508 134.069  0.00  0.00    +0.012 C 
ATOM      4  C   LIG A   1      -7.688   3.214 132.841  0.00  0.00    +0.010 C 
ATOM      5  C   LIG A   1      -7.973   4.284 131.715  0.00  0.00    +0.131 C 
ATOM      6  O   LIG A   1      -6.983   4.091 130.678  0.00  0.00    -0.223 OA
ATOM      7  O   LIG A   1      -6.945   2.653 130.273  0.00  0.00    -0.223 OA
ATOM      8  C   LIG A   1      -7.877   5.732 132.215  0.00  0.00    +0.074 C 
ATOM      9  C   LIG A   1      -9.282   4.031 130.991  0.00  0.00    +0.010 C 
ATOM     10  C   LIG A   1      -9.347   2.836 130.413  0.00  0.00    +0.010 C 
ATOM     11  C   LIG A   1      -8.143   1.947 130.685  0.00  0.00    +0.129 C 
ATOM     12  C   LIG A   1      -8.052   1.785 132.230  0.00  0.00    +0.037 C 
ATOM     13  C   LIG A   1      -7.183   0.587 132.667  0.00  0.00    +0.008 C 
ATOM     14  C   LIG A   1      -6.339  -0.005 131.537  0.00  0.00    +0.008 C 
ATOM     15  C   LIG A   1      -7.172  -0.473 130.308  0.00  0.00    -0.023 C 
ATOM     16  C   LIG A   1      -8.255   0.599 129.933  0.00  0.00    +0.034 C 
ATOM     17  C   LIG A   1      -8.126   0.753 128.416  0.00  0.00    +0.007 C 
ATOM     18  C   LIG A   1      -6.650   0.552 128.122  0.00  0.00    +0.005 C 
ATOM     19  C   LIG A   1      -6.212  -0.602 129.039  0.00  0.00    +0.002 C 
ATOM     20  C   LIG A   1      -7.910  -1.769 130.708  0.00  0.00    +0.012 C 
ATOM     21  C   LIG A   1      -6.202   3.300 133.284  0.00  0.00    +0.015 C 
ENDROOT
BRANCH   1  22
ATOM     22  O   LIG A   1     -10.081   6.102 133.172  0.00  0.00    -0.392 OA
ATOM     23  H   LIG A   1     -10.589   5.537 133.777  0.00  0.00    +0.210 HD
ENDBRANCH   1  22
BRANCH  19  24
ATOM     24  C   LIG A   1      -6.064  -1.962 128.274  0.00  0.00    +0.012 C 
ATOM     25  C   LIG A   1      -4.651  -2.574 128.444  0.00  0.00    +0.012 C 
BRANCH  24  26
ATOM     26  C   LIG A   1      -6.321  -1.906 126.790  0.00  0.00    -0.027 C 
ATOM     27  C   LIG A   1      -5.356  -1.893 125.857  0.00  0.00    -0.027 C 
BRANCH  27  28
ATOM     28  C   LIG A   1      -5.592  -1.757 124.365  0.00  0.00    +0.011 C 
ATOM     29  C   LIG A   1      -6.680  -0.710 124.071  0.00  0.00    +0.012 C 
BRANCH  28  30
ATOM     30  C   LIG A   1      -5.890  -3.136 123.712  0.00  0.00    -0.011 C 
ATOM     31  C   LIG A   1      -4.756  -4.140 123.940  0.00  0.00    +0.008 C 
ATOM     32  C   LIG A   1      -7.200  -3.749 124.229  0.00  0.00    +0.008 C 
ENDBRANCH  28  30
ENDBRANCH  27  28
ENDBRANCH  24  26
ENDBRANCH  19  24
TORSDOF 5
ENDMDL
MODEL 8
REMARK VINA RESULT:      -7.8      5.076      7.952
REMARK  Name = NuBBE_491
REMARK  11 active torsions:
REMARK  status: ('A' for Active; 'I' for Inactive)
REMARK    1  A    between atoms: O_1  and  C_2
REMARK    2  A    between atoms: C_6  and  C_35
REMARK    3  A    between atoms: C_17  and  C_34
REMARK    4  A    between atoms: C_21  and  C_23
REMARK    5  A    between atoms: C_23  and  C_25
REMARK    6  A    between atoms: C_23  and  C_33
REMARK    7  A    between atoms: C_26  and  C_27
REMARK    8  A    between atoms: C_27  and  C_29
REMARK    9  A    between atoms: C_27  and  C_32
REMARK   10  A    between atoms: C_29  and  C_30
REMARK   11  A    between atoms: C_29  and  C_31
REMARK                            x       y       z     vdW  Elec       q    Type
REMARK                         _______ _______ _______ _____ _____    ______ ____
ROOT
ATOM      1  C   LIG A   1      -5.883  -2.828 129.984  0.00  0.00    +0.118 C 
ATOM      2  C   LIG A   1      -6.611  -2.512 128.676  0.00  0.00    +0.032 C 
ATOM      3  C   LIG A   1      -7.680  -1.422 128.825  0.00  0.00    +0.012 C 
ATOM      4  C   LIG A   1      -7.137  -0.121 129.471  0.00  0.00    +0.010 C 
ATOM      5  C   LIG A   1      -6.429  -0.473 130.838  0.00  0.00    +0.131 C 
ATOM      6  O   LIG A   1      -5.775   0.730 131.306  0.00  0.00    -0.223 OA
ATOM      7  O   LIG A   1      -6.742   1.869 131.301  0.00  0.00    -0.223 OA
ATOM      8  C   LIG A   1      -5.374  -1.580 130.708  0.00  0.00    +0.074 C 
ATOM      9  C   LIG A   1      -7.420  -0.777 131.945  0.00  0.00    +0.010 C 
ATOM     10  C   LIG A   1      -8.262   0.221 132.193  0.00  0.00    +0.010 C 
ATOM     11  C   LIG A   1      -8.116   1.407 131.252  0.00  0.00    +0.129 C 
ATOM     12  C   LIG A   1      -8.348   0.861 129.813  0.00  0.00    +0.037 C 
ATOM     13  C   LIG A   1      -8.672   1.967 128.787  0.00  0.00    +0.008 C 
ATOM     14  C   LIG A   1      -8.396   3.382 129.300  0.00  0.00    +0.008 C 
ATOM     15  C   LIG A   1      -9.161   3.738 130.608  0.00  0.00    -0.023 C 
ATOM     16  C   LIG A   1      -9.080   2.555 131.635  0.00  0.00    +0.034 C 
ATOM     17  C   LIG A   1      -8.707   3.227 132.958  0.00  0.00    +0.007 C 
ATOM     18  C   LIG A   1      -7.813   4.392 132.572  0.00  0.00    +0.005 C 
ATOM     19  C   LIG A   1      -8.454   4.987 131.307  0.00  0.00    +0.002 C 
ATOM     20  C   LIG A   1     -10.647   3.944 130.240  0.00  0.00    +0.012 C 
ATOM     21  C   LIG A   1      -6.113   0.527 128.500  0.00  0.00    +0.015 C 
ENDROOT
BRANCH   1  22
ATOM     22  O   LIG A   1      -6.717  -3.601 130.845  0.00  0.00    -0.392 OA
ATOM     23  H   LIG A   1      -7.635  -3.553 130.531  0.00  0.00    +0.210 HD
ENDBRANCH   1  22
BRANCH  19  24
ATOM     24  C   LIG A   1      -9.249   6.308 131.593  0.00  0.00    +0.012 C 
ATOM     25  C   LIG A   1     -10.531   6.047 132.422  0.00  0.00    +0.012 C 
BRANCH  24  26
ATOM     26  C   LIG A   1      -9.686   7.081 130.376  0.00  0.00    -0.027 C 
ATOM     27  C   LIG A   1     -10.939   7.516 130.168  0.00  0.00    -0.027 C 
BRANCH  27  28
ATOM     28  C   LIG A   1     -11.416   8.226 128.916  0.00  0.00    +0.011 C 
ATOM     29  C   LIG A   1     -12.597   9.162 129.226  0.00  0.00    +0.012 C 
BRANCH  28  30
ATOM     30  C   LIG A   1     -11.730   7.215 127.778  0.00  0.00    -0.011 C 
ATOM     31  C   LIG A   1     -13.236   7.076 127.529  0.00  0.00    +0.008 C 
ATOM     32  C   LIG A   1     -11.048   7.601 126.457  0.00  0.00    +0.008 C 
ENDBRANCH  28  30
ENDBRANCH  27  28
ENDBRANCH  24  26
ENDBRANCH  19  24
TORSDOF 5
ENDMDL
MODEL 9
REMARK VINA RESULT:      -7.6      5.319      9.924
REMARK  Name = NuBBE_491
REMARK  11 active torsions:
REMARK  status: ('A' for Active; 'I' for Inactive)
REMARK    1  A    between atoms: O_1  and  C_2
REMARK    2  A    between atoms: C_6  and  C_35
REMARK    3  A    between atoms: C_17  and  C_34
REMARK    4  A    between atoms: C_21  and  C_23
REMARK    5  A    between atoms: C_23  and  C_25
REMARK    6  A    between atoms: C_23  and  C_33
REMARK    7  A    between atoms: C_26  and  C_27
REMARK    8  A    between atoms: C_27  and  C_29
REMARK    9  A    between atoms: C_27  and  C_32
REMARK   10  A    between atoms: C_29  and  C_30
REMARK   11  A    between atoms: C_29  and  C_31
REMARK                            x       y       z     vdW  Elec       q    Type
REMARK                         _______ _______ _______ _____ _____    ______ ____
ROOT
ATOM      1  C   LIG A   1      -8.113  -1.755 122.641  0.00  0.00    +0.118 C 
ATOM      2  C   LIG A   1      -8.839  -3.017 123.112  0.00  0.00    +0.032 C 
ATOM      3  C   LIG A   1      -8.300  -3.567 124.439  0.00  0.00    +0.012 C 
ATOM      4  C   LIG A   1      -8.267  -2.505 125.569  0.00  0.00    +0.010 C 
ATOM      5  C   LIG A   1      -7.475  -1.233 125.068  0.00  0.00    +0.131 C 
ATOM      6  O   LIG A   1      -7.635  -0.204 126.073  0.00  0.00    -0.223 OA
ATOM      7  O   LIG A   1      -7.285  -0.750 127.420  0.00  0.00    -0.223 OA
ATOM      8  C   LIG A   1      -7.989  -0.688 123.729  0.00  0.00    +0.074 C 
ATOM      9  C   LIG A   1      -5.976  -1.456 125.040  0.00  0.00    +0.010 C 
ATOM     10  C   LIG A   1      -5.465  -1.786 126.222  0.00  0.00    +0.010 C 
ATOM     11  C   LIG A   1      -6.503  -1.967 127.319  0.00  0.00    +0.129 C 
ATOM     12  C   LIG A   1      -7.475  -3.080 126.831  0.00  0.00    +0.037 C 
ATOM     13  C   LIG A   1      -8.313  -3.700 127.968  0.00  0.00    +0.008 C 
ATOM     14  C   LIG A   1      -8.261  -2.904 129.274  0.00  0.00    +0.008 C 
ATOM     15  C   LIG A   1      -6.822  -2.699 129.830  0.00  0.00    -0.023 C 
ATOM     16  C   LIG A   1      -5.837  -2.289 128.679  0.00  0.00    +0.034 C 
ATOM     17  C   LIG A   1      -5.057  -1.104 129.253  0.00  0.00    +0.007 C 
ATOM     18  C   LIG A   1      -6.044  -0.377 130.149  0.00  0.00    +0.005 C 
ATOM     19  C   LIG A   1      -6.826  -1.488 130.869  0.00  0.00    +0.002 C 
ATOM     20  C   LIG A   1      -6.343  -4.053 130.400  0.00  0.00    +0.012 C 
ATOM     21  C   LIG A   1      -9.726  -2.110 125.924  0.00  0.00    +0.015 C 
ENDROOT
BRANCH   1  22
ATOM     22  O   LIG A   1      -6.828  -2.087 122.115  0.00  0.00    -0.392 OA
ATOM     23  H   LIG A   1      -6.926  -2.400 121.201  0.00  0.00    +0.210 HD
ENDBRANCH   1  22
BRANCH  19  24
ATOM     24  C   LIG A   1      -6.360  -1.694 132.351  0.00  0.00    +0.012 C 
ATOM     25  C   LIG A   1      -7.551  -1.963 133.304  0.00  0.00    +0.012 C 
BRANCH  24  26
ATOM     26  C   LIG A   1      -5.589  -0.549 132.957  0.00  0.00    -0.027 C 
ATOM     27  C   LIG A   1      -6.136   0.405 133.727  0.00  0.00    -0.027 C 
BRANCH  27  28
ATOM     28  C   LIG A   1      -5.394   1.607 134.279  0.00  0.00    +0.011 C 
ATOM     29  C   LIG A   1      -5.054   1.412 135.767  0.00  0.00    +0.012 C 
BRANCH  28  30
ATOM     30  C   LIG A   1      -6.172   2.925 134.007  0.00  0.00    -0.011 C 
ATOM     31  C   LIG A   1      -7.633   2.666 133.627  0.00  0.00    +0.008 C 
ATOM     32  C   LIG A   1      -6.139   3.874 135.214  0.00  0.00    +0.008 C 
ENDBRANCH  28  30
ENDBRANCH  27  28
ENDBRANCH  24  26
ENDBRANCH  19  24
TORSDOF 5
ENDMDL
