MODEL 1
REMARK VINA RESULT:      -6.7      0.000      0.000
REMARK  Name = NuBBE_1340
REMARK  5 active torsions:
REMARK  status: ('A' for Active; 'I' for Inactive)
REMARK    1  A    between atoms: C_1  and  C_2
REMARK    2  A    between atoms: C_6  and  C_7
REMARK    3  A    between atoms: C_10  and  C_11
REMARK    4  A    between atoms: C_11  and  C_12
REMARK    5  A    between atoms: C_11  and  C_13
REMARK                            x       y       z     vdW  Elec       q    Type
REMARK                         _______ _______ _______ _____ _____    ______ ____
ROOT
ATOM      1  C   LIG A   1      -9.395  -0.709 123.196  0.00  0.00    +0.013 C 
ATOM      2  C   LIG A   1      -8.050  -0.177 123.708  0.00  0.00    +0.020 C 
ATOM      3  C   LIG A   1      -7.025  -1.294 123.746  0.00  0.00    -0.037 A 
ATOM      4  C   LIG A   1      -6.287  -1.588 122.587  0.00  0.00    +0.005 A 
ATOM      5  C   LIG A   1      -5.353  -2.621 122.587  0.00  0.00    +0.003 A 
ATOM      6  C   LIG A   1      -5.134  -3.368 123.744  0.00  0.00    -0.050 A 
ATOM      7  C   LIG A   1      -4.148  -4.498 123.746  0.00  0.00    +0.044 C 
ATOM      8  C   LIG A   1      -5.889  -3.086 124.895  0.00  0.00    +0.012 A 
ATOM      9  C   LIG A   1      -6.842  -2.054 124.921  0.00  0.00    -0.018 A 
ATOM     10  C   LIG A   1      -7.648  -1.740 126.140  0.00  0.00    -0.041 C 
ATOM     11  C   LIG A   1      -8.247  -0.533 126.202  0.00  0.00    -0.022 C 
ATOM     12  C   LIG A   1      -8.188   0.475 125.092  0.00  0.00    +0.035 C 
ENDROOT
BRANCH  10  13
ATOM     13  C   LIG A   1      -7.760  -2.764 127.266  0.00  0.00    +0.013 C 
ATOM     14  C   LIG A   1      -7.724  -2.079 128.635  0.00  0.00    +0.012 C 
ATOM     15  C   LIG A   1      -9.004  -3.660 127.165  0.00  0.00    +0.012 C 
ENDBRANCH  10  13
TORSDOF 1
ENDMDL
MODEL 2
REMARK VINA RESULT:      -6.4      1.661      4.652
REMARK  Name = NuBBE_1340
REMARK  5 active torsions:
REMARK  status: ('A' for Active; 'I' for Inactive)
REMARK    1  A    between atoms: C_1  and  C_2
REMARK    2  A    between atoms: C_6  and  C_7
REMARK    3  A    between atoms: C_10  and  C_11
REMARK    4  A    between atoms: C_11  and  C_12
REMARK    5  A    between atoms: C_11  and  C_13
REMARK                            x       y       z     vdW  Elec       q    Type
REMARK                         _______ _______ _______ _____ _____    ______ ____
ROOT
ATOM      1  C   LIG A   1      -9.406  -3.253 124.103  0.00  0.00    +0.013 C 
ATOM      2  C   LIG A   1      -8.096  -3.686 124.773  0.00  0.00    +0.020 C 
ATOM      3  C   LIG A   1      -8.051  -3.189 126.204  0.00  0.00    -0.037 A 
ATOM      4  C   LIG A   1      -8.639  -3.961 127.219  0.00  0.00    +0.005 A 
ATOM      5  C   LIG A   1      -8.630  -3.521 128.540  0.00  0.00    +0.003 A 
ATOM      6  C   LIG A   1      -8.025  -2.308 128.870  0.00  0.00    -0.050 A 
ATOM      7  C   LIG A   1      -8.032  -1.814 130.286  0.00  0.00    +0.044 C 
ATOM      8  C   LIG A   1      -7.456  -1.526 127.850  0.00  0.00    +0.012 A 
ATOM      9  C   LIG A   1      -7.457  -1.944 126.509  0.00  0.00    -0.018 A 
ATOM     10  C   LIG A   1      -6.852  -1.125 125.415  0.00  0.00    -0.041 C 
ATOM     11  C   LIG A   1      -6.562  -1.746 124.252  0.00  0.00    -0.022 C 
ATOM     12  C   LIG A   1      -6.869  -3.191 123.992  0.00  0.00    +0.035 C 
ENDROOT
BRANCH  10  13
ATOM     13  C   LIG A   1      -6.568   0.358 125.639  0.00  0.00    +0.013 C 
ATOM     14  C   LIG A   1      -5.114   0.578 126.070  0.00  0.00    +0.012 C 
ATOM     15  C   LIG A   1      -6.890   1.239 124.423  0.00  0.00    +0.012 C 
ENDBRANCH  10  13
TORSDOF 1
ENDMDL
MODEL 3
REMARK VINA RESULT:      -6.4      1.639      4.372
REMARK  Name = NuBBE_1340
REMARK  5 active torsions:
REMARK  status: ('A' for Active; 'I' for Inactive)
REMARK    1  A    between atoms: C_1  and  C_2
REMARK    2  A    between atoms: C_6  and  C_7
REMARK    3  A    between atoms: C_10  and  C_11
REMARK    4  A    between atoms: C_11  and  C_12
REMARK    5  A    between atoms: C_11  and  C_13
REMARK                            x       y       z     vdW  Elec       q    Type
REMARK                         _______ _______ _______ _____ _____    ______ ____
ROOT
ATOM      1  C   LIG A   1      -9.416  -0.801 125.525  0.00  0.00    +0.013 C 
ATOM      2  C   LIG A   1      -9.154  -2.226 126.028  0.00  0.00    +0.020 C 
ATOM      3  C   LIG A   1      -7.857  -2.274 126.812  0.00  0.00    -0.037 A 
ATOM      4  C   LIG A   1      -7.870  -1.962 128.182  0.00  0.00    +0.005 A 
ATOM      5  C   LIG A   1      -6.691  -1.979 128.924  0.00  0.00    +0.003 A 
ATOM      6  C   LIG A   1      -5.484  -2.317 128.312  0.00  0.00    -0.050 A 
ATOM      7  C   LIG A   1      -4.206  -2.314 129.096  0.00  0.00    +0.044 C 
ATOM      8  C   LIG A   1      -5.470  -2.606 126.937  0.00  0.00    +0.012 A 
ATOM      9  C   LIG A   1      -6.643  -2.590 126.164  0.00  0.00    -0.018 A 
ATOM     10  C   LIG A   1      -6.643  -2.902 124.703  0.00  0.00    -0.041 C 
ATOM     11  C   LIG A   1      -7.820  -3.229 124.130  0.00  0.00    -0.022 C 
ATOM     12  C   LIG A   1      -9.123  -3.239 124.874  0.00  0.00    +0.035 C 
ENDROOT
BRANCH  10  13
ATOM     13  C   LIG A   1      -5.338  -2.857 123.913  0.00  0.00    +0.013 C 
ATOM     14  C   LIG A   1      -4.712  -4.252 123.809  0.00  0.00    +0.012 C 
ATOM     15  C   LIG A   1      -5.485  -2.246 122.511  0.00  0.00    +0.012 C 
ENDBRANCH  10  13
TORSDOF 1
ENDMDL
MODEL 4
REMARK VINA RESULT:      -6.3     16.590     18.897
REMARK  Name = NuBBE_1340
REMARK  5 active torsions:
REMARK  status: ('A' for Active; 'I' for Inactive)
REMARK    1  A    between atoms: C_1  and  C_2
REMARK    2  A    between atoms: C_6  and  C_7
REMARK    3  A    between atoms: C_10  and  C_11
REMARK    4  A    between atoms: C_11  and  C_12
REMARK    5  A    between atoms: C_11  and  C_13
REMARK                            x       y       z     vdW  Elec       q    Type
REMARK                         _______ _______ _______ _____ _____    ______ ____
ROOT
ATOM      1  C   LIG A   1      -8.139   7.252 138.497  0.00  0.00    +0.013 C 
ATOM      2  C   LIG A   1      -8.231   8.453 137.548  0.00  0.00    +0.020 C 
ATOM      3  C   LIG A   1      -7.245   9.526 137.964  0.00  0.00    -0.037 A 
ATOM      4  C   LIG A   1      -5.921   9.461 137.499  0.00  0.00    +0.005 A 
ATOM      5  C   LIG A   1      -4.988  10.422 137.880  0.00  0.00    +0.003 A 
ATOM      6  C   LIG A   1      -5.364  11.467 138.724  0.00  0.00    -0.050 A 
ATOM      7  C   LIG A   1      -4.360  12.493 139.160  0.00  0.00    +0.044 C 
ATOM      8  C   LIG A   1      -6.683  11.518 139.206  0.00  0.00    +0.012 A 
ATOM      9  C   LIG A   1      -7.642  10.558 138.842  0.00  0.00    -0.018 A 
ATOM     10  C   LIG A   1      -9.049  10.604 139.343  0.00  0.00    -0.041 C 
ATOM     11  C   LIG A   1      -9.978   9.892 138.671  0.00  0.00    -0.022 C 
ATOM     12  C   LIG A   1      -9.656   9.024 137.491  0.00  0.00    +0.035 C 
ENDROOT
BRANCH  10  13
ATOM     13  C   LIG A   1      -9.397  11.445 140.568  0.00  0.00    +0.013 C 
ATOM     14  C   LIG A   1     -10.216  12.678 140.170  0.00  0.00    +0.012 C 
ATOM     15  C   LIG A   1     -10.133  10.664 141.666  0.00  0.00    +0.012 C 
ENDBRANCH  10  13
TORSDOF 1
ENDMDL
MODEL 5
REMARK VINA RESULT:      -6.1      9.332     11.546
REMARK  Name = NuBBE_1340
REMARK  5 active torsions:
REMARK  status: ('A' for Active; 'I' for Inactive)
REMARK    1  A    between atoms: C_1  and  C_2
REMARK    2  A    between atoms: C_6  and  C_7
REMARK    3  A    between atoms: C_10  and  C_11
REMARK    4  A    between atoms: C_11  and  C_12
REMARK    5  A    between atoms: C_11  and  C_13
REMARK                            x       y       z     vdW  Elec       q    Type
REMARK                         _______ _______ _______ _____ _____    ______ ____
ROOT
ATOM      1  C   LIG A   1      -8.998   3.617 133.453  0.00  0.00    +0.013 C 
ATOM      2  C   LIG A   1      -8.975   5.125 133.733  0.00  0.00    +0.020 C 
ATOM      3  C   LIG A   1      -9.323   5.896 132.475  0.00  0.00    -0.037 A 
ATOM      4  C   LIG A   1     -10.673   6.134 132.166  0.00  0.00    +0.005 A 
ATOM      5  C   LIG A   1     -11.023   6.823 131.007  0.00  0.00    +0.003 A 
ATOM      6  C   LIG A   1     -10.032   7.292 130.145  0.00  0.00    -0.050 A 
ATOM      7  C   LIG A   1     -10.400   8.014 128.882  0.00  0.00    +0.044 C 
ATOM      8  C   LIG A   1      -8.684   7.034 130.445  0.00  0.00    +0.012 A 
ATOM      9  C   LIG A   1      -8.303   6.337 131.603  0.00  0.00    -0.018 A 
ATOM     10  C   LIG A   1      -6.873   6.060 131.937  0.00  0.00    -0.041 C 
ATOM     11  C   LIG A   1      -6.578   5.732 133.213  0.00  0.00    -0.022 C 
ATOM     12  C   LIG A   1      -7.616   5.579 134.285  0.00  0.00    +0.035 C 
ENDROOT
BRANCH  10  13
ATOM     13  C   LIG A   1      -5.802   6.166 130.855  0.00  0.00    +0.013 C 
ATOM     14  C   LIG A   1      -4.681   7.117 131.285  0.00  0.00    +0.012 C 
ATOM     15  C   LIG A   1      -5.206   4.812 130.441  0.00  0.00    +0.012 C 
ENDBRANCH  10  13
TORSDOF 1
ENDMDL
MODEL 6
REMARK VINA RESULT:      -6.1      1.352      3.820
REMARK  Name = NuBBE_1340
REMARK  5 active torsions:
REMARK  status: ('A' for Active; 'I' for Inactive)
REMARK    1  A    between atoms: C_1  and  C_2
REMARK    2  A    between atoms: C_6  and  C_7
REMARK    3  A    between atoms: C_10  and  C_11
REMARK    4  A    between atoms: C_11  and  C_12
REMARK    5  A    between atoms: C_11  and  C_13
REMARK                            x       y       z     vdW  Elec       q    Type
REMARK                         _______ _______ _______ _____ _____    ______ ____
ROOT
ATOM      1  C   LIG A   1      -5.788  -2.684 123.606  0.00  0.00    +0.013 C 
ATOM      2  C   LIG A   1      -7.235  -2.186 123.502  0.00  0.00    +0.020 C 
ATOM      3  C   LIG A   1      -7.438  -0.977 124.394  0.00  0.00    -0.037 A 
ATOM      4  C   LIG A   1      -7.131   0.301 123.899  0.00  0.00    +0.005 A 
ATOM      5  C   LIG A   1      -7.289   1.429 124.701  0.00  0.00    +0.003 A 
ATOM      6  C   LIG A   1      -7.765   1.298 126.006  0.00  0.00    -0.050 A 
ATOM      7  C   LIG A   1      -7.916   2.504 126.886  0.00  0.00    +0.044 C 
ATOM      8  C   LIG A   1      -8.051   0.016 126.506  0.00  0.00    +0.012 A 
ATOM      9  C   LIG A   1      -7.895  -1.137 125.720  0.00  0.00    -0.018 A 
ATOM     10  C   LIG A   1      -8.200  -2.505 126.238  0.00  0.00    -0.041 C 
ATOM     11  C   LIG A   1      -8.384  -3.492 125.336  0.00  0.00    -0.022 C 
ATOM     12  C   LIG A   1      -8.242  -3.291 123.856  0.00  0.00    +0.035 C 
ENDROOT
BRANCH  10  13
ATOM     13  C   LIG A   1      -8.308  -2.746 127.741  0.00  0.00    +0.013 C 
ATOM     14  C   LIG A   1      -9.072  -4.041 128.035  0.00  0.00    +0.012 C 
ATOM     15  C   LIG A   1      -6.952  -2.767 128.463  0.00  0.00    +0.012 C 
ENDBRANCH  10  13
TORSDOF 1
ENDMDL
MODEL 7
REMARK VINA RESULT:      -6.0      1.817      4.387
REMARK  Name = NuBBE_1340
REMARK  5 active torsions:
REMARK  status: ('A' for Active; 'I' for Inactive)
REMARK    1  A    between atoms: C_1  and  C_2
REMARK    2  A    between atoms: C_6  and  C_7
REMARK    3  A    between atoms: C_10  and  C_11
REMARK    4  A    between atoms: C_11  and  C_12
REMARK    5  A    between atoms: C_11  and  C_13
REMARK                            x       y       z     vdW  Elec       q    Type
REMARK                         _______ _______ _______ _____ _____    ______ ____
ROOT
ATOM      1  C   LIG A   1      -6.667   1.179 125.413  0.00  0.00    +0.013 C 
ATOM      2  C   LIG A   1      -8.040   0.949 126.056  0.00  0.00    +0.020 C 
ATOM      3  C   LIG A   1      -7.965  -0.186 127.058  0.00  0.00    -0.037 A 
ATOM      4  C   LIG A   1      -7.570   0.087 128.378  0.00  0.00    +0.005 A 
ATOM      5  C   LIG A   1      -7.473  -0.939 129.315  0.00  0.00    +0.003 A 
ATOM      6  C   LIG A   1      -7.780  -2.250 128.952  0.00  0.00    -0.050 A 
ATOM      7  C   LIG A   1      -7.656  -3.365 129.948  0.00  0.00    +0.044 C 
ATOM      8  C   LIG A   1      -8.155  -2.524 127.626  0.00  0.00    +0.012 A 
ATOM      9  C   LIG A   1      -8.254  -1.510 126.659  0.00  0.00    -0.018 A 
ATOM     10  C   LIG A   1      -8.656  -1.787 125.247  0.00  0.00    -0.041 C 
ATOM     11  C   LIG A   1      -9.084  -0.747 124.500  0.00  0.00    -0.022 C 
ATOM     12  C   LIG A   1      -9.120   0.666 125.001  0.00  0.00    +0.035 C 
ENDROOT
BRANCH  10  13
ATOM     13  C   LIG A   1      -8.588  -3.209 124.698  0.00  0.00    +0.013 C 
ATOM     14  C   LIG A   1      -9.540  -3.385 123.511  0.00  0.00    +0.012 C 
ATOM     15  C   LIG A   1      -7.172  -3.651 124.300  0.00  0.00    +0.012 C 
ENDBRANCH  10  13
TORSDOF 1
ENDMDL
MODEL 8
REMARK VINA RESULT:      -5.9     10.002     11.615
REMARK  Name = NuBBE_1340
REMARK  5 active torsions:
REMARK  status: ('A' for Active; 'I' for Inactive)
REMARK    1  A    between atoms: C_1  and  C_2
REMARK    2  A    between atoms: C_6  and  C_7
REMARK    3  A    between atoms: C_10  and  C_11
REMARK    4  A    between atoms: C_11  and  C_12
REMARK    5  A    between atoms: C_11  and  C_13
REMARK                            x       y       z     vdW  Elec       q    Type
REMARK                         _______ _______ _______ _____ _____    ______ ____
ROOT
ATOM      1  C   LIG A   1      -7.691   5.728 135.756  0.00  0.00    +0.013 C 
ATOM      2  C   LIG A   1      -7.271   4.734 134.666  0.00  0.00    +0.020 C 
ATOM      3  C   LIG A   1      -6.621   5.469 133.510  0.00  0.00    -0.037 A 
ATOM      4  C   LIG A   1      -5.246   5.752 133.561  0.00  0.00    +0.005 A 
ATOM      5  C   LIG A   1      -4.627   6.442 132.522  0.00  0.00    +0.003 A 
ATOM      6  C   LIG A   1      -5.367   6.852 131.413  0.00  0.00    -0.050 A 
ATOM      7  C   LIG A   1      -4.714   7.617 130.301  0.00  0.00    +0.044 C 
ATOM      8  C   LIG A   1      -6.747   6.587 131.375  0.00  0.00    +0.012 A 
ATOM      9  C   LIG A   1      -7.398   5.898 132.412  0.00  0.00    -0.018 A 
ATOM     10  C   LIG A   1      -8.863   5.605 132.381  0.00  0.00    -0.041 C 
ATOM     11  C   LIG A   1      -9.328   4.640 133.202  0.00  0.00    -0.022 C 
ATOM     12  C   LIG A   1      -8.460   3.896 134.173  0.00  0.00    +0.035 C 
ENDROOT
BRANCH  10  13
ATOM     13  C   LIG A   1      -9.776   6.378 131.433  0.00  0.00    +0.013 C 
ATOM     14  C   LIG A   1      -9.794   5.734 130.043  0.00  0.00    +0.012 C 
ATOM     15  C   LIG A   1     -11.214   6.536 131.952  0.00  0.00    +0.012 C 
ENDBRANCH  10  13
TORSDOF 1
ENDMDL
MODEL 9
REMARK VINA RESULT:      -5.8      8.945     10.412
REMARK  Name = NuBBE_1340
REMARK  5 active torsions:
REMARK  status: ('A' for Active; 'I' for Inactive)
REMARK    1  A    between atoms: C_1  and  C_2
REMARK    2  A    between atoms: C_6  and  C_7
REMARK    3  A    between atoms: C_10  and  C_11
REMARK    4  A    between atoms: C_11  and  C_12
REMARK    5  A    between atoms: C_11  and  C_13
REMARK                            x       y       z     vdW  Elec       q    Type
REMARK                         _______ _______ _______ _____ _____    ______ ____
ROOT
ATOM      1  C   LIG A   1      -2.713   7.770 132.116  0.00  0.00    +0.013 C 
ATOM      2  C   LIG A   1      -1.621   6.861 131.537  0.00  0.00    +0.020 C 
ATOM      3  C   LIG A   1      -2.165   6.072 130.362  0.00  0.00    -0.037 A 
ATOM      4  C   LIG A   1      -2.144   6.646 129.081  0.00  0.00    +0.005 A 
ATOM      5  C   LIG A   1      -2.654   5.953 127.986  0.00  0.00    +0.003 A 
ATOM      6  C   LIG A   1      -3.183   4.673 128.152  0.00  0.00    -0.050 A 
ATOM      7  C   LIG A   1      -3.757   3.928 126.983  0.00  0.00    +0.044 C 
ATOM      8  C   LIG A   1      -3.223   4.110 129.439  0.00  0.00    +0.012 A 
ATOM      9  C   LIG A   1      -2.721   4.790 130.561  0.00  0.00    -0.018 A 
ATOM     10  C   LIG A   1      -2.752   4.200 131.934  0.00  0.00    -0.041 C 
ATOM     11  C   LIG A   1      -1.935   4.734 132.865  0.00  0.00    -0.022 C 
ATOM     12  C   LIG A   1      -1.047   5.915 132.603  0.00  0.00    +0.035 C 
ENDROOT
BRANCH  10  13
ATOM     13  C   LIG A   1      -3.678   3.026 132.240  0.00  0.00    +0.013 C 
ATOM     14  C   LIG A   1      -3.023   2.056 133.229  0.00  0.00    +0.012 C 
ATOM     15  C   LIG A   1      -5.060   3.447 132.761  0.00  0.00    +0.012 C 
ENDBRANCH  10  13
TORSDOF 1
ENDMDL
