MODEL 1
REMARK VINA RESULT:      -9.4      0.000      0.000
REMARK  Name = NuBBE_317
REMARK  17 active torsions:
REMARK  status: ('A' for Active; 'I' for Inactive)
REMARK    1  A    between atoms: O_1  and  C_2
REMARK    2  A    between atoms: C_6  and  C_57
REMARK    3  A    between atoms: C_8  and  C_9
REMARK    4  A    between atoms: C_8  and  C_10
REMARK    5  A    between atoms: C_14  and  C_56
REMARK    6  A    between atoms: C_20  and  C_53
REMARK    7  A    between atoms: C_23  and  C_34
REMARK    8  A    between atoms: C_26  and  C_33
REMARK    9  A    between atoms: C_28  and  C_32
REMARK   10  A    between atoms: C_34  and  O_35
REMARK   11  A    between atoms: O_35  and  C_36
REMARK   12  A    between atoms: C_38  and  O_51
REMARK   13  A    between atoms: C_40  and  O_50
REMARK   14  A    between atoms: C_42  and  O_49
REMARK   15  A    between atoms: C_44  and  C_47
REMARK   16  A    between atoms: C_47  and  O_48
REMARK   17  A    between atoms: C_53  and  O_54
REMARK                            x       y       z     vdW  Elec       q    Type
REMARK                         _______ _______ _______ _____ _____    ______ ____
ROOT
ATOM      1  C   LIG A   1     -12.652   7.299 127.745  0.00  0.00    +0.120 C 
ATOM      2  C   LIG A   1     -13.532   6.428 128.647  0.00  0.00    +0.032 C 
ATOM      3  C   LIG A   1     -12.713   5.427 129.476  0.00  0.00    +0.010 C 
ATOM      4  C   LIG A   1     -11.567   6.069 130.335  0.00  0.00    -0.025 C 
ATOM      5  C   LIG A   1     -10.715   6.964 129.359  0.00  0.00    +0.003 C 
ATOM      6  C   LIG A   1     -11.516   8.029 128.519  0.00  0.00    -0.006 C 
ATOM      7  C   LIG A   1     -10.566   8.710 127.494  0.00  0.00    +0.014 C 
ATOM      8  C   LIG A   1     -12.112   9.176 129.358  0.00  0.00    +0.014 C 
ATOM      9  C   LIG A   1      -9.451   7.510 130.031  0.00  0.00    +0.005 C 
ATOM     10  C   LIG A   1      -8.577   6.395 130.614  0.00  0.00    +0.009 C 
ATOM     11  C   LIG A   1      -9.272   5.475 131.662  0.00  0.00    -0.009 C 
ATOM     12  C   LIG A   1     -10.619   4.947 131.002  0.00  0.00    +0.006 C 
ATOM     13  C   LIG A   1     -10.348   3.842 129.959  0.00  0.00    +0.031 C 
ATOM     14  C   LIG A   1      -9.264   2.882 130.250  0.00  0.00    -0.026 C 
ATOM     15  C   LIG A   1      -8.344   2.993 131.216  0.00  0.00    -0.052 C 
ATOM     16  C   LIG A   1      -8.292   4.232 132.130  0.00  0.00    +0.094 C 
ATOM     17  C   LIG A   1      -6.799   4.707 132.155  0.00  0.00    +0.024 C 
ATOM     18  C   LIG A   1      -5.726   3.634 132.367  0.00  0.00    +0.020 C 
ATOM     19  C   LIG A   1      -5.858   2.362 131.483  0.00  0.00    +0.075 C 
ATOM     20  C   LIG A   1      -7.335   1.868 131.520  0.00  0.00    +0.036 C 
ATOM     21  C   LIG A   1      -7.550   0.505 130.762  0.00  0.00    -0.003 C 
ATOM     22  C   LIG A   1      -6.286  -0.395 130.814  0.00  0.00    -0.011 C 
ATOM     23  C   LIG A   1      -5.511  -0.149 132.104  0.00  0.00    +0.004 C 
ATOM     24  C   LIG A   1      -4.942   1.273 132.144  0.00  0.00    +0.019 C 
ATOM     25  C   LIG A   1      -6.560  -1.883 130.598  0.00  0.00    +0.008 C 
ATOM     26  C   LIG A   1      -8.805  -0.213 131.308  0.00  0.00    +0.008 C 
ATOM     27  C   LIG A   1      -9.544   6.374 132.908  0.00  0.00    +0.013 C 
ATOM     28  C   LIG A   1     -12.260   6.842 131.484  0.00  0.00    +0.012 C 
ENDROOT
BRANCH   1  29
ATOM     29  O   LIG A   1     -12.110   6.435 126.739  0.00  0.00    -0.391 OA
ATOM     30  H   LIG A   1     -12.744   5.713 126.591  0.00  0.00    +0.210 HD
ENDBRANCH   1  29
BRANCH  19  31
ATOM     31  C   LIG A   1      -5.423   2.710 130.022  0.00  0.00    +0.316 C 
ATOM     32  O   LIG A   1      -5.712   2.039 129.032  0.00  0.00    -0.250 OA
BRANCH  31  33
ATOM     33  O   LIG A   1      -4.703   3.858 129.937  0.00  0.00    -0.432 OA
BRANCH  33  34
ATOM     34  C   LIG A   1      -3.401   3.852 129.316  0.00  0.00    +0.342 C 
ATOM     35  C   LIG A   1      -3.309   4.253 127.828  0.00  0.00    +0.214 C 
ATOM     36  C   LIG A   1      -3.886   5.658 127.596  0.00  0.00    +0.180 C 
ATOM     37  C   LIG A   1      -3.991   6.465 128.900  0.00  0.00    +0.177 C 
ATOM     38  C   LIG A   1      -2.811   6.166 129.837  0.00  0.00    +0.179 C 
ATOM     39  O   LIG A   1      -2.541   4.758 130.048  0.00  0.00    -0.331 OA
BRANCH  37  40
ATOM     40  O   LIG A   1      -4.068   7.861 128.601  0.00  0.00    -0.387 OA
ATOM     41  H   LIG A   1      -3.528   7.993 127.797  0.00  0.00    +0.210 HD
ENDBRANCH  37  40
BRANCH  36  42
ATOM     42  O   LIG A   1      -5.206   5.594 127.032  0.00  0.00    -0.386 OA
ATOM     43  H   LIG A   1      -5.768   6.223 127.523  0.00  0.00    +0.210 HD
ENDBRANCH  36  42
BRANCH  35  44
ATOM     44  O   LIG A   1      -1.925   4.256 127.408  0.00  0.00    -0.383 OA
ATOM     45  H   LIG A   1      -1.485   3.489 127.822  0.00  0.00    +0.210 HD
ENDBRANCH  35  44
BRANCH  38  46
ATOM     46  C   LIG A   1      -3.035   6.781 131.223  0.00  0.00    +0.190 C 
BRANCH  46  47
ATOM     47  O   LIG A   1      -4.406   7.157 131.368  0.00  0.00    -0.392 OA
ATOM     48  H   LIG A   1      -4.826   6.943 130.512  0.00  0.00    +0.209 HD
ENDBRANCH  46  47
ENDBRANCH  38  46
ENDBRANCH  33  34
ENDBRANCH  31  33
ENDBRANCH  19  31
BRANCH  16  49
ATOM     49  C   LIG A   1      -8.716   3.714 133.537  0.00  0.00    +0.316 C 
ATOM     50  O   LIG A   1      -8.137   3.902 134.610  0.00  0.00    -0.250 OA
BRANCH  49  51
ATOM     51  O   LIG A   1      -9.852   2.988 133.552  0.00  0.00    -0.480 OA
ATOM     52  H   LIG A   1     -10.495   3.559 134.025  0.00  0.00    +0.295 HD
ENDBRANCH  49  51
ENDBRANCH  16  49
TORSDOF 11
ENDMDL
MODEL 2
REMARK VINA RESULT:      -9.1      2.255      8.110
REMARK  Name = NuBBE_317
REMARK  17 active torsions:
REMARK  status: ('A' for Active; 'I' for Inactive)
REMARK    1  A    between atoms: O_1  and  C_2
REMARK    2  A    between atoms: C_6  and  C_57
REMARK    3  A    between atoms: C_8  and  C_9
REMARK    4  A    between atoms: C_8  and  C_10
REMARK    5  A    between atoms: C_14  and  C_56
REMARK    6  A    between atoms: C_20  and  C_53
REMARK    7  A    between atoms: C_23  and  C_34
REMARK    8  A    between atoms: C_26  and  C_33
REMARK    9  A    between atoms: C_28  and  C_32
REMARK   10  A    between atoms: C_34  and  O_35
REMARK   11  A    between atoms: O_35  and  C_36
REMARK   12  A    between atoms: C_38  and  O_51
REMARK   13  A    between atoms: C_40  and  O_50
REMARK   14  A    between atoms: C_42  and  O_49
REMARK   15  A    between atoms: C_44  and  C_47
REMARK   16  A    between atoms: C_47  and  O_48
REMARK   17  A    between atoms: C_53  and  O_54
REMARK                            x       y       z     vdW  Elec       q    Type
REMARK                         _______ _______ _______ _____ _____    ______ ____
ROOT
ATOM      1  C   LIG A   1      -5.395  -3.405 129.593  0.00  0.00    +0.120 C 
ATOM      2  C   LIG A   1      -3.920  -3.206 129.953  0.00  0.00    +0.032 C 
ATOM      3  C   LIG A   1      -3.585  -1.741 130.269  0.00  0.00    +0.010 C 
ATOM      4  C   LIG A   1      -4.480  -1.088 131.380  0.00  0.00    -0.025 C 
ATOM      5  C   LIG A   1      -5.978  -1.343 130.965  0.00  0.00    +0.003 C 
ATOM      6  C   LIG A   1      -6.369  -2.841 130.669  0.00  0.00    -0.006 C 
ATOM      7  C   LIG A   1      -7.820  -2.904 130.117  0.00  0.00    +0.014 C 
ATOM      8  C   LIG A   1      -6.357  -3.753 131.911  0.00  0.00    +0.014 C 
ATOM      9  C   LIG A   1      -6.963  -0.601 131.872  0.00  0.00    +0.005 C 
ATOM     10  C   LIG A   1      -6.685   0.905 131.920  0.00  0.00    +0.009 C 
ATOM     11  C   LIG A   1      -5.257   1.309 132.396  0.00  0.00    -0.009 C 
ATOM     12  C   LIG A   1      -4.219   0.499 131.503  0.00  0.00    +0.006 C 
ATOM     13  C   LIG A   1      -4.101   1.095 130.084  0.00  0.00    +0.031 C 
ATOM     14  C   LIG A   1      -4.170   2.564 129.954  0.00  0.00    -0.026 C 
ATOM     15  C   LIG A   1      -4.541   3.428 130.906  0.00  0.00    -0.052 C 
ATOM     16  C   LIG A   1      -5.015   2.939 132.287  0.00  0.00    +0.094 C 
ATOM     17  C   LIG A   1      -6.348   3.700 132.599  0.00  0.00    +0.024 C 
ATOM     18  C   LIG A   1      -6.367   5.211 132.346  0.00  0.00    +0.020 C 
ATOM     19  C   LIG A   1      -5.807   5.674 130.972  0.00  0.00    +0.075 C 
ATOM     20  C   LIG A   1      -4.451   4.954 130.709  0.00  0.00    +0.036 C 
ATOM     21  C   LIG A   1      -3.730   5.454 129.401  0.00  0.00    -0.003 C 
ATOM     22  C   LIG A   1      -4.047   6.943 129.094  0.00  0.00    -0.011 C 
ATOM     23  C   LIG A   1      -4.284   7.712 130.389  0.00  0.00    +0.004 C 
ATOM     24  C   LIG A   1      -5.546   7.216 131.104  0.00  0.00    +0.019 C 
ATOM     25  C   LIG A   1      -3.016   7.639 128.208  0.00  0.00    +0.008 C 
ATOM     26  C   LIG A   1      -2.212   5.184 129.496  0.00  0.00    +0.008 C 
ATOM     27  C   LIG A   1      -5.176   0.905 133.900  0.00  0.00    +0.013 C 
ATOM     28  C   LIG A   1      -4.060  -1.739 132.721  0.00  0.00    +0.012 C 
ENDROOT
BRANCH   1  29
ATOM     29  O   LIG A   1      -5.603  -2.762 128.330  0.00  0.00    -0.391 OA
ATOM     30  H   LIG A   1      -5.083  -3.240 127.662  0.00  0.00    +0.210 HD
ENDBRANCH   1  29
BRANCH  19  31
ATOM     31  C   LIG A   1      -6.846   5.331 129.856  0.00  0.00    +0.316 C 
ATOM     32  O   LIG A   1      -6.567   4.783 128.791  0.00  0.00    -0.250 OA
BRANCH  31  33
ATOM     33  O   LIG A   1      -8.117   5.678 130.184  0.00  0.00    -0.432 OA
BRANCH  33  34
ATOM     34  C   LIG A   1      -9.190   4.725 130.034  0.00  0.00    +0.342 C 
ATOM     35  C   LIG A   1     -10.123   4.493 131.243  0.00  0.00    +0.214 C 
ATOM     36  C   LIG A   1     -10.780   5.806 131.696  0.00  0.00    +0.180 C 
ATOM     37  C   LIG A   1     -10.708   6.895 130.613  0.00  0.00    +0.177 C 
ATOM     38  C   LIG A   1     -10.870   6.295 129.208  0.00  0.00    +0.179 C 
ATOM     39  O   LIG A   1     -10.028   5.149 128.933  0.00  0.00    -0.331 OA
BRANCH  37  40
ATOM     40  O   LIG A   1     -11.702   7.893 130.864  0.00  0.00    -0.387 OA
ATOM     41  H   LIG A   1     -11.420   8.352 131.680  0.00  0.00    +0.210 HD
ENDBRANCH  37  40
BRANCH  36  42
ATOM     42  O   LIG A   1     -10.137   6.333 132.868  0.00  0.00    -0.386 OA
ATOM     43  H   LIG A   1     -10.730   6.173 133.627  0.00  0.00    +0.210 HD
ENDBRANCH  36  42
BRANCH  35  44
ATOM     44  O   LIG A   1     -11.171   3.565 130.878  0.00  0.00    -0.383 OA
ATOM     45  H   LIG A   1     -11.793   3.506 131.628  0.00  0.00    +0.210 HD
ENDBRANCH  35  44
BRANCH  38  46
ATOM     46  C   LIG A   1     -10.565   7.334 128.124  0.00  0.00    +0.190 C 
BRANCH  46  47
ATOM     47  O   LIG A   1      -9.817   8.414 128.689  0.00  0.00    -0.392 OA
ATOM     48  H   LIG A   1      -9.716   9.065 127.967  0.00  0.00    +0.209 HD
ENDBRANCH  46  47
ENDBRANCH  38  46
ENDBRANCH  33  34
ENDBRANCH  31  33
ENDBRANCH  19  31
BRANCH  16  49
ATOM     49  C   LIG A   1      -3.898   3.382 133.279  0.00  0.00    +0.316 C 
ATOM     50  O   LIG A   1      -4.037   3.998 134.338  0.00  0.00    -0.250 OA
BRANCH  49  51
ATOM     51  O   LIG A   1      -2.648   3.032 132.914  0.00  0.00    -0.480 OA
ATOM     52  H   LIG A   1      -2.521   2.146 133.316  0.00  0.00    +0.295 HD
ENDBRANCH  49  51
ENDBRANCH  16  49
TORSDOF 11
ENDMDL
MODEL 3
REMARK VINA RESULT:      -9.0      4.231      8.020
REMARK  Name = NuBBE_317
REMARK  17 active torsions:
REMARK  status: ('A' for Active; 'I' for Inactive)
REMARK    1  A    between atoms: O_1  and  C_2
REMARK    2  A    between atoms: C_6  and  C_57
REMARK    3  A    between atoms: C_8  and  C_9
REMARK    4  A    between atoms: C_8  and  C_10
REMARK    5  A    between atoms: C_14  and  C_56
REMARK    6  A    between atoms: C_20  and  C_53
REMARK    7  A    between atoms: C_23  and  C_34
REMARK    8  A    between atoms: C_26  and  C_33
REMARK    9  A    between atoms: C_28  and  C_32
REMARK   10  A    between atoms: C_34  and  O_35
REMARK   11  A    between atoms: O_35  and  C_36
REMARK   12  A    between atoms: C_38  and  O_51
REMARK   13  A    between atoms: C_40  and  O_50
REMARK   14  A    between atoms: C_42  and  O_49
REMARK   15  A    between atoms: C_44  and  C_47
REMARK   16  A    between atoms: C_47  and  O_48
REMARK   17  A    between atoms: C_53  and  O_54
REMARK                            x       y       z     vdW  Elec       q    Type
REMARK                         _______ _______ _______ _____ _____    ______ ____
ROOT
ATOM      1  C   LIG A   1      -7.863  -3.163 123.969  0.00  0.00    +0.120 C 
ATOM      2  C   LIG A   1      -9.038  -2.211 123.730  0.00  0.00    +0.032 C 
ATOM      3  C   LIG A   1      -9.034  -1.019 124.698  0.00  0.00    +0.010 C 
ATOM      4  C   LIG A   1      -7.699  -0.196 124.721  0.00  0.00    -0.025 C 
ATOM      5  C   LIG A   1      -6.532  -1.229 124.947  0.00  0.00    +0.003 C 
ATOM      6  C   LIG A   1      -6.481  -2.447 123.948  0.00  0.00    -0.006 C 
ATOM      7  C   LIG A   1      -5.386  -3.451 124.403  0.00  0.00    +0.014 C 
ATOM      8  C   LIG A   1      -6.116  -2.061 122.502  0.00  0.00    +0.014 C 
ATOM      9  C   LIG A   1      -5.183  -0.538 125.170  0.00  0.00    +0.005 C 
ATOM     10  C   LIG A   1      -5.229   0.461 126.330  0.00  0.00    +0.009 C 
ATOM     11  C   LIG A   1      -6.289   1.595 126.200  0.00  0.00    -0.009 C 
ATOM     12  C   LIG A   1      -7.688   0.896 125.907  0.00  0.00    +0.006 C 
ATOM     13  C   LIG A   1      -8.281   0.254 127.180  0.00  0.00    +0.031 C 
ATOM     14  C   LIG A   1      -8.085   0.967 128.458  0.00  0.00    -0.026 C 
ATOM     15  C   LIG A   1      -7.262   2.001 128.671  0.00  0.00    -0.052 C 
ATOM     16  C   LIG A   1      -6.347   2.536 127.554  0.00  0.00    +0.094 C 
ATOM     17  C   LIG A   1      -4.915   2.671 128.175  0.00  0.00    +0.024 C 
ATOM     18  C   LIG A   1      -4.807   3.338 129.550  0.00  0.00    +0.020 C 
ATOM     19  C   LIG A   1      -5.802   2.827 130.630  0.00  0.00    +0.075 C 
ATOM     20  C   LIG A   1      -7.230   2.760 130.013  0.00  0.00    +0.036 C 
ATOM     21  C   LIG A   1      -8.340   2.380 131.063  0.00  0.00    -0.003 C 
ATOM     22  C   LIG A   1      -7.986   2.879 132.490  0.00  0.00    -0.011 C 
ATOM     23  C   LIG A   1      -7.162   4.159 132.415  0.00  0.00    +0.004 C 
ATOM     24  C   LIG A   1      -5.794   3.899 131.775  0.00  0.00    +0.019 C 
ATOM     25  C   LIG A   1      -9.187   3.037 133.421  0.00  0.00    +0.008 C 
ATOM     26  C   LIG A   1      -9.718   2.891 130.588  0.00  0.00    +0.008 C 
ATOM     27  C   LIG A   1      -5.819   2.486 125.009  0.00  0.00    +0.013 C 
ATOM     28  C   LIG A   1      -7.633   0.570 123.376  0.00  0.00    +0.012 C 
ENDROOT
BRANCH   1  29
ATOM     29  O   LIG A   1      -8.092  -3.794 125.234  0.00  0.00    -0.391 OA
ATOM     30  H   LIG A   1      -7.362  -4.416 125.395  0.00  0.00    +0.210 HD
ENDBRANCH   1  29
BRANCH  19  31
ATOM     31  C   LIG A   1      -5.340   1.416 131.121  0.00  0.00    +0.316 C 
ATOM     32  O   LIG A   1      -4.663   1.219 132.128  0.00  0.00    -0.250 OA
BRANCH  31  33
ATOM     33  O   LIG A   1      -5.783   0.404 130.332  0.00  0.00    -0.432 OA
BRANCH  33  34
ATOM     34  C   LIG A   1      -4.840  -0.469 129.676  0.00  0.00    +0.342 C 
ATOM     35  C   LIG A   1      -3.818  -1.220 130.557  0.00  0.00    +0.214 C 
ATOM     36  C   LIG A   1      -4.526  -2.077 131.617  0.00  0.00    +0.180 C 
ATOM     37  C   LIG A   1      -6.004  -2.324 131.273  0.00  0.00    +0.177 C 
ATOM     38  C   LIG A   1      -6.202  -2.496 129.760  0.00  0.00    +0.179 C 
ATOM     39  O   LIG A   1      -5.580  -1.474 128.943  0.00  0.00    -0.331 OA
BRANCH  37  40
ATOM     40  O   LIG A   1      -6.483  -3.467 131.988  0.00  0.00    -0.387 OA
ATOM     41  H   LIG A   1      -6.408  -3.241 132.935  0.00  0.00    +0.210 HD
ENDBRANCH  37  40
BRANCH  36  42
ATOM     42  O   LIG A   1      -4.493  -1.444 132.907  0.00  0.00    -0.386 OA
ATOM     43  H   LIG A   1      -4.187  -2.109 133.554  0.00  0.00    +0.210 HD
ENDBRANCH  36  42
BRANCH  35  44
ATOM     44  O   LIG A   1      -3.013  -2.094 129.732  0.00  0.00    -0.383 OA
ATOM     45  H   LIG A   1      -2.946  -2.956 130.186  0.00  0.00    +0.210 HD
ENDBRANCH  35  44
BRANCH  38  46
ATOM     46  C   LIG A   1      -7.690  -2.505 129.394  0.00  0.00    +0.190 C 
BRANCH  46  47
ATOM     47  O   LIG A   1      -7.871  -3.141 128.126  0.00  0.00    -0.392 OA
ATOM     48  H   LIG A   1      -8.576  -2.633 127.680  0.00  0.00    +0.209 HD
ENDBRANCH  46  47
ENDBRANCH  38  46
ENDBRANCH  33  34
ENDBRANCH  31  33
ENDBRANCH  19  31
BRANCH  16  49
ATOM     49  C   LIG A   1      -6.917   3.944 127.205  0.00  0.00    +0.316 C 
ATOM     50  O   LIG A   1      -6.288   4.999 127.088  0.00  0.00    -0.250 OA
BRANCH  49  51
ATOM     51  O   LIG A   1      -8.250   3.980 127.008  0.00  0.00    -0.480 OA
ATOM     52  H   LIG A   1      -8.619   4.162 127.899  0.00  0.00    +0.295 HD
ENDBRANCH  49  51
ENDBRANCH  16  49
TORSDOF 11
ENDMDL
MODEL 4
REMARK VINA RESULT:      -9.0      4.318      7.988
REMARK  Name = NuBBE_317
REMARK  17 active torsions:
REMARK  status: ('A' for Active; 'I' for Inactive)
REMARK    1  A    between atoms: O_1  and  C_2
REMARK    2  A    between atoms: C_6  and  C_57
REMARK    3  A    between atoms: C_8  and  C_9
REMARK    4  A    between atoms: C_8  and  C_10
REMARK    5  A    between atoms: C_14  and  C_56
REMARK    6  A    between atoms: C_20  and  C_53
REMARK    7  A    between atoms: C_23  and  C_34
REMARK    8  A    between atoms: C_26  and  C_33
REMARK    9  A    between atoms: C_28  and  C_32
REMARK   10  A    between atoms: C_34  and  O_35
REMARK   11  A    between atoms: O_35  and  C_36
REMARK   12  A    between atoms: C_38  and  O_51
REMARK   13  A    between atoms: C_40  and  O_50
REMARK   14  A    between atoms: C_42  and  O_49
REMARK   15  A    between atoms: C_44  and  C_47
REMARK   16  A    between atoms: C_47  and  O_48
REMARK   17  A    between atoms: C_53  and  O_54
REMARK                            x       y       z     vdW  Elec       q    Type
REMARK                         _______ _______ _______ _____ _____    ______ ____
ROOT
ATOM      1  C   LIG A   1      -8.861  -1.805 123.576  0.00  0.00    +0.120 C 
ATOM      2  C   LIG A   1      -9.356  -0.377 123.328  0.00  0.00    +0.032 C 
ATOM      3  C   LIG A   1      -9.033   0.568 124.496  0.00  0.00    +0.010 C 
ATOM      4  C   LIG A   1      -7.519   0.609 124.907  0.00  0.00    -0.025 C 
ATOM      5  C   LIG A   1      -7.066  -0.883 125.126  0.00  0.00    +0.003 C 
ATOM      6  C   LIG A   1      -7.347  -1.875 123.933  0.00  0.00    -0.006 C 
ATOM      7  C   LIG A   1      -6.999  -3.326 124.366  0.00  0.00    +0.014 C 
ATOM      8  C   LIG A   1      -6.502  -1.602 122.674  0.00  0.00    +0.014 C 
ATOM      9  C   LIG A   1      -5.653  -0.980 125.707  0.00  0.00    +0.005 C 
ATOM     10  C   LIG A   1      -5.509  -0.194 127.014  0.00  0.00    +0.009 C 
ATOM     11  C   LIG A   1      -5.848   1.325 126.926  0.00  0.00    -0.009 C 
ATOM     12  C   LIG A   1      -7.290   1.445 126.267  0.00  0.00    +0.006 C 
ATOM     13  C   LIG A   1      -8.407   1.080 127.269  0.00  0.00    +0.031 C 
ATOM     14  C   LIG A   1      -8.221   1.489 128.675  0.00  0.00    -0.026 C 
ATOM     15  C   LIG A   1      -7.091   1.952 129.224  0.00  0.00    -0.052 C 
ATOM     16  C   LIG A   1      -5.789   2.051 128.407  0.00  0.00    +0.094 C 
ATOM     17  C   LIG A   1      -4.663   1.400 129.279  0.00  0.00    +0.024 C 
ATOM     18  C   LIG A   1      -4.597   1.805 130.756  0.00  0.00    +0.020 C 
ATOM     19  C   LIG A   1      -5.946   1.770 131.527  0.00  0.00    +0.075 C 
ATOM     20  C   LIG A   1      -7.039   2.477 130.673  0.00  0.00    +0.036 C 
ATOM     21  C   LIG A   1      -8.416   2.614 131.422  0.00  0.00    -0.003 C 
ATOM     22  C   LIG A   1      -8.233   2.747 132.958  0.00  0.00    -0.011 C 
ATOM     23  C   LIG A   1      -6.916   3.447 133.277  0.00  0.00    +0.004 C 
ATOM     24  C   LIG A   1      -5.718   2.594 132.843  0.00  0.00    +0.019 C 
ATOM     25  C   LIG A   1      -9.407   3.405 133.681  0.00  0.00    +0.008 C 
ATOM     26  C   LIG A   1      -9.231   3.783 130.825  0.00  0.00    +0.008 C 
ATOM     27  C   LIG A   1      -4.740   1.959 126.030  0.00  0.00    +0.013 C 
ATOM     28  C   LIG A   1      -6.775   1.351 123.769  0.00  0.00    +0.012 C 
ENDROOT
BRANCH   1  29
ATOM     29  O   LIG A   1      -9.661  -2.341 124.636  0.00  0.00    -0.391 OA
ATOM     30  H   LIG A   1      -9.164  -3.070 125.047  0.00  0.00    +0.210 HD
ENDBRANCH   1  29
BRANCH  19  31
ATOM     31  C   LIG A   1      -6.333   0.281 131.807  0.00  0.00    +0.316 C 
ATOM     32  O   LIG A   1      -7.403  -0.078 132.296  0.00  0.00    -0.250 OA
BRANCH  31  33
ATOM     33  O   LIG A   1      -5.371  -0.601 131.432  0.00  0.00    -0.432 OA
BRANCH  33  34
ATOM     34  C   LIG A   1      -4.638  -1.341 132.431  0.00  0.00    +0.342 C 
ATOM     35  C   LIG A   1      -5.419  -2.350 133.300  0.00  0.00    +0.214 C 
ATOM     36  C   LIG A   1      -6.129  -3.398 132.429  0.00  0.00    +0.180 C 
ATOM     37  C   LIG A   1      -5.551  -3.458 131.006  0.00  0.00    +0.177 C 
ATOM     38  C   LIG A   1      -4.032  -3.236 131.012  0.00  0.00    +0.179 C 
ATOM     39  O   LIG A   1      -3.587  -2.083 131.769  0.00  0.00    -0.331 OA
BRANCH  37  40
ATOM     40  O   LIG A   1      -5.885  -4.711 130.401  0.00  0.00    -0.387 OA
ATOM     41  H   LIG A   1      -5.193  -5.339 130.686  0.00  0.00    +0.210 HD
ENDBRANCH  37  40
BRANCH  36  42
ATOM     42  O   LIG A   1      -7.531  -3.108 132.304  0.00  0.00    -0.386 OA
ATOM     43  H   LIG A   1      -8.014  -3.736 132.875  0.00  0.00    +0.210 HD
ENDBRANCH  36  42
BRANCH  35  44
ATOM     44  O   LIG A   1      -4.507  -3.040 134.185  0.00  0.00    -0.383 OA
ATOM     45  H   LIG A   1      -3.709  -3.271 133.672  0.00  0.00    +0.210 HD
ENDBRANCH  35  44
BRANCH  38  46
ATOM     46  C   LIG A   1      -3.492  -3.061 129.589  0.00  0.00    +0.190 C 
BRANCH  46  47
ATOM     47  O   LIG A   1      -2.320  -2.243 129.615  0.00  0.00    -0.392 OA
ATOM     48  H   LIG A   1      -2.416  -1.628 128.861  0.00  0.00    +0.209 HD
ENDBRANCH  46  47
ENDBRANCH  38  46
ENDBRANCH  33  34
ENDBRANCH  31  33
ENDBRANCH  19  31
BRANCH  16  49
ATOM     49  C   LIG A   1      -5.529   3.579 128.246  0.00  0.00    +0.316 C 
ATOM     50  O   LIG A   1      -6.336   4.443 127.891  0.00  0.00    -0.250 OA
BRANCH  49  51
ATOM     51  O   LIG A   1      -4.274   3.972 128.540  0.00  0.00    -0.480 OA
ATOM     52  H   LIG A   1      -3.830   3.150 128.839  0.00  0.00    +0.295 HD
ENDBRANCH  49  51
ENDBRANCH  16  49
TORSDOF 11
ENDMDL
MODEL 5
REMARK VINA RESULT:      -9.0      3.587      6.119
REMARK  Name = NuBBE_317
REMARK  17 active torsions:
REMARK  status: ('A' for Active; 'I' for Inactive)
REMARK    1  A    between atoms: O_1  and  C_2
REMARK    2  A    between atoms: C_6  and  C_57
REMARK    3  A    between atoms: C_8  and  C_9
REMARK    4  A    between atoms: C_8  and  C_10
REMARK    5  A    between atoms: C_14  and  C_56
REMARK    6  A    between atoms: C_20  and  C_53
REMARK    7  A    between atoms: C_23  and  C_34
REMARK    8  A    between atoms: C_26  and  C_33
REMARK    9  A    between atoms: C_28  and  C_32
REMARK   10  A    between atoms: C_34  and  O_35
REMARK   11  A    between atoms: O_35  and  C_36
REMARK   12  A    between atoms: C_38  and  O_51
REMARK   13  A    between atoms: C_40  and  O_50
REMARK   14  A    between atoms: C_42  and  O_49
REMARK   15  A    between atoms: C_44  and  C_47
REMARK   16  A    between atoms: C_47  and  O_48
REMARK   17  A    between atoms: C_53  and  O_54
REMARK                            x       y       z     vdW  Elec       q    Type
REMARK                         _______ _______ _______ _____ _____    ______ ____
ROOT
ATOM      1  C   LIG A   1      -9.582   5.063 132.836  0.00  0.00    +0.120 C 
ATOM      2  C   LIG A   1      -9.429   3.779 133.658  0.00  0.00    +0.032 C 
ATOM      3  C   LIG A   1      -8.862   2.617 132.830  0.00  0.00    +0.010 C 
ATOM      4  C   LIG A   1      -7.508   2.929 132.101  0.00  0.00    -0.025 C 
ATOM      5  C   LIG A   1      -7.722   4.264 131.295  0.00  0.00    +0.003 C 
ATOM      6  C   LIG A   1      -8.268   5.491 132.120  0.00  0.00    -0.006 C 
ATOM      7  C   LIG A   1      -8.580   6.671 131.158  0.00  0.00    +0.014 C 
ATOM      8  C   LIG A   1      -7.270   6.051 133.152  0.00  0.00    +0.014 C 
ATOM      9  C   LIG A   1      -6.531   4.591 130.390  0.00  0.00    +0.005 C 
ATOM     10  C   LIG A   1      -6.205   3.446 129.426  0.00  0.00    +0.009 C 
ATOM     11  C   LIG A   1      -5.888   2.075 130.094  0.00  0.00    -0.009 C 
ATOM     12  C   LIG A   1      -7.089   1.749 131.085  0.00  0.00    +0.006 C 
ATOM     13  C   LIG A   1      -8.346   1.280 130.321  0.00  0.00    +0.031 C 
ATOM     14  C   LIG A   1      -8.144   0.430 129.131  0.00  0.00    -0.026 C 
ATOM     15  C   LIG A   1      -6.980   0.199 128.511  0.00  0.00    -0.052 C 
ATOM     16  C   LIG A   1      -5.680   0.882 128.972  0.00  0.00    +0.094 C 
ATOM     17  C   LIG A   1      -5.002   1.468 127.687  0.00  0.00    +0.024 C 
ATOM     18  C   LIG A   1      -4.916   0.553 126.461  0.00  0.00    +0.020 C 
ATOM     19  C   LIG A   1      -6.230  -0.183 126.073  0.00  0.00    +0.075 C 
ATOM     20  C   LIG A   1      -6.856  -0.812 127.353  0.00  0.00    +0.036 C 
ATOM     21  C   LIG A   1      -8.123  -1.696 127.050  0.00  0.00    -0.003 C 
ATOM     22  C   LIG A   1      -8.047  -2.363 125.650  0.00  0.00    -0.011 C 
ATOM     23  C   LIG A   1      -6.596  -2.640 125.273  0.00  0.00    +0.004 C 
ATOM     24  C   LIG A   1      -5.812  -1.335 125.093  0.00  0.00    +0.019 C 
ATOM     25  C   LIG A   1      -8.916  -3.610 125.496  0.00  0.00    +0.008 C 
ATOM     26  C   LIG A   1      -8.333  -2.727 128.181  0.00  0.00    +0.008 C 
ATOM     27  C   LIG A   1      -4.539   2.269 130.853  0.00  0.00    +0.013 C 
ATOM     28  C   LIG A   1      -6.423   3.006 133.204  0.00  0.00    +0.012 C 
ENDROOT
BRANCH   1  29
ATOM     29  O   LIG A   1     -10.626   4.824 131.886  0.00  0.00    -0.391 OA
ATOM     30  H   LIG A   1     -10.286   5.051 131.004  0.00  0.00    +0.210 HD
ENDBRANCH   1  29
BRANCH  19  31
ATOM     31  C   LIG A   1      -7.212   0.841 125.417  0.00  0.00    +0.316 C 
ATOM     32  O   LIG A   1      -8.206   0.529 124.764  0.00  0.00    -0.250 OA
BRANCH  31  33
ATOM     33  O   LIG A   1      -6.876   2.134 125.658  0.00  0.00    -0.432 OA
BRANCH  33  34
ATOM     34  C   LIG A   1      -7.843   3.185 125.450  0.00  0.00    +0.342 C 
ATOM     35  C   LIG A   1      -7.447   4.621 125.857  0.00  0.00    +0.214 C 
ATOM     36  C   LIG A   1      -6.168   5.069 125.132  0.00  0.00    +0.180 C 
ATOM     37  C   LIG A   1      -5.863   4.200 123.902  0.00  0.00    +0.177 C 
ATOM     38  C   LIG A   1      -7.154   3.780 123.182  0.00  0.00    +0.179 C 
ATOM     39  O   LIG A   1      -8.179   3.225 124.043  0.00  0.00    -0.331 OA
BRANCH  37  40
ATOM     40  O   LIG A   1      -4.987   4.905 123.017  0.00  0.00    -0.387 OA
ATOM     41  H   LIG A   1      -4.336   5.356 123.588  0.00  0.00    +0.210 HD
ENDBRANCH  37  40
BRANCH  36  42
ATOM     42  O   LIG A   1      -5.024   4.991 125.998  0.00  0.00    -0.386 OA
ATOM     43  H   LIG A   1      -4.227   4.979 125.433  0.00  0.00    +0.210 HD
ENDBRANCH  36  42
BRANCH  35  44
ATOM     44  O   LIG A   1      -8.510   5.537 125.508  0.00  0.00    -0.383 OA
ATOM     45  H   LIG A   1      -8.263   5.977 124.672  0.00  0.00    +0.210 HD
ENDBRANCH  35  44
BRANCH  38  46
ATOM     46  C   LIG A   1      -6.870   2.729 122.104  0.00  0.00    +0.190 C 
BRANCH  46  47
ATOM     47  O   LIG A   1      -6.248   3.350 120.977  0.00  0.00    -0.392 OA
ATOM     48  H   LIG A   1      -6.708   4.204 120.864  0.00  0.00    +0.209 HD
ENDBRANCH  46  47
ENDBRANCH  38  46
ENDBRANCH  33  34
ENDBRANCH  31  33
ENDBRANCH  19  31
BRANCH  16  49
ATOM     49  C   LIG A   1      -4.808  -0.266 129.565  0.00  0.00    +0.316 C 
ATOM     50  O   LIG A   1      -5.198  -1.257 130.187  0.00  0.00    -0.250 OA
BRANCH  49  51
ATOM     51  O   LIG A   1      -3.483  -0.137 129.350  0.00  0.00    -0.480 OA
ATOM     52  H   LIG A   1      -3.425   0.422 128.546  0.00  0.00    +0.295 HD
ENDBRANCH  49  51
ENDBRANCH  16  49
TORSDOF 11
ENDMDL
MODEL 6
REMARK VINA RESULT:      -8.9      4.151      7.811
REMARK  Name = NuBBE_317
REMARK  17 active torsions:
REMARK  status: ('A' for Active; 'I' for Inactive)
REMARK    1  A    between atoms: O_1  and  C_2
REMARK    2  A    between atoms: C_6  and  C_57
REMARK    3  A    between atoms: C_8  and  C_9
REMARK    4  A    between atoms: C_8  and  C_10
REMARK    5  A    between atoms: C_14  and  C_56
REMARK    6  A    between atoms: C_20  and  C_53
REMARK    7  A    between atoms: C_23  and  C_34
REMARK    8  A    between atoms: C_26  and  C_33
REMARK    9  A    between atoms: C_28  and  C_32
REMARK   10  A    between atoms: C_34  and  O_35
REMARK   11  A    between atoms: O_35  and  C_36
REMARK   12  A    between atoms: C_38  and  O_51
REMARK   13  A    between atoms: C_40  and  O_50
REMARK   14  A    between atoms: C_42  and  O_49
REMARK   15  A    between atoms: C_44  and  C_47
REMARK   16  A    between atoms: C_47  and  O_48
REMARK   17  A    between atoms: C_53  and  O_54
REMARK                            x       y       z     vdW  Elec       q    Type
REMARK                         _______ _______ _______ _____ _____    ______ ____
ROOT
ATOM      1  C   LIG A   1      -8.925  -1.716 123.697  0.00  0.00    +0.120 C 
ATOM      2  C   LIG A   1      -9.377  -0.279 123.420  0.00  0.00    +0.032 C 
ATOM      3  C   LIG A   1      -9.056   0.671 124.584  0.00  0.00    +0.010 C 
ATOM      4  C   LIG A   1      -7.552   0.679 125.029  0.00  0.00    -0.025 C 
ATOM      5  C   LIG A   1      -7.143  -0.822 125.277  0.00  0.00    +0.003 C 
ATOM      6  C   LIG A   1      -7.423  -1.821 124.090  0.00  0.00    -0.006 C 
ATOM      7  C   LIG A   1      -7.122  -3.275 124.548  0.00  0.00    +0.014 C 
ATOM      8  C   LIG A   1      -6.542  -1.586 122.847  0.00  0.00    +0.014 C 
ATOM      9  C   LIG A   1      -5.746  -0.947 125.891  0.00  0.00    +0.005 C 
ATOM     10  C   LIG A   1      -5.612  -0.148 127.192  0.00  0.00    +0.009 C 
ATOM     11  C   LIG A   1      -5.908   1.377 127.077  0.00  0.00    -0.009 C 
ATOM     12  C   LIG A   1      -7.332   1.526 126.384  0.00  0.00    +0.006 C 
ATOM     13  C   LIG A   1      -8.480   1.202 127.364  0.00  0.00    +0.031 C 
ATOM     14  C   LIG A   1      -8.316   1.624 128.769  0.00  0.00    -0.026 C 
ATOM     15  C   LIG A   1      -7.187   2.065 129.338  0.00  0.00    -0.052 C 
ATOM     16  C   LIG A   1      -5.865   2.121 128.551  0.00  0.00    +0.094 C 
ATOM     17  C   LIG A   1      -4.776   1.452 129.456  0.00  0.00    +0.024 C 
ATOM     18  C   LIG A   1      -4.733   1.874 130.929  0.00  0.00    +0.020 C 
ATOM     19  C   LIG A   1      -6.100   1.883 131.669  0.00  0.00    +0.075 C 
ATOM     20  C   LIG A   1      -7.154   2.607 130.781  0.00  0.00    +0.036 C 
ATOM     21  C   LIG A   1      -8.544   2.790 131.497  0.00  0.00    -0.003 C 
ATOM     22  C   LIG A   1      -8.392   2.937 133.035  0.00  0.00    -0.011 C 
ATOM     23  C   LIG A   1      -7.065   3.607 133.375  0.00  0.00    +0.004 C 
ATOM     24  C   LIG A   1      -5.881   2.718 132.980  0.00  0.00    +0.019 C 
ATOM     25  C   LIG A   1      -9.566   3.634 133.722  0.00  0.00    +0.008 C 
ATOM     26  C   LIG A   1      -9.315   3.972 130.867  0.00  0.00    +0.008 C 
ATOM     27  C   LIG A   1      -4.765   1.971 126.199  0.00  0.00    +0.013 C 
ATOM     28  C   LIG A   1      -6.762   1.386 123.899  0.00  0.00    +0.012 C 
ENDROOT
BRANCH   1  29
ATOM     29  O   LIG A   1      -9.763  -2.218 124.745  0.00  0.00    -0.391 OA
ATOM     30  H   LIG A   1     -10.657  -2.339 124.382  0.00  0.00    +0.210 HD
ENDBRANCH   1  29
BRANCH  19  31
ATOM     31  C   LIG A   1      -6.532   0.409 131.958  0.00  0.00    +0.316 C 
ATOM     32  O   LIG A   1      -7.344   0.079 132.821  0.00  0.00    -0.250 OA
BRANCH  31  33
ATOM     33  O   LIG A   1      -5.936  -0.494 131.137  0.00  0.00    -0.432 OA
BRANCH  33  34
ATOM     34  C   LIG A   1      -6.635  -1.696 130.753  0.00  0.00    +0.342 C 
ATOM     35  C   LIG A   1      -6.038  -2.543 129.608  0.00  0.00    +0.214 C 
ATOM     36  C   LIG A   1      -4.597  -2.971 129.930  0.00  0.00    +0.180 C 
ATOM     37  C   LIG A   1      -4.275  -2.846 131.427  0.00  0.00    +0.177 C 
ATOM     38  C   LIG A   1      -5.491  -3.211 132.292  0.00  0.00    +0.179 C 
ATOM     39  O   LIG A   1      -6.728  -2.561 131.910  0.00  0.00    -0.331 OA
BRANCH  37  40
ATOM     40  O   LIG A   1      -3.149  -3.668 131.750  0.00  0.00    -0.387 OA
ATOM     41  H   LIG A   1      -3.085  -3.662 132.725  0.00  0.00    +0.210 HD
ENDBRANCH  37  40
BRANCH  36  42
ATOM     42  O   LIG A   1      -3.643  -2.163 129.223  0.00  0.00    -0.386 OA
ATOM     43  H   LIG A   1      -2.753  -2.509 129.428  0.00  0.00    +0.210 HD
ENDBRANCH  36  42
BRANCH  35  44
ATOM     44  O   LIG A   1      -6.833  -3.736 129.419  0.00  0.00    -0.383 OA
ATOM     45  H   LIG A   1      -6.454  -4.233 128.669  0.00  0.00    +0.210 HD
ENDBRANCH  35  44
BRANCH  38  46
ATOM     46  C   LIG A   1      -5.248  -2.862 133.764  0.00  0.00    +0.190 C 
BRANCH  46  47
ATOM     47  O   LIG A   1      -6.425  -2.272 134.320  0.00  0.00    -0.392 OA
ATOM     48  H   LIG A   1      -7.082  -2.993 134.363  0.00  0.00    +0.209 HD
ENDBRANCH  46  47
ENDBRANCH  38  46
ENDBRANCH  33  34
ENDBRANCH  31  33
ENDBRANCH  19  31
BRANCH  16  49
ATOM     49  C   LIG A   1      -5.562   3.639 128.376  0.00  0.00    +0.316 C 
ATOM     50  O   LIG A   1      -6.342   4.522 128.010  0.00  0.00    -0.250 OA
BRANCH  49  51
ATOM     51  O   LIG A   1      -4.297   4.000 128.673  0.00  0.00    -0.480 OA
ATOM     52  H   LIG A   1      -4.384   4.916 129.015  0.00  0.00    +0.295 HD
ENDBRANCH  49  51
ENDBRANCH  16  49
TORSDOF 11
ENDMDL
MODEL 7
REMARK VINA RESULT:      -8.7      2.544      7.526
REMARK  Name = NuBBE_317
REMARK  17 active torsions:
REMARK  status: ('A' for Active; 'I' for Inactive)
REMARK    1  A    between atoms: O_1  and  C_2
REMARK    2  A    between atoms: C_6  and  C_57
REMARK    3  A    between atoms: C_8  and  C_9
REMARK    4  A    between atoms: C_8  and  C_10
REMARK    5  A    between atoms: C_14  and  C_56
REMARK    6  A    between atoms: C_20  and  C_53
REMARK    7  A    between atoms: C_23  and  C_34
REMARK    8  A    between atoms: C_26  and  C_33
REMARK    9  A    between atoms: C_28  and  C_32
REMARK   10  A    between atoms: C_34  and  O_35
REMARK   11  A    between atoms: O_35  and  C_36
REMARK   12  A    between atoms: C_38  and  O_51
REMARK   13  A    between atoms: C_40  and  O_50
REMARK   14  A    between atoms: C_42  and  O_49
REMARK   15  A    between atoms: C_44  and  C_47
REMARK   16  A    between atoms: C_47  and  O_48
REMARK   17  A    between atoms: C_53  and  O_54
REMARK                            x       y       z     vdW  Elec       q    Type
REMARK                         _______ _______ _______ _____ _____    ______ ____
ROOT
ATOM      1  C   LIG A   1      -6.016  -3.826 130.772  0.00  0.00    +0.120 C 
ATOM      2  C   LIG A   1      -7.159  -3.737 129.756  0.00  0.00    +0.032 C 
ATOM      3  C   LIG A   1      -7.613  -2.290 129.510  0.00  0.00    +0.010 C 
ATOM      4  C   LIG A   1      -6.467  -1.306 129.086  0.00  0.00    -0.025 C 
ATOM      5  C   LIG A   1      -5.318  -1.459 130.152  0.00  0.00    +0.003 C 
ATOM      6  C   LIG A   1      -4.800  -2.926 130.405  0.00  0.00    -0.006 C 
ATOM      7  C   LIG A   1      -3.795  -2.929 131.591  0.00  0.00    +0.014 C 
ATOM      8  C   LIG A   1      -4.038  -3.539 129.214  0.00  0.00    +0.014 C 
ATOM      9  C   LIG A   1      -4.209  -0.422 129.960  0.00  0.00    +0.005 C 
ATOM     10  C   LIG A   1      -4.748   1.012 129.977  0.00  0.00    +0.009 C 
ATOM     11  C   LIG A   1      -5.840   1.332 128.912  0.00  0.00    -0.009 C 
ATOM     12  C   LIG A   1      -6.973   0.225 129.057  0.00  0.00    +0.006 C 
ATOM     13  C   LIG A   1      -7.861   0.478 130.295  0.00  0.00    +0.031 C 
ATOM     14  C   LIG A   1      -8.177   1.881 130.632  0.00  0.00    -0.026 C 
ATOM     15  C   LIG A   1      -7.600   2.970 130.111  0.00  0.00    -0.052 C 
ATOM     16  C   LIG A   1      -6.446   2.856 129.098  0.00  0.00    +0.094 C 
ATOM     17  C   LIG A   1      -5.319   3.825 129.591  0.00  0.00    +0.024 C 
ATOM     18  C   LIG A   1      -5.743   5.236 130.015  0.00  0.00    +0.020 C 
ATOM     19  C   LIG A   1      -6.962   5.315 130.976  0.00  0.00    +0.075 C 
ATOM     20  C   LIG A   1      -8.095   4.394 130.435  0.00  0.00    +0.036 C 
ATOM     21  C   LIG A   1      -9.429   4.504 131.265  0.00  0.00    -0.003 C 
ATOM     22  C   LIG A   1      -9.618   5.918 131.879  0.00  0.00    -0.011 C 
ATOM     23  C   LIG A   1      -8.976   6.974 130.986  0.00  0.00    +0.004 C 
ATOM     24  C   LIG A   1      -7.454   6.804 130.934  0.00  0.00    +0.019 C 
ATOM     25  C   LIG A   1     -11.064   6.271 132.219  0.00  0.00    +0.008 C 
ATOM     26  C   LIG A   1     -10.632   4.077 130.395  0.00  0.00    +0.008 C 
ATOM     27  C   LIG A   1      -5.124   1.259 127.529  0.00  0.00    +0.013 C 
ATOM     28  C   LIG A   1      -6.066  -1.695 127.641  0.00  0.00    +0.012 C 
ENDROOT
BRANCH   1  29
ATOM     29  O   LIG A   1      -6.561  -3.454 132.042  0.00  0.00    -0.391 OA
ATOM     30  H   LIG A   1      -6.398  -2.504 132.171  0.00  0.00    +0.210 HD
ENDBRANCH   1  29
BRANCH  19  31
ATOM     31  C   LIG A   1      -6.514   4.867 132.405  0.00  0.00    +0.316 C 
ATOM     32  O   LIG A   1      -7.117   4.049 133.098  0.00  0.00    -0.250 OA
BRANCH  31  33
ATOM     33  O   LIG A   1      -5.360   5.457 132.813  0.00  0.00    -0.432 OA
BRANCH  33  34
ATOM     34  C   LIG A   1      -4.833   5.184 134.128  0.00  0.00    +0.342 C 
ATOM     35  C   LIG A   1      -3.981   3.909 134.314  0.00  0.00    +0.214 C 
ATOM     36  C   LIG A   1      -2.775   3.906 133.361  0.00  0.00    +0.180 C 
ATOM     37  C   LIG A   1      -2.470   5.306 132.806  0.00  0.00    +0.177 C 
ATOM     38  C   LIG A   1      -2.726   6.393 133.861  0.00  0.00    +0.179 C 
ATOM     39  O   LIG A   1      -4.008   6.302 134.531  0.00  0.00    -0.331 OA
BRANCH  37  40
ATOM     40  O   LIG A   1      -1.120   5.356 132.334  0.00  0.00    -0.387 OA
ATOM     41  H   LIG A   1      -0.558   5.375 133.132  0.00  0.00    +0.210 HD
ENDBRANCH  37  40
BRANCH  36  42
ATOM     42  O   LIG A   1      -3.003   3.045 132.234  0.00  0.00    -0.386 OA
ATOM     43  H   LIG A   1      -2.708   3.521 131.434  0.00  0.00    +0.210 HD
ENDBRANCH  36  42
BRANCH  35  44
ATOM     44  O   LIG A   1      -3.486   3.847 135.671  0.00  0.00    -0.383 OA
ATOM     45  H   LIG A   1      -4.067   3.245 136.174  0.00  0.00    +0.210 HD
ENDBRANCH  35  44
BRANCH  38  46
ATOM     46  C   LIG A   1      -2.652   7.793 133.243  0.00  0.00    +0.190 C 
BRANCH  46  47
ATOM     47  O   LIG A   1      -3.216   7.771 131.930  0.00  0.00    -0.392 OA
ATOM     48  H   LIG A   1      -2.468   7.938 131.324  0.00  0.00    +0.209 HD
ENDBRANCH  46  47
ENDBRANCH  38  46
ENDBRANCH  33  34
ENDBRANCH  31  33
ENDBRANCH  19  31
BRANCH  16  49
ATOM     49  C   LIG A   1      -7.041   3.365 127.750  0.00  0.00    +0.316 C 
ATOM     50  O   LIG A   1      -6.526   4.154 126.954  0.00  0.00    -0.250 OA
BRANCH  49  51
ATOM     51  O   LIG A   1      -8.253   2.861 127.442  0.00  0.00    -0.480 OA
ATOM     52  H   LIG A   1      -8.283   2.890 126.462  0.00  0.00    +0.295 HD
ENDBRANCH  49  51
ENDBRANCH  16  49
TORSDOF 11
ENDMDL
MODEL 8
REMARK VINA RESULT:      -8.6      4.448      9.400
REMARK  Name = NuBBE_317
REMARK  17 active torsions:
REMARK  status: ('A' for Active; 'I' for Inactive)
REMARK    1  A    between atoms: O_1  and  C_2
REMARK    2  A    between atoms: C_6  and  C_57
REMARK    3  A    between atoms: C_8  and  C_9
REMARK    4  A    between atoms: C_8  and  C_10
REMARK    5  A    between atoms: C_14  and  C_56
REMARK    6  A    between atoms: C_20  and  C_53
REMARK    7  A    between atoms: C_23  and  C_34
REMARK    8  A    between atoms: C_26  and  C_33
REMARK    9  A    between atoms: C_28  and  C_32
REMARK   10  A    between atoms: C_34  and  O_35
REMARK   11  A    between atoms: O_35  and  C_36
REMARK   12  A    between atoms: C_38  and  O_51
REMARK   13  A    between atoms: C_40  and  O_50
REMARK   14  A    between atoms: C_42  and  O_49
REMARK   15  A    between atoms: C_44  and  C_47
REMARK   16  A    between atoms: C_47  and  O_48
REMARK   17  A    between atoms: C_53  and  O_54
REMARK                            x       y       z     vdW  Elec       q    Type
REMARK                         _______ _______ _______ _____ _____    ______ ____
ROOT
ATOM      1  C   LIG A   1      -3.984  -4.214 133.475  0.00  0.00    +0.120 C 
ATOM      2  C   LIG A   1      -3.761  -2.910 134.247  0.00  0.00    +0.032 C 
ATOM      3  C   LIG A   1      -4.126  -1.668 133.420  0.00  0.00    +0.010 C 
ATOM      4  C   LIG A   1      -5.579  -1.677 132.828  0.00  0.00    -0.025 C 
ATOM      5  C   LIG A   1      -5.752  -3.045 132.068  0.00  0.00    +0.003 C 
ATOM      6  C   LIG A   1      -5.423  -4.345 132.897  0.00  0.00    -0.006 C 
ATOM      7  C   LIG A   1      -5.481  -5.588 131.966  0.00  0.00    +0.014 C 
ATOM      8  C   LIG A   1      -6.418  -4.634 134.038  0.00  0.00    +0.014 C 
ATOM      9  C   LIG A   1      -7.068  -3.111 131.288  0.00  0.00    +0.005 C 
ATOM     10  C   LIG A   1      -7.217  -1.945 130.305  0.00  0.00    +0.009 C 
ATOM     11  C   LIG A   1      -7.149  -0.522 130.935  0.00  0.00    -0.009 C 
ATOM     12  C   LIG A   1      -5.816  -0.458 131.800  0.00  0.00    +0.006 C 
ATOM     13  C   LIG A   1      -4.564  -0.310 130.908  0.00  0.00    +0.031 C 
ATOM     14  C   LIG A   1      -4.682   0.535 129.703  0.00  0.00    -0.026 C 
ATOM     15  C   LIG A   1      -5.816   1.013 129.178  0.00  0.00    -0.052 C 
ATOM     16  C   LIG A   1      -7.187   0.659 129.782  0.00  0.00    +0.094 C 
ATOM     17  C   LIG A   1      -8.101   0.215 128.590  0.00  0.00    +0.024 C 
ATOM     18  C   LIG A   1      -8.094   1.095 127.336  0.00  0.00    +0.020 C 
ATOM     19  C   LIG A   1      -6.692   1.499 126.801  0.00  0.00    +0.075 C 
ATOM     20  C   LIG A   1      -5.819   1.997 127.991  0.00  0.00    +0.036 C 
ATOM     21  C   LIG A   1      -4.419   2.558 127.537  0.00  0.00    -0.003 C 
ATOM     22  C   LIG A   1      -4.476   3.190 126.121  0.00  0.00    -0.011 C 
ATOM     23  C   LIG A   1      -5.856   3.785 125.861  0.00  0.00    +0.004 C 
ATOM     24  C   LIG A   1      -6.928   2.692 125.811  0.00  0.00    +0.019 C 
ATOM     25  C   LIG A   1      -3.366   4.199 125.834  0.00  0.00    +0.008 C 
ATOM     26  C   LIG A   1      -3.872   3.540 128.598  0.00  0.00    +0.008 C 
ATOM     27  C   LIG A   1      -8.427  -0.382 131.818  0.00  0.00    +0.013 C 
ATOM     28  C   LIG A   1      -6.542  -1.476 134.026  0.00  0.00    +0.012 C 
ENDROOT
BRANCH   1  29
ATOM     29  O   LIG A   1      -3.009  -4.245 132.426  0.00  0.00    -0.391 OA
ATOM     30  H   LIG A   1      -3.449  -3.981 131.600  0.00  0.00    +0.210 HD
ENDBRANCH   1  29
BRANCH  19  31
ATOM     31  C   LIG A   1      -6.035   0.261 126.108  0.00  0.00    +0.316 C 
ATOM     32  O   LIG A   1      -4.960  -0.235 126.443  0.00  0.00    -0.250 OA
BRANCH  31  33
ATOM     33  O   LIG A   1      -6.785  -0.246 125.096  0.00  0.00    -0.432 OA
BRANCH  33  34
ATOM     34  C   LIG A   1      -6.292  -1.352 124.312  0.00  0.00    +0.342 C 
ATOM     35  C   LIG A   1      -6.278  -2.751 124.965  0.00  0.00    +0.214 C 
ATOM     36  C   LIG A   1      -7.684  -3.155 125.437  0.00  0.00    +0.180 C 
ATOM     37  C   LIG A   1      -8.784  -2.314 124.771  0.00  0.00    +0.177 C 
ATOM     38  C   LIG A   1      -8.430  -1.986 123.313  0.00  0.00    +0.179 C 
ATOM     39  O   LIG A   1      -7.096  -1.457 123.113  0.00  0.00    -0.331 OA
BRANCH  37  40
ATOM     40  O   LIG A   1     -10.036  -3.001 124.854  0.00  0.00    -0.387 OA
ATOM     41  H   LIG A   1     -10.639  -2.401 125.335  0.00  0.00    +0.210 HD
ENDBRANCH  37  40
BRANCH  36  42
ATOM     42  O   LIG A   1      -7.825  -2.990 126.857  0.00  0.00    -0.386 OA
ATOM     43  H   LIG A   1      -8.486  -2.286 127.007  0.00  0.00    +0.210 HD
ENDBRANCH  36  42
BRANCH  35  44
ATOM     44  O   LIG A   1      -5.822  -3.732 124.006  0.00  0.00    -0.383 OA
ATOM     45  H   LIG A   1      -6.599  -4.047 123.507  0.00  0.00    +0.210 HD
ENDBRANCH  35  44
BRANCH  38  46
ATOM     46  C   LIG A   1      -9.402  -0.958 122.725  0.00  0.00    +0.190 C 
BRANCH  46  47
ATOM     47  O   LIG A   1      -9.773  -0.014 123.732  0.00  0.00    -0.392 OA
ATOM     48  H   LIG A   1      -9.001   0.577 123.831  0.00  0.00    +0.209 HD
ENDBRANCH  46  47
ENDBRANCH  38  46
ENDBRANCH  33  34
ENDBRANCH  31  33
ENDBRANCH  19  31
BRANCH  16  49
ATOM     49  C   LIG A   1      -7.714   1.991 130.397  0.00  0.00    +0.316 C 
ATOM     50  O   LIG A   1      -7.100   2.774 131.126  0.00  0.00    -0.250 OA
BRANCH  49  51
ATOM     51  O   LIG A   1      -8.986   2.299 130.071  0.00  0.00    -0.480 OA
ATOM     52  H   LIG A   1      -9.175   1.736 129.290  0.00  0.00    +0.295 HD
ENDBRANCH  49  51
ENDBRANCH  16  49
TORSDOF 11
ENDMDL
MODEL 9
REMARK VINA RESULT:      -8.5      3.779      6.543
REMARK  Name = NuBBE_317
REMARK  17 active torsions:
REMARK  status: ('A' for Active; 'I' for Inactive)
REMARK    1  A    between atoms: O_1  and  C_2
REMARK    2  A    between atoms: C_6  and  C_57
REMARK    3  A    between atoms: C_8  and  C_9
REMARK    4  A    between atoms: C_8  and  C_10
REMARK    5  A    between atoms: C_14  and  C_56
REMARK    6  A    between atoms: C_20  and  C_53
REMARK    7  A    between atoms: C_23  and  C_34
REMARK    8  A    between atoms: C_26  and  C_33
REMARK    9  A    between atoms: C_28  and  C_32
REMARK   10  A    between atoms: C_34  and  O_35
REMARK   11  A    between atoms: O_35  and  C_36
REMARK   12  A    between atoms: C_38  and  O_51
REMARK   13  A    between atoms: C_40  and  O_50
REMARK   14  A    between atoms: C_42  and  O_49
REMARK   15  A    between atoms: C_44  and  C_47
REMARK   16  A    between atoms: C_47  and  O_48
REMARK   17  A    between atoms: C_53  and  O_54
REMARK                            x       y       z     vdW  Elec       q    Type
REMARK                         _______ _______ _______ _____ _____    ______ ____
ROOT
ATOM      1  C   LIG A   1     -10.434   6.174 131.738  0.00  0.00    +0.120 C 
ATOM      2  C   LIG A   1      -9.300   6.144 132.766  0.00  0.00    +0.032 C 
ATOM      3  C   LIG A   1      -8.291   5.018 132.496  0.00  0.00    +0.010 C 
ATOM      4  C   LIG A   1      -7.679   5.018 131.051  0.00  0.00    -0.025 C 
ATOM      5  C   LIG A   1      -8.889   5.071 130.044  0.00  0.00    +0.003 C 
ATOM      6  C   LIG A   1      -9.926   6.237 130.268  0.00  0.00    -0.006 C 
ATOM      7  C   LIG A   1     -11.135   6.053 129.308  0.00  0.00    +0.014 C 
ATOM      8  C   LIG A   1      -9.368   7.642 129.969  0.00  0.00    +0.014 C 
ATOM      9  C   LIG A   1      -8.440   4.895 128.591  0.00  0.00    +0.005 C 
ATOM     10  C   LIG A   1      -7.644   3.603 128.383  0.00  0.00    +0.009 C 
ATOM     11  C   LIG A   1      -6.365   3.453 129.260  0.00  0.00    -0.009 C 
ATOM     12  C   LIG A   1      -6.804   3.693 130.771  0.00  0.00    +0.006 C 
ATOM     13  C   LIG A   1      -7.551   2.472 131.348  0.00  0.00    +0.031 C 
ATOM     14  C   LIG A   1      -7.088   1.132 130.938  0.00  0.00    -0.026 C 
ATOM     15  C   LIG A   1      -6.228   0.859 129.949  0.00  0.00    -0.052 C 
ATOM     16  C   LIG A   1      -5.655   1.976 129.058  0.00  0.00    +0.094 C 
ATOM     17  C   LIG A   1      -5.825   1.499 127.576  0.00  0.00    +0.024 C 
ATOM     18  C   LIG A   1      -5.408   0.061 127.251  0.00  0.00    +0.020 C 
ATOM     19  C   LIG A   1      -5.941  -1.032 128.219  0.00  0.00    +0.075 C 
ATOM     20  C   LIG A   1      -5.706  -0.568 129.687  0.00  0.00    +0.036 C 
ATOM     21  C   LIG A   1      -6.089  -1.664 130.751  0.00  0.00    -0.003 C 
ATOM     22  C   LIG A   1      -5.880  -3.103 130.205  0.00  0.00    -0.011 C 
ATOM     23  C   LIG A   1      -4.734  -3.128 129.201  0.00  0.00    +0.004 C 
ATOM     24  C   LIG A   1      -5.078  -2.314 127.949  0.00  0.00    +0.019 C 
ATOM     25  C   LIG A   1      -5.705  -4.169 131.285  0.00  0.00    +0.008 C 
ATOM     26  C   LIG A   1      -5.319  -1.418 132.067  0.00  0.00    +0.008 C 
ATOM     27  C   LIG A   1      -5.371   4.544 128.759  0.00  0.00    +0.013 C 
ATOM     28  C   LIG A   1      -6.724   6.236 130.979  0.00  0.00    +0.012 C 
ENDROOT
BRANCH   1  29
ATOM     29  O   LIG A   1     -11.221   4.997 131.956  0.00  0.00    -0.391 OA
ATOM     30  H   LIG A   1     -11.091   4.716 132.877  0.00  0.00    +0.210 HD
ENDBRANCH   1  29
BRANCH  19  31
ATOM     31  C   LIG A   1      -7.463  -1.260 127.943  0.00  0.00    +0.316 C 
ATOM     32  O   LIG A   1      -8.328  -1.303 128.816  0.00  0.00    -0.250 OA
BRANCH  31  33
ATOM     33  O   LIG A   1      -7.754  -1.385 126.623  0.00  0.00    -0.432 OA
BRANCH  33  34
ATOM     34  C   LIG A   1      -8.988  -0.851 126.099  0.00  0.00    +0.342 C 
ATOM     35  C   LIG A   1      -8.903   0.356 125.140  0.00  0.00    +0.214 C 
ATOM     36  C   LIG A   1      -8.026   0.031 123.920  0.00  0.00    +0.180 C 
ATOM     37  C   LIG A   1      -7.830  -1.481 123.731  0.00  0.00    +0.177 C 
ATOM     38  C   LIG A   1      -9.100  -2.259 124.106  0.00  0.00    +0.179 C 
ATOM     39  O   LIG A   1      -9.676  -1.906 125.387  0.00  0.00    -0.331 OA
BRANCH  37  40
ATOM     40  O   LIG A   1      -7.438  -1.754 122.383  0.00  0.00    -0.387 OA
ATOM     41  H   LIG A   1      -8.182  -1.457 121.823  0.00  0.00    +0.210 HD
ENDBRANCH  37  40
BRANCH  36  42
ATOM     42  O   LIG A   1      -6.719   0.615 124.047  0.00  0.00    -0.386 OA
ATOM     43  H   LIG A   1      -6.397   0.423 124.948  0.00  0.00    +0.210 HD
ENDBRANCH  36  42
BRANCH  35  44
ATOM     44  O   LIG A   1     -10.226   0.699 124.669  0.00  0.00    -0.383 OA
ATOM     45  H   LIG A   1     -10.490   1.534 125.099  0.00  0.00    +0.210 HD
ENDBRANCH  35  44
BRANCH  38  46
ATOM     46  C   LIG A   1      -8.834  -3.768 124.146  0.00  0.00    +0.190 C 
BRANCH  46  47
ATOM     47  O   LIG A   1      -7.440  -4.005 124.357  0.00  0.00    -0.392 OA
ATOM     48  H   LIG A   1      -7.396  -4.684 125.059  0.00  0.00    +0.209 HD
ENDBRANCH  46  47
ENDBRANCH  38  46
ENDBRANCH  33  34
ENDBRANCH  31  33
ENDBRANCH  19  31
BRANCH  16  49
ATOM     49  C   LIG A   1      -4.143   2.054 129.428  0.00  0.00    +0.316 C 
ATOM     50  O   LIG A   1      -3.651   2.120 130.558  0.00  0.00    -0.250 OA
BRANCH  49  51
ATOM     51  O   LIG A   1      -3.302   2.037 128.375  0.00  0.00    -0.480 OA
ATOM     52  H   LIG A   1      -3.692   1.372 127.768  0.00  0.00    +0.295 HD
ENDBRANCH  49  51
ENDBRANCH  16  49
TORSDOF 11
ENDMDL
