MODEL 1
REMARK VINA RESULT:      -7.3      0.000      0.000
REMARK  Name = NuBBE_2348
REMARK  7 active torsions:
REMARK  status: ('A' for Active; 'I' for Inactive)
REMARK    1  A    between atoms: C_1  and  O_2
REMARK    2  A    between atoms: O_2  and  C_3
REMARK    3  A    between atoms: C_10  and  C_11
REMARK    4  A    between atoms: C_16  and  O_17
REMARK    5  A    between atoms: C_18  and  O_19
REMARK    6  A    between atoms: O_19  and  C_20
REMARK    7  A    between atoms: C_23  and  C_25
REMARK                            x       y       z     vdW  Elec       q    Type
REMARK                         _______ _______ _______ _____ _____    ______ ____
ROOT
ATOM      1  C   LIG A   1      -6.434  -1.879 127.925  0.00  0.00    +0.211 C 
ATOM      2  O   LIG A   1      -5.132  -2.489 128.148  0.00  0.00    -0.483 OA
ATOM      3  C   LIG A   1      -5.193  -2.924 129.444  0.00  0.00    +0.129 A 
ATOM      4  C   LIG A   1      -4.094  -3.368 130.148  0.00  0.00    +0.095 A 
ATOM      5  C   LIG A   1      -4.292  -3.811 131.458  0.00  0.00    +0.162 A 
ATOM      6  C   LIG A   1      -5.578  -3.808 132.037  0.00  0.00    +0.162 A 
ATOM      7  C   LIG A   1      -6.672  -3.334 131.292  0.00  0.00    +0.057 A 
ATOM      8  C   LIG A   1      -6.464  -2.912 129.988  0.00  0.00    +0.005 A 
ATOM      9  C   LIG A   1      -7.442  -2.476 128.948  0.00  0.00    +0.065 C 
ATOM     10  C   LIG A   1      -8.263  -3.666 128.459  0.00  0.00    +0.016 C 
ENDROOT
BRANCH   1  18
ATOM     11  C   LIG A   1      -6.231  -2.542 124.128  0.00  0.00    +0.166 A 
ATOM     12  C   LIG A   1      -7.453  -2.025 123.742  0.00  0.00    +0.207 A 
ATOM     13  O   LIG A   1      -7.964  -1.944 122.482  0.00  0.00    -0.449 OA
ATOM     14  C   LIG A   1      -9.235  -1.315 122.721  0.00  0.00    +0.467 C 
ATOM     15  O   LIG A   1      -9.477  -1.034 124.110  0.00  0.00    -0.453 OA
ATOM     16  C   LIG A   1      -8.328  -1.501 124.671  0.00  0.00    +0.170 A 
ATOM     17  C   LIG A   1      -8.042  -1.455 126.022  0.00  0.00    +0.057 A 
ATOM     18  C   LIG A   1      -6.807  -1.957 126.457  0.00  0.00    +0.000 A 
ATOM     19  C   LIG A   1      -5.919  -2.504 125.498  0.00  0.00    +0.057 A 
BRANCH  11  21
ATOM     20  C   LIG A   1      -4.556  -4.209 123.866  0.00  0.00    +0.277 C 
ATOM     21  O   LIG A   1      -5.263  -3.093 123.336  0.00  0.00    -0.491 OA
ENDBRANCH  11  21
ENDBRANCH   1  18
BRANCH   5  22
ATOM     22  O   LIG A   1      -3.199  -4.233 132.166  0.00  0.00    -0.503 OA
ATOM     23  H   LIG A   1      -2.579  -4.668 131.559  0.00  0.00    +0.292 HD
ENDBRANCH   5  22
BRANCH   6  24
ATOM     24  O   LIG A   1      -5.902  -4.196 133.312  0.00  0.00    -0.491 OA
ATOM     25  C   LIG A   1      -7.151  -3.730 133.812  0.00  0.00    +0.277 C 
ENDBRANCH   6  24
TORSDOF 4
ENDMDL
MODEL 2
REMARK VINA RESULT:      -7.1      1.730      2.027
REMARK  Name = NuBBE_2348
REMARK  7 active torsions:
REMARK  status: ('A' for Active; 'I' for Inactive)
REMARK    1  A    between atoms: C_1  and  O_2
REMARK    2  A    between atoms: O_2  and  C_3
REMARK    3  A    between atoms: C_10  and  C_11
REMARK    4  A    between atoms: C_16  and  O_17
REMARK    5  A    between atoms: C_18  and  O_19
REMARK    6  A    between atoms: O_19  and  C_20
REMARK    7  A    between atoms: C_23  and  C_25
REMARK                            x       y       z     vdW  Elec       q    Type
REMARK                         _______ _______ _______ _____ _____    ______ ____
ROOT
ATOM      1  C   LIG A   1      -7.282  -1.074 127.642  0.00  0.00    +0.211 C 
ATOM      2  O   LIG A   1      -5.838  -1.251 127.621  0.00  0.00    -0.483 OA
ATOM      3  C   LIG A   1      -5.611  -2.194 128.586  0.00  0.00    +0.129 A 
ATOM      4  C   LIG A   1      -4.356  -2.506 129.062  0.00  0.00    +0.095 A 
ATOM      5  C   LIG A   1      -4.253  -3.508 130.029  0.00  0.00    +0.162 A 
ATOM      6  C   LIG A   1      -5.401  -4.181 130.499  0.00  0.00    +0.162 A 
ATOM      7  C   LIG A   1      -6.665  -3.825 130.000  0.00  0.00    +0.057 A 
ATOM      8  C   LIG A   1      -6.751  -2.840 129.028  0.00  0.00    +0.005 A 
ATOM      9  C   LIG A   1      -7.928  -2.350 128.252  0.00  0.00    +0.065 C 
ATOM     10  C   LIG A   1      -8.385  -3.411 127.253  0.00  0.00    +0.016 C 
ENDROOT
BRANCH   1  18
ATOM     11  C   LIG A   1      -7.418  -0.369 123.849  0.00  0.00    +0.166 A 
ATOM     12  C   LIG A   1      -8.645   0.261 123.780  0.00  0.00    +0.207 A 
ATOM     13  O   LIG A   1      -9.255   0.783 122.678  0.00  0.00    -0.449 OA
ATOM     14  C   LIG A   1     -10.475   1.302 123.236  0.00  0.00    +0.467 C 
ATOM     15  O   LIG A   1     -10.591   1.082 124.652  0.00  0.00    -0.453 OA
ATOM     16  C   LIG A   1      -9.419   0.437 124.909  0.00  0.00    +0.170 A 
ATOM     17  C   LIG A   1      -9.022   0.004 126.160  0.00  0.00    +0.057 A 
ATOM     18  C   LIG A   1      -7.777  -0.630 126.278  0.00  0.00    +0.000 A 
ATOM     19  C   LIG A   1      -6.994  -0.816 125.112  0.00  0.00    +0.057 A 
BRANCH  11  21
ATOM     20  C   LIG A   1      -6.321  -1.983 122.491  0.00  0.00    +0.277 C 
ATOM     21  O   LIG A   1      -6.542  -0.619 122.830  0.00  0.00    -0.491 OA
ENDBRANCH  11  21
ENDBRANCH   1  18
BRANCH   5  22
ATOM     22  O   LIG A   1      -3.010  -3.805 130.520  0.00  0.00    -0.503 OA
ATOM     23  H   LIG A   1      -2.375  -3.149 130.187  0.00  0.00    +0.292 HD
ENDBRANCH   5  22
BRANCH   6  24
ATOM     24  O   LIG A   1      -5.438  -5.164 131.454  0.00  0.00    -0.491 OA
ATOM     25  C   LIG A   1      -5.621  -4.727 132.797  0.00  0.00    +0.277 C 
ENDBRANCH   6  24
TORSDOF 4
ENDMDL
MODEL 3
REMARK VINA RESULT:      -6.9      5.060      8.464
REMARK  Name = NuBBE_2348
REMARK  7 active torsions:
REMARK  status: ('A' for Active; 'I' for Inactive)
REMARK    1  A    between atoms: C_1  and  O_2
REMARK    2  A    between atoms: O_2  and  C_3
REMARK    3  A    between atoms: C_10  and  C_11
REMARK    4  A    between atoms: C_16  and  O_17
REMARK    5  A    between atoms: C_18  and  O_19
REMARK    6  A    between atoms: O_19  and  C_20
REMARK    7  A    between atoms: C_23  and  C_25
REMARK                            x       y       z     vdW  Elec       q    Type
REMARK                         _______ _______ _______ _____ _____    ______ ____
ROOT
ATOM      1  C   LIG A   1      -6.096   2.277 125.066  0.00  0.00    +0.211 C 
ATOM      2  O   LIG A   1      -7.449   2.738 124.793  0.00  0.00    -0.483 OA
ATOM      3  C   LIG A   1      -8.073   1.634 124.280  0.00  0.00    +0.129 A 
ATOM      4  C   LIG A   1      -9.311   1.673 123.677  0.00  0.00    +0.095 A 
ATOM      5  C   LIG A   1      -9.854   0.470 123.218  0.00  0.00    +0.162 A 
ATOM      6  C   LIG A   1      -9.156  -0.746 123.375  0.00  0.00    +0.162 A 
ATOM      7  C   LIG A   1      -7.889  -0.743 123.983  0.00  0.00    +0.057 A 
ATOM      8  C   LIG A   1      -7.369   0.455 124.448  0.00  0.00    +0.005 A 
ATOM      9  C   LIG A   1      -6.122   0.731 125.221  0.00  0.00    +0.065 C 
ATOM     10  C   LIG A   1      -6.255   0.205 126.648  0.00  0.00    +0.016 C 
ENDROOT
BRANCH   1  18
ATOM     11  C   LIG A   1      -3.503   3.887 127.429  0.00  0.00    +0.166 A 
ATOM     12  C   LIG A   1      -4.360   4.482 128.334  0.00  0.00    +0.207 A 
ATOM     13  O   LIG A   1      -4.034   5.198 129.447  0.00  0.00    -0.449 OA
ATOM     14  C   LIG A   1      -5.330   5.536 129.968  0.00  0.00    +0.467 C 
ATOM     15  O   LIG A   1      -6.414   5.033 129.169  0.00  0.00    -0.453 OA
ATOM     16  C   LIG A   1      -5.729   4.392 128.182  0.00  0.00    +0.170 A 
ATOM     17  C   LIG A   1      -6.320   3.709 127.136  0.00  0.00    +0.057 A 
ATOM     18  C   LIG A   1      -5.487   3.079 126.200  0.00  0.00    +0.000 A 
ATOM     19  C   LIG A   1      -4.082   3.186 126.358  0.00  0.00    +0.057 A 
BRANCH  11  21
ATOM     20  C   LIG A   1      -1.486   2.971 126.567  0.00  0.00    +0.277 C 
ATOM     21  O   LIG A   1      -2.136   3.887 127.440  0.00  0.00    -0.491 OA
ENDBRANCH  11  21
ENDBRANCH   1  18
BRANCH   5  22
ATOM     22  O   LIG A   1     -11.074   0.509 122.599  0.00  0.00    -0.503 OA
ATOM     23  H   LIG A   1     -11.768   0.593 123.274  0.00  0.00    +0.292 HD
ENDBRANCH   5  22
BRANCH   6  24
ATOM     24  O   LIG A   1      -9.566  -1.985 122.954  0.00  0.00    -0.491 OA
ATOM     25  C   LIG A   1      -9.245  -3.076 123.810  0.00  0.00    +0.277 C 
ENDBRANCH   6  24
TORSDOF 4
ENDMDL
MODEL 4
REMARK VINA RESULT:      -6.8      1.061      2.464
REMARK  Name = NuBBE_2348
REMARK  7 active torsions:
REMARK  status: ('A' for Active; 'I' for Inactive)
REMARK    1  A    between atoms: C_1  and  O_2
REMARK    2  A    between atoms: O_2  and  C_3
REMARK    3  A    between atoms: C_10  and  C_11
REMARK    4  A    between atoms: C_16  and  O_17
REMARK    5  A    between atoms: C_18  and  O_19
REMARK    6  A    between atoms: O_19  and  C_20
REMARK    7  A    between atoms: C_23  and  C_25
REMARK                            x       y       z     vdW  Elec       q    Type
REMARK                         _______ _______ _______ _____ _____    ______ ____
ROOT
ATOM      1  C   LIG A   1      -6.669  -1.523 128.445  0.00  0.00    +0.211 C 
ATOM      2  O   LIG A   1      -5.296  -1.979 128.603  0.00  0.00    -0.483 OA
ATOM      3  C   LIG A   1      -5.312  -2.658 129.791  0.00  0.00    +0.129 A 
ATOM      4  C   LIG A   1      -4.172  -3.073 130.443  0.00  0.00    +0.095 A 
ATOM      5  C   LIG A   1      -4.322  -3.783 131.637  0.00  0.00    +0.162 A 
ATOM      6  C   LIG A   1      -5.604  -4.068 132.153  0.00  0.00    +0.162 A 
ATOM      7  C   LIG A   1      -6.744  -3.616 131.466  0.00  0.00    +0.057 A 
ATOM      8  C   LIG A   1      -6.580  -2.926 130.274  0.00  0.00    +0.005 A 
ATOM      9  C   LIG A   1      -7.595  -2.438 129.294  0.00  0.00    +0.065 C 
ATOM     10  C   LIG A   1      -8.230  -3.615 128.557  0.00  0.00    +0.016 C 
ENDROOT
BRANCH   1  18
ATOM     11  C   LIG A   1      -8.565  -0.660 125.196  0.00  0.00    +0.166 A 
ATOM     12  C   LIG A   1      -7.667  -1.157 124.271  0.00  0.00    +0.207 A 
ATOM     13  O   LIG A   1      -7.789  -1.173 122.913  0.00  0.00    -0.449 OA
ATOM     14  C   LIG A   1      -6.566  -1.817 122.517  0.00  0.00    +0.467 C 
ATOM     15  O   LIG A   1      -5.725  -2.172 123.626  0.00  0.00    -0.453 OA
ATOM     16  C   LIG A   1      -6.479  -1.732 124.672  0.00  0.00    +0.170 A 
ATOM     17  C   LIG A   1      -6.118  -1.849 126.000  0.00  0.00    +0.057 A 
ATOM     18  C   LIG A   1      -7.005  -1.368 126.974  0.00  0.00    +0.000 A 
ATOM     19  C   LIG A   1      -8.218  -0.769 126.553  0.00  0.00    +0.057 A 
BRANCH  11  21
ATOM     20  C   LIG A   1      -9.754   1.319 124.628  0.00  0.00    +0.277 C 
ATOM     21  O   LIG A   1      -9.772  -0.064 124.960  0.00  0.00    -0.491 OA
ENDBRANCH  11  21
ENDBRANCH   1  18
BRANCH   5  22
ATOM     22  O   LIG A   1      -3.191  -4.177 132.299  0.00  0.00    -0.503 OA
ATOM     23  H   LIG A   1      -2.681  -4.772 131.724  0.00  0.00    +0.292 HD
ENDBRANCH   5  22
BRANCH   6  24
ATOM     24  O   LIG A   1      -5.887  -4.735 133.317  0.00  0.00    -0.491 OA
ATOM     25  C   LIG A   1      -6.442  -3.952 134.370  0.00  0.00    +0.277 C 
ENDBRANCH   6  24
TORSDOF 4
ENDMDL
MODEL 5
REMARK VINA RESULT:      -6.8      2.088      7.925
REMARK  Name = NuBBE_2348
REMARK  7 active torsions:
REMARK  status: ('A' for Active; 'I' for Inactive)
REMARK    1  A    between atoms: C_1  and  O_2
REMARK    2  A    between atoms: O_2  and  C_3
REMARK    3  A    between atoms: C_10  and  C_11
REMARK    4  A    between atoms: C_16  and  O_17
REMARK    5  A    between atoms: C_18  and  O_19
REMARK    6  A    between atoms: O_19  and  C_20
REMARK    7  A    between atoms: C_23  and  C_25
REMARK                            x       y       z     vdW  Elec       q    Type
REMARK                         _______ _______ _______ _____ _____    ______ ____
ROOT
ATOM      1  C   LIG A   1      -7.913  -1.948 128.862  0.00  0.00    +0.211 C 
ATOM      2  O   LIG A   1      -8.451  -3.091 128.139  0.00  0.00    -0.483 OA
ATOM      3  C   LIG A   1      -8.585  -2.632 126.857  0.00  0.00    +0.129 A 
ATOM      4  C   LIG A   1      -9.268  -3.314 125.874  0.00  0.00    +0.095 A 
ATOM      5  C   LIG A   1      -9.309  -2.753 124.596  0.00  0.00    +0.162 A 
ATOM      6  C   LIG A   1      -8.666  -1.527 124.322  0.00  0.00    +0.162 A 
ATOM      7  C   LIG A   1      -7.991  -0.854 125.354  0.00  0.00    +0.057 A 
ATOM      8  C   LIG A   1      -7.944  -1.430 126.614  0.00  0.00    +0.005 A 
ATOM      9  C   LIG A   1      -7.216  -1.002 127.845  0.00  0.00    +0.065 C 
ATOM     10  C   LIG A   1      -5.712  -1.203 127.669  0.00  0.00    +0.016 C 
ENDROOT
BRANCH   1  18
ATOM     11  C   LIG A   1      -5.890  -1.926 132.149  0.00  0.00    +0.166 A 
ATOM     12  C   LIG A   1      -5.515  -3.254 132.193  0.00  0.00    +0.207 A 
ATOM     13  O   LIG A   1      -4.742  -3.873 133.130  0.00  0.00    -0.449 OA
ATOM     14  C   LIG A   1      -4.700  -5.221 132.631  0.00  0.00    +0.467 C 
ATOM     15  O   LIG A   1      -5.446  -5.401 131.416  0.00  0.00    -0.453 OA
ATOM     16  C   LIG A   1      -5.915  -4.139 131.213  0.00  0.00    +0.170 A 
ATOM     17  C   LIG A   1      -6.699  -3.759 130.141  0.00  0.00    +0.057 A 
ATOM     18  C   LIG A   1      -7.094  -2.416 130.050  0.00  0.00    +0.000 A 
ATOM     19  C   LIG A   1      -6.687  -1.517 131.067  0.00  0.00    +0.057 A 
BRANCH  11  21
ATOM     20  C   LIG A   1      -6.558   0.079 133.240  0.00  0.00    +0.277 C 
ATOM     21  O   LIG A   1      -5.579  -0.934 133.037  0.00  0.00    -0.491 OA
ENDBRANCH  11  21
ENDBRANCH   1  18
BRANCH   5  22
ATOM     22  O   LIG A   1     -10.006  -3.418 123.623  0.00  0.00    -0.503 OA
ATOM     23  H   LIG A   1      -9.375  -3.837 123.014  0.00  0.00    +0.292 HD
ENDBRANCH   5  22
BRANCH   6  24
ATOM     24  O   LIG A   1      -8.648  -0.864 123.122  0.00  0.00    -0.491 OA
ATOM     25  C   LIG A   1      -9.467   0.299 123.036  0.00  0.00    +0.277 C 
ENDBRANCH   6  24
TORSDOF 4
ENDMDL
MODEL 6
REMARK VINA RESULT:      -6.7      2.209      7.867
REMARK  Name = NuBBE_2348
REMARK  7 active torsions:
REMARK  status: ('A' for Active; 'I' for Inactive)
REMARK    1  A    between atoms: C_1  and  O_2
REMARK    2  A    between atoms: O_2  and  C_3
REMARK    3  A    between atoms: C_10  and  C_11
REMARK    4  A    between atoms: C_16  and  O_17
REMARK    5  A    between atoms: C_18  and  O_19
REMARK    6  A    between atoms: O_19  and  C_20
REMARK    7  A    between atoms: C_23  and  C_25
REMARK                            x       y       z     vdW  Elec       q    Type
REMARK                         _______ _______ _______ _____ _____    ______ ____
ROOT
ATOM      1  C   LIG A   1      -6.705  -2.111 129.279  0.00  0.00    +0.211 C 
ATOM      2  O   LIG A   1      -7.180  -0.736 129.313  0.00  0.00    -0.483 OA
ATOM      3  C   LIG A   1      -7.757  -0.559 128.085  0.00  0.00    +0.129 A 
ATOM      4  C   LIG A   1      -8.144   0.670 127.598  0.00  0.00    +0.095 A 
ATOM      5  C   LIG A   1      -8.747   0.715 126.339  0.00  0.00    +0.162 A 
ATOM      6  C   LIG A   1      -8.957  -0.465 125.594  0.00  0.00    +0.162 A 
ATOM      7  C   LIG A   1      -8.536  -1.699 126.119  0.00  0.00    +0.057 A 
ATOM      8  C   LIG A   1      -7.952  -1.730 127.376  0.00  0.00    +0.005 A 
ATOM      9  C   LIG A   1      -7.523  -2.890 128.212  0.00  0.00    +0.065 C 
ATOM     10  C   LIG A   1      -8.741  -3.653 128.729  0.00  0.00    +0.016 C 
ENDROOT
BRANCH   1  18
ATOM     11  C   LIG A   1      -5.781  -4.332 132.298  0.00  0.00    +0.166 A 
ATOM     12  C   LIG A   1      -6.649  -3.809 133.237  0.00  0.00    +0.207 A 
ATOM     13  O   LIG A   1      -6.818  -4.207 134.530  0.00  0.00    -0.449 OA
ATOM     14  C   LIG A   1      -7.846  -3.309 134.981  0.00  0.00    +0.467 C 
ATOM     15  O   LIG A   1      -8.277  -2.383 133.969  0.00  0.00    -0.453 OA
ATOM     16  C   LIG A   1      -7.490  -2.761 132.923  0.00  0.00    +0.170 A 
ATOM     17  C   LIG A   1      -7.521  -2.181 131.670  0.00  0.00    +0.057 A 
ATOM     18  C   LIG A   1      -6.665  -2.688 130.682  0.00  0.00    +0.000 A 
ATOM     19  C   LIG A   1      -5.797  -3.757 131.016  0.00  0.00    +0.057 A 
BRANCH  11  21
ATOM     20  C   LIG A   1      -3.764  -5.112 133.284  0.00  0.00    +0.277 C 
ATOM     21  O   LIG A   1      -4.892  -5.359 132.453  0.00  0.00    -0.491 OA
ENDBRANCH  11  21
ENDBRANCH   1  18
BRANCH   5  22
ATOM     22  O   LIG A   1      -9.113   1.938 125.844  0.00  0.00    -0.503 OA
ATOM     23  H   LIG A   1     -10.067   2.060 125.978  0.00  0.00    +0.292 HD
ENDBRANCH   5  22
BRANCH   6  24
ATOM     24  O   LIG A   1      -9.517  -0.555 124.346  0.00  0.00    -0.491 OA
ATOM     25  C   LIG A   1      -8.610  -0.736 123.263  0.00  0.00    +0.277 C 
ENDBRANCH   6  24
TORSDOF 4
ENDMDL
MODEL 7
REMARK VINA RESULT:      -6.7      8.881      9.775
REMARK  Name = NuBBE_2348
REMARK  7 active torsions:
REMARK  status: ('A' for Active; 'I' for Inactive)
REMARK    1  A    between atoms: C_1  and  O_2
REMARK    2  A    between atoms: O_2  and  C_3
REMARK    3  A    between atoms: C_10  and  C_11
REMARK    4  A    between atoms: C_16  and  O_17
REMARK    5  A    between atoms: C_18  and  O_19
REMARK    6  A    between atoms: O_19  and  C_20
REMARK    7  A    between atoms: C_23  and  C_25
REMARK                            x       y       z     vdW  Elec       q    Type
REMARK                         _______ _______ _______ _____ _____    ______ ____
ROOT
ATOM      1  C   LIG A   1      -8.234   5.842 133.258  0.00  0.00    +0.211 C 
ATOM      2  O   LIG A   1      -6.869   6.061 132.808  0.00  0.00    -0.483 OA
ATOM      3  C   LIG A   1      -6.109   5.398 133.732  0.00  0.00    +0.129 A 
ATOM      4  C   LIG A   1      -4.740   5.524 133.821  0.00  0.00    +0.095 A 
ATOM      5  C   LIG A   1      -4.075   4.771 134.792  0.00  0.00    +0.162 A 
ATOM      6  C   LIG A   1      -4.786   3.905 135.649  0.00  0.00    +0.162 A 
ATOM      7  C   LIG A   1      -6.184   3.814 135.537  0.00  0.00    +0.057 A 
ATOM      8  C   LIG A   1      -6.830   4.555 134.559  0.00  0.00    +0.005 A 
ATOM      9  C   LIG A   1      -8.264   4.566 134.146  0.00  0.00    +0.065 C 
ATOM     10  C   LIG A   1      -8.621   3.264 133.432  0.00  0.00    +0.016 C 
ENDROOT
BRANCH   1  18
ATOM     11  C   LIG A   1      -9.624   5.662 129.661  0.00  0.00    +0.166 A 
ATOM     12  C   LIG A   1     -10.924   6.063 129.901  0.00  0.00    +0.207 A 
ATOM     13  O   LIG A   1     -11.928   6.228 128.993  0.00  0.00    -0.449 OA
ATOM     14  C   LIG A   1     -13.013   6.660 129.832  0.00  0.00    +0.467 C 
ATOM     15  O   LIG A   1     -12.659   6.742 131.222  0.00  0.00    -0.453 OA
ATOM     16  C   LIG A   1     -11.353   6.360 131.179  0.00  0.00    +0.170 A 
ATOM     17  C   LIG A   1     -10.523   6.282 132.280  0.00  0.00    +0.057 A 
ATOM     18  C   LIG A   1      -9.191   5.891 132.082  0.00  0.00    +0.000 A 
ATOM     19  C   LIG A   1      -8.762   5.577 130.768  0.00  0.00    +0.057 A 
BRANCH  11  21
ATOM     20  C   LIG A   1      -8.041   4.333 128.488  0.00  0.00    +0.277 C 
ATOM     21  O   LIG A   1      -9.052   5.334 128.464  0.00  0.00    -0.491 OA
ENDBRANCH  11  21
ENDBRANCH   1  18
BRANCH   5  22
ATOM     22  O   LIG A   1      -2.717   4.911 134.897  0.00  0.00    -0.503 OA
ATOM     23  H   LIG A   1      -2.415   5.557 134.237  0.00  0.00    +0.292 HD
ENDBRANCH   5  22
BRANCH   6  24
ATOM     24  O   LIG A   1      -4.258   3.130 136.650  0.00  0.00    -0.491 OA
ATOM     25  C   LIG A   1      -4.760   3.372 137.961  0.00  0.00    +0.277 C 
ENDBRANCH   6  24
TORSDOF 4
ENDMDL
MODEL 8
REMARK VINA RESULT:      -6.7      5.217      8.849
REMARK  Name = NuBBE_2348
REMARK  7 active torsions:
REMARK  status: ('A' for Active; 'I' for Inactive)
REMARK    1  A    between atoms: C_1  and  O_2
REMARK    2  A    between atoms: O_2  and  C_3
REMARK    3  A    between atoms: C_10  and  C_11
REMARK    4  A    between atoms: C_16  and  O_17
REMARK    5  A    between atoms: C_18  and  O_19
REMARK    6  A    between atoms: O_19  and  C_20
REMARK    7  A    between atoms: C_23  and  C_25
REMARK                            x       y       z     vdW  Elec       q    Type
REMARK                         _______ _______ _______ _____ _____    ______ ____
ROOT
ATOM      1  C   LIG A   1      -6.088   2.498 124.959  0.00  0.00    +0.211 C 
ATOM      2  O   LIG A   1      -7.500   2.787 124.759  0.00  0.00    -0.483 OA
ATOM      3  C   LIG A   1      -7.989   1.645 124.185  0.00  0.00    +0.129 A 
ATOM      4  C   LIG A   1      -9.243   1.556 123.621  0.00  0.00    +0.095 A 
ATOM      5  C   LIG A   1      -9.636   0.324 123.091  0.00  0.00    +0.162 A 
ATOM      6  C   LIG A   1      -8.774  -0.792 123.137  0.00  0.00    +0.162 A 
ATOM      7  C   LIG A   1      -7.497  -0.658 123.708  0.00  0.00    +0.057 A 
ATOM      8  C   LIG A   1      -7.126   0.566 124.245  0.00  0.00    +0.005 A 
ATOM      9  C   LIG A   1      -5.899   0.956 125.000  0.00  0.00    +0.065 C 
ATOM     10  C   LIG A   1      -5.905   0.319 126.388  0.00  0.00    +0.016 C 
ENDROOT
BRANCH   1  18
ATOM     11  C   LIG A   1      -5.928   4.544 128.229  0.00  0.00    +0.166 A 
ATOM     12  C   LIG A   1      -4.577   4.835 128.247  0.00  0.00    +0.207 A 
ATOM     13  O   LIG A   1      -3.895   5.574 129.168  0.00  0.00    -0.449 OA
ATOM     14  C   LIG A   1      -2.556   5.527 128.647  0.00  0.00    +0.467 C 
ATOM     15  O   LIG A   1      -2.444   4.761 127.435  0.00  0.00    -0.453 OA
ATOM     16  C   LIG A   1      -3.736   4.372 127.256  0.00  0.00    +0.170 A 
ATOM     17  C   LIG A   1      -4.183   3.605 126.198  0.00  0.00    +0.057 A 
ATOM     18  C   LIG A   1      -5.550   3.296 126.132  0.00  0.00    +0.000 A 
ATOM     19  C   LIG A   1      -6.404   3.766 127.160  0.00  0.00    +0.057 A 
BRANCH  11  21
ATOM     20  C   LIG A   1      -8.051   4.115 129.209  0.00  0.00    +0.277 C 
ATOM     21  O   LIG A   1      -6.883   4.924 129.130  0.00  0.00    -0.491 OA
ENDBRANCH  11  21
ENDBRANCH   1  18
BRANCH   5  22
ATOM     22  O   LIG A   1     -10.872   0.238 122.511  0.00  0.00    -0.503 OA
ATOM     23  H   LIG A   1     -11.319  -0.560 122.839  0.00  0.00    +0.292 HD
ENDBRANCH   5  22
BRANCH   6  24
ATOM     24  O   LIG A   1      -9.029  -2.043 122.638  0.00  0.00    -0.491 OA
ATOM     25  C   LIG A   1      -9.327  -3.053 123.598  0.00  0.00    +0.277 C 
ENDBRANCH   6  24
TORSDOF 4
ENDMDL
MODEL 9
REMARK VINA RESULT:      -6.7      7.193     10.581
REMARK  Name = NuBBE_2348
REMARK  7 active torsions:
REMARK  status: ('A' for Active; 'I' for Inactive)
REMARK    1  A    between atoms: C_1  and  O_2
REMARK    2  A    between atoms: O_2  and  C_3
REMARK    3  A    between atoms: C_10  and  C_11
REMARK    4  A    between atoms: C_16  and  O_17
REMARK    5  A    between atoms: C_18  and  O_19
REMARK    6  A    between atoms: O_19  and  C_20
REMARK    7  A    between atoms: C_23  and  C_25
REMARK                            x       y       z     vdW  Elec       q    Type
REMARK                         _______ _______ _______ _____ _____    ______ ____
ROOT
ATOM      1  C   LIG A   1      -4.475   5.203 127.877  0.00  0.00    +0.211 C 
ATOM      2  O   LIG A   1      -5.872   4.826 128.033  0.00  0.00    -0.483 OA
ATOM      3  C   LIG A   1      -6.235   4.393 126.787  0.00  0.00    +0.129 A 
ATOM      4  C   LIG A   1      -7.539   4.146 126.419  0.00  0.00    +0.095 A 
ATOM      5  C   LIG A   1      -7.777   3.680 125.124  0.00  0.00    +0.162 A 
ATOM      6  C   LIG A   1      -6.711   3.465 124.225  0.00  0.00    +0.162 A 
ATOM      7  C   LIG A   1      -5.395   3.742 124.633  0.00  0.00    +0.057 A 
ATOM      8  C   LIG A   1      -5.172   4.189 125.926  0.00  0.00    +0.005 A 
ATOM      9  C   LIG A   1      -3.893   4.447 126.651  0.00  0.00    +0.065 C 
ATOM     10  C   LIG A   1      -3.180   3.131 126.954  0.00  0.00    +0.016 C 
ENDROOT
BRANCH   1  18
ATOM     11  C   LIG A   1      -3.479   3.961 131.393  0.00  0.00    +0.166 A 
ATOM     12  C   LIG A   1      -2.447   4.840 131.660  0.00  0.00    +0.207 A 
ATOM     13  O   LIG A   1      -1.693   4.923 132.792  0.00  0.00    -0.449 OA
ATOM     14  C   LIG A   1      -0.813   6.016 132.478  0.00  0.00    +0.467 C 
ATOM     15  O   LIG A   1      -1.038   6.570 131.171  0.00  0.00    -0.453 OA
ATOM     16  C   LIG A   1      -2.064   5.789 130.734  0.00  0.00    +0.170 A 
ATOM     17  C   LIG A   1      -2.680   5.921 129.504  0.00  0.00    +0.057 A 
ATOM     18  C   LIG A   1      -3.741   5.057 129.196  0.00  0.00    +0.000 A 
ATOM     19  C   LIG A   1      -4.120   4.079 130.148  0.00  0.00    +0.057 A 
BRANCH  11  21
ATOM     20  C   LIG A   1      -4.024   1.661 131.649  0.00  0.00    +0.277 C 
ATOM     21  O   LIG A   1      -3.971   2.972 132.199  0.00  0.00    -0.491 OA
ENDBRANCH  11  21
ENDBRANCH   1  18
BRANCH   5  22
ATOM     22  O   LIG A   1      -9.074   3.455 124.749  0.00  0.00    -0.503 OA
ATOM     23  H   LIG A   1      -9.358   2.594 125.097  0.00  0.00    +0.292 HD
ENDBRANCH   5  22
BRANCH   6  24
ATOM     24  O   LIG A   1      -6.811   3.031 122.928  0.00  0.00    -0.491 OA
ATOM     25  C   LIG A   1      -6.023   3.732 121.970  0.00  0.00    +0.277 C 
ENDBRANCH   6  24
TORSDOF 4
ENDMDL
