MODEL 1
REMARK VINA RESULT:      -6.4      0.000      0.000
REMARK  Name = NuBBE_298
REMARK  6 active torsions:
REMARK  status: ('A' for Active; 'I' for Inactive)
REMARK    1  A    between atoms: C_1  and  O_2
REMARK    2  A    between atoms: O_2  and  C_3
REMARK    3  A    between atoms: C_4  and  C_5
REMARK    4  A    between atoms: C_6  and  O_7
REMARK    5  A    between atoms: C_11  and  C_12
REMARK    6  A    between atoms: C_12  and  O_13
REMARK                            x       y       z     vdW  Elec       q    Type
REMARK                         _______ _______ _______ _____ _____    ______ ____
ROOT
ATOM      1  C   LIG A   1     -11.094   7.832 129.137  0.00  0.00    +0.130 A 
ATOM      2  C   LIG A   1     -11.868   7.198 130.130  0.00  0.00    +0.034 A 
ATOM      3  C   LIG A   1     -13.372   7.214 130.036  0.00  0.00    +0.051 C 
ATOM      4  C   LIG A   1     -11.208   6.542 131.188  0.00  0.00    +0.138 A 
ATOM      5  C   LIG A   1      -9.807   6.557 131.287  0.00  0.00    +0.106 A 
ATOM      6  C   LIG A   1      -9.065   5.895 132.384  0.00  0.00    +0.196 A 
ATOM      7  C   LIG A   1      -7.601   6.053 132.374  0.00  0.00    +0.095 A 
ATOM      8  C   LIG A   1      -7.003   6.706 131.369  0.00  0.00    +0.135 A 
ATOM      9  O   LIG A   1      -7.688   7.268 130.304  0.00  0.00    -0.457 OA
ATOM     10  C   LIG A   1      -9.063   7.203 130.300  0.00  0.00    +0.146 A 
ATOM     11  C   LIG A   1      -9.698   7.823 129.221  0.00  0.00    +0.093 A 
ATOM     12  O   LIG A   1      -9.576   5.223 133.272  0.00  0.00    -0.287 OA
ENDROOT
BRANCH   1  14
ATOM     13  C   LIG A   1     -11.371   8.002 126.788  0.00  0.00    +0.277 C 
ATOM     14  O   LIG A   1     -11.781   8.396 128.094  0.00  0.00    -0.495 OA
ENDBRANCH   1  14
BRANCH   4  15
ATOM     15  O   LIG A   1     -11.937   5.897 132.150  0.00  0.00    -0.505 OA
ATOM     16  H   LIG A   1     -11.905   6.393 132.982  0.00  0.00    +0.292 HD
ENDBRANCH   4  15
BRANCH   8  17
ATOM     17  C   LIG A   1      -5.510   6.854 131.294  0.00  0.00    +0.230 C 
BRANCH  17  18
ATOM     18  O   LIG A   1      -5.149   7.628 130.158  0.00  0.00    -0.387 OA
ATOM     19  H   LIG A   1      -5.638   7.264 129.399  0.00  0.00    +0.210 HD
ENDBRANCH  17  18
ENDBRANCH   8  17
TORSDOF 4
ENDMDL
MODEL 2
REMARK VINA RESULT:      -6.3      1.229      4.827
REMARK  Name = NuBBE_298
REMARK  6 active torsions:
REMARK  status: ('A' for Active; 'I' for Inactive)
REMARK    1  A    between atoms: C_1  and  O_2
REMARK    2  A    between atoms: O_2  and  C_3
REMARK    3  A    between atoms: C_4  and  C_5
REMARK    4  A    between atoms: C_6  and  O_7
REMARK    5  A    between atoms: C_11  and  C_12
REMARK    6  A    between atoms: C_12  and  O_13
REMARK                            x       y       z     vdW  Elec       q    Type
REMARK                         _______ _______ _______ _____ _____    ______ ____
ROOT
ATOM      1  C   LIG A   1      -7.275   6.340 131.892  0.00  0.00    +0.130 A 
ATOM      2  C   LIG A   1      -8.223   5.774 132.767  0.00  0.00    +0.034 A 
ATOM      3  C   LIG A   1      -7.768   5.099 134.036  0.00  0.00    +0.051 C 
ATOM      4  C   LIG A   1      -9.590   5.868 132.438  0.00  0.00    +0.138 A 
ATOM      5  C   LIG A   1     -10.006   6.470 131.240  0.00  0.00    +0.106 A 
ATOM      6  C   LIG A   1     -11.428   6.584 130.841  0.00  0.00    +0.196 A 
ATOM      7  C   LIG A   1     -11.692   7.191 129.525  0.00  0.00    +0.095 A 
ATOM      8  C   LIG A   1     -10.680   7.670 128.790  0.00  0.00    +0.135 A 
ATOM      9  O   LIG A   1      -9.354   7.627 129.189  0.00  0.00    -0.457 OA
ATOM     10  C   LIG A   1      -9.048   7.012 130.382  0.00  0.00    +0.146 A 
ATOM     11  C   LIG A   1      -7.691   6.965 130.712  0.00  0.00    +0.093 A 
ATOM     12  O   LIG A   1     -12.380   6.230 131.525  0.00  0.00    -0.287 OA
ENDROOT
BRANCH   1  14
ATOM     13  C   LIG A   1      -5.011   6.833 131.386  0.00  0.00    +0.277 C 
ATOM     14  O   LIG A   1      -5.964   6.282 132.290  0.00  0.00    -0.495 OA
ENDBRANCH   1  14
BRANCH   4  15
ATOM     15  O   LIG A   1     -10.531   5.348 133.284  0.00  0.00    -0.505 OA
ATOM     16  H   LIG A   1     -10.919   6.053 133.826  0.00  0.00    +0.292 HD
ENDBRANCH   4  15
BRANCH   8  17
ATOM     17  C   LIG A   1     -10.907   8.336 127.463  0.00  0.00    +0.230 C 
BRANCH  17  18
ATOM     18  O   LIG A   1     -10.763   7.393 126.409  0.00  0.00    -0.387 OA
ATOM     19  H   LIG A   1      -9.829   7.415 126.135  0.00  0.00    +0.210 HD
ENDBRANCH  17  18
ENDBRANCH   8  17
TORSDOF 4
ENDMDL
MODEL 3
REMARK VINA RESULT:      -6.3      1.828      5.080
REMARK  Name = NuBBE_298
REMARK  6 active torsions:
REMARK  status: ('A' for Active; 'I' for Inactive)
REMARK    1  A    between atoms: C_1  and  O_2
REMARK    2  A    between atoms: O_2  and  C_3
REMARK    3  A    between atoms: C_4  and  C_5
REMARK    4  A    between atoms: C_6  and  O_7
REMARK    5  A    between atoms: C_11  and  C_12
REMARK    6  A    between atoms: C_12  and  O_13
REMARK                            x       y       z     vdW  Elec       q    Type
REMARK                         _______ _______ _______ _____ _____    ______ ____
ROOT
ATOM      1  C   LIG A   1      -8.245   5.448 130.409  0.00  0.00    +0.130 A 
ATOM      2  C   LIG A   1      -8.716   5.705 131.712  0.00  0.00    +0.034 A 
ATOM      3  C   LIG A   1      -7.835   5.419 132.901  0.00  0.00    +0.051 C 
ATOM      4  C   LIG A   1     -10.007   6.245 131.871  0.00  0.00    +0.138 A 
ATOM      5  C   LIG A   1     -10.835   6.481 130.762  0.00  0.00    +0.106 A 
ATOM      6  C   LIG A   1     -12.204   7.035 130.875  0.00  0.00    +0.196 A 
ATOM      7  C   LIG A   1     -12.963   7.167 129.620  0.00  0.00    +0.095 A 
ATOM      8  C   LIG A   1     -12.387   6.861 128.450  0.00  0.00    +0.135 A 
ATOM      9  O   LIG A   1     -11.083   6.407 128.333  0.00  0.00    -0.457 OA
ATOM     10  C   LIG A   1     -10.352   6.205 129.482  0.00  0.00    +0.146 A 
ATOM     11  C   LIG A   1      -9.059   5.708 129.302  0.00  0.00    +0.093 A 
ATOM     12  O   LIG A   1     -12.730   7.400 131.919  0.00  0.00    -0.287 OA
ENDROOT
BRANCH   1  14
ATOM     13  C   LIG A   1      -6.794   3.737 129.639  0.00  0.00    +0.277 C 
ATOM     14  O   LIG A   1      -6.958   4.986 130.303  0.00  0.00    -0.495 OA
ENDBRANCH   1  14
BRANCH   4  15
ATOM     15  O   LIG A   1     -10.477   6.528 133.125  0.00  0.00    -0.505 OA
ATOM     16  H   LIG A   1     -11.286   6.024 133.300  0.00  0.00    +0.292 HD
ENDBRANCH   4  15
BRANCH   8  17
ATOM     17  C   LIG A   1     -13.107   7.021 127.143  0.00  0.00    +0.230 C 
BRANCH  17  18
ATOM     18  O   LIG A   1     -12.264   6.637 126.066  0.00  0.00    -0.387 OA
ATOM     19  H   LIG A   1     -12.818   6.149 125.431  0.00  0.00    +0.210 HD
ENDBRANCH  17  18
ENDBRANCH   8  17
TORSDOF 4
ENDMDL
MODEL 4
REMARK VINA RESULT:      -6.1      2.231      5.613
REMARK  Name = NuBBE_298
REMARK  6 active torsions:
REMARK  status: ('A' for Active; 'I' for Inactive)
REMARK    1  A    between atoms: C_1  and  O_2
REMARK    2  A    between atoms: O_2  and  C_3
REMARK    3  A    between atoms: C_4  and  C_5
REMARK    4  A    between atoms: C_6  and  O_7
REMARK    5  A    between atoms: C_11  and  C_12
REMARK    6  A    between atoms: C_12  and  O_13
REMARK                            x       y       z     vdW  Elec       q    Type
REMARK                         _______ _______ _______ _____ _____    ______ ____
ROOT
ATOM      1  C   LIG A   1      -9.672   5.563 131.566  0.00  0.00    +0.130 A 
ATOM      2  C   LIG A   1      -8.945   5.069 130.465  0.00  0.00    +0.034 A 
ATOM      3  C   LIG A   1      -7.879   4.024 130.675  0.00  0.00    +0.051 C 
ATOM      4  C   LIG A   1      -9.247   5.556 129.178  0.00  0.00    +0.138 A 
ATOM      5  C   LIG A   1     -10.219   6.552 128.992  0.00  0.00    +0.106 A 
ATOM      6  C   LIG A   1     -10.566   7.108 127.664  0.00  0.00    +0.196 A 
ATOM      7  C   LIG A   1     -11.566   8.188 127.646  0.00  0.00    +0.095 A 
ATOM      8  C   LIG A   1     -12.163   8.570 128.783  0.00  0.00    +0.135 A 
ATOM      9  O   LIG A   1     -11.891   8.006 130.019  0.00  0.00    -0.457 OA
ATOM     10  C   LIG A   1     -10.917   7.037 130.098  0.00  0.00    +0.146 A 
ATOM     11  C   LIG A   1     -10.660   6.535 131.377  0.00  0.00    +0.093 A 
ATOM     12  O   LIG A   1     -10.099   6.725 126.598  0.00  0.00    -0.287 OA
ENDROOT
BRANCH   1  14
ATOM     13  C   LIG A   1      -8.550   5.777 133.643  0.00  0.00    +0.277 C 
ATOM     14  O   LIG A   1      -9.388   5.009 132.786  0.00  0.00    -0.495 OA
ENDBRANCH   1  14
BRANCH   4  15
ATOM     15  O   LIG A   1      -8.572   5.072 128.091  0.00  0.00    -0.505 OA
ATOM     16  H   LIG A   1      -9.120   5.150 127.295  0.00  0.00    +0.292 HD
ENDBRANCH   4  15
BRANCH   8  17
ATOM     17  C   LIG A   1     -13.219   9.637 128.807  0.00  0.00    +0.230 C 
BRANCH  17  18
ATOM     18  O   LIG A   1     -13.163  10.358 130.031  0.00  0.00    -0.387 OA
ATOM     19  H   LIG A   1     -12.321  10.846 130.035  0.00  0.00    +0.210 HD
ENDBRANCH  17  18
ENDBRANCH   8  17
TORSDOF 4
ENDMDL
MODEL 5
REMARK VINA RESULT:      -6.1     10.149     11.055
REMARK  Name = NuBBE_298
REMARK  6 active torsions:
REMARK  status: ('A' for Active; 'I' for Inactive)
REMARK    1  A    between atoms: C_1  and  O_2
REMARK    2  A    between atoms: O_2  and  C_3
REMARK    3  A    between atoms: C_4  and  C_5
REMARK    4  A    between atoms: C_6  and  O_7
REMARK    5  A    between atoms: C_11  and  C_12
REMARK    6  A    between atoms: C_12  and  O_13
REMARK                            x       y       z     vdW  Elec       q    Type
REMARK                         _______ _______ _______ _____ _____    ______ ____
ROOT
ATOM      1  C   LIG A   1      -6.727  -2.572 123.766  0.00  0.00    +0.130 A 
ATOM      2  C   LIG A   1      -7.884  -2.829 124.528  0.00  0.00    +0.034 A 
ATOM      3  C   LIG A   1      -8.142  -4.215 125.060  0.00  0.00    +0.051 C 
ATOM      4  C   LIG A   1      -8.771  -1.767 124.793  0.00  0.00    +0.138 A 
ATOM      5  C   LIG A   1      -8.541  -0.484 124.269  0.00  0.00    +0.106 A 
ATOM      6  C   LIG A   1      -9.447   0.662 124.506  0.00  0.00    +0.196 A 
ATOM      7  C   LIG A   1      -9.094   1.926 123.837  0.00  0.00    +0.095 A 
ATOM      8  C   LIG A   1      -7.965   2.015 123.122  0.00  0.00    +0.135 A 
ATOM      9  O   LIG A   1      -7.078   0.964 122.954  0.00  0.00    -0.457 OA
ATOM     10  C   LIG A   1      -7.396  -0.257 123.505  0.00  0.00    +0.146 A 
ATOM     11  C   LIG A   1      -6.483  -1.288 123.267  0.00  0.00    +0.093 A 
ATOM     12  O   LIG A   1     -10.442   0.636 125.220  0.00  0.00    -0.287 OA
ENDROOT
BRANCH   1  14
ATOM     13  C   LIG A   1      -4.480  -3.286 123.510  0.00  0.00    +0.277 C 
ATOM     14  O   LIG A   1      -5.862  -3.621 123.594  0.00  0.00    -0.495 OA
ENDBRANCH   1  14
BRANCH   4  15
ATOM     15  O   LIG A   1      -9.888  -1.986 125.552  0.00  0.00    -0.505 OA
ATOM     16  H   LIG A   1     -10.683  -1.943 124.999  0.00  0.00    +0.292 HD
ENDBRANCH   4  15
BRANCH   8  17
ATOM     17  C   LIG A   1      -7.543   3.295 122.459  0.00  0.00    +0.230 C 
BRANCH  17  18
ATOM     18  O   LIG A   1      -8.620   3.839 121.708  0.00  0.00    -0.387 OA
ATOM     19  H   LIG A   1      -8.881   3.164 121.056  0.00  0.00    +0.210 HD
ENDBRANCH  17  18
ENDBRANCH   8  17
TORSDOF 4
ENDMDL
MODEL 6
REMARK VINA RESULT:      -5.8      2.233      2.322
REMARK  Name = NuBBE_298
REMARK  6 active torsions:
REMARK  status: ('A' for Active; 'I' for Inactive)
REMARK    1  A    between atoms: C_1  and  O_2
REMARK    2  A    between atoms: O_2  and  C_3
REMARK    3  A    between atoms: C_4  and  C_5
REMARK    4  A    between atoms: C_6  and  O_7
REMARK    5  A    between atoms: C_11  and  C_12
REMARK    6  A    between atoms: C_12  and  O_13
REMARK                            x       y       z     vdW  Elec       q    Type
REMARK                         _______ _______ _______ _____ _____    ______ ____
ROOT
ATOM      1  C   LIG A   1     -11.787   7.460 129.385  0.00  0.00    +0.130 A 
ATOM      2  C   LIG A   1     -11.906   7.161 130.757  0.00  0.00    +0.034 A 
ATOM      3  C   LIG A   1     -12.966   7.840 131.586  0.00  0.00    +0.051 C 
ATOM      4  C   LIG A   1     -11.032   6.212 131.322  0.00  0.00    +0.138 A 
ATOM      5  C   LIG A   1     -10.026   5.606 130.552  0.00  0.00    +0.106 A 
ATOM      6  C   LIG A   1      -9.074   4.612 131.099  0.00  0.00    +0.196 A 
ATOM      7  C   LIG A   1      -8.042   4.115 130.174  0.00  0.00    +0.095 A 
ATOM      8  C   LIG A   1      -8.042   4.508 128.893  0.00  0.00    +0.135 A 
ATOM      9  O   LIG A   1      -8.972   5.385 128.360  0.00  0.00    -0.457 OA
ATOM     10  C   LIG A   1      -9.918   5.928 129.199  0.00  0.00    +0.146 A 
ATOM     11  C   LIG A   1     -10.803   6.836 128.611  0.00  0.00    +0.093 A 
ATOM     12  O   LIG A   1      -9.098   4.172 132.242  0.00  0.00    -0.287 OA
ENDROOT
BRANCH   1  14
ATOM     13  C   LIG A   1     -13.600   7.809 127.896  0.00  0.00    +0.277 C 
ATOM     14  O   LIG A   1     -12.704   8.339 128.868  0.00  0.00    -0.495 OA
ENDBRANCH   1  14
BRANCH   4  15
ATOM     15  O   LIG A   1     -11.145   5.886 132.646  0.00  0.00    -0.505 OA
ATOM     16  H   LIG A   1     -10.641   6.511 133.188  0.00  0.00    +0.292 HD
ENDBRANCH   4  15
BRANCH   8  17
ATOM     17  C   LIG A   1      -7.036   3.993 127.905  0.00  0.00    +0.230 C 
BRANCH  17  18
ATOM     18  O   LIG A   1      -5.980   4.931 127.744  0.00  0.00    -0.387 OA
ATOM     19  H   LIG A   1      -6.281   5.769 128.137  0.00  0.00    +0.210 HD
ENDBRANCH  17  18
ENDBRANCH   8  17
TORSDOF 4
ENDMDL
MODEL 7
REMARK VINA RESULT:      -5.7      9.560     10.523
REMARK  Name = NuBBE_298
REMARK  6 active torsions:
REMARK  status: ('A' for Active; 'I' for Inactive)
REMARK    1  A    between atoms: C_1  and  O_2
REMARK    2  A    between atoms: O_2  and  C_3
REMARK    3  A    between atoms: C_4  and  C_5
REMARK    4  A    between atoms: C_6  and  O_7
REMARK    5  A    between atoms: C_11  and  C_12
REMARK    6  A    between atoms: C_12  and  O_13
REMARK                            x       y       z     vdW  Elec       q    Type
REMARK                         _______ _______ _______ _____ _____    ______ ____
ROOT
ATOM      1  C   LIG A   1      -7.226  -1.983 124.259  0.00  0.00    +0.130 A 
ATOM      2  C   LIG A   1      -8.453  -1.888 123.573  0.00  0.00    +0.034 A 
ATOM      3  C   LIG A   1      -9.222  -3.138 123.229  0.00  0.00    +0.051 C 
ATOM      4  C   LIG A   1      -8.945  -0.611 123.238  0.00  0.00    +0.138 A 
ATOM      5  C   LIG A   1      -8.209   0.548 123.533  0.00  0.00    +0.106 A 
ATOM      6  C   LIG A   1      -8.674   1.912 123.191  0.00  0.00    +0.196 A 
ATOM      7  C   LIG A   1      -7.758   3.018 123.518  0.00  0.00    +0.095 A 
ATOM      8  C   LIG A   1      -6.607   2.771 124.157  0.00  0.00    +0.135 A 
ATOM      9  O   LIG A   1      -6.199   1.503 124.540  0.00  0.00    -0.457 OA
ATOM     10  C   LIG A   1      -6.990   0.429 124.201  0.00  0.00    +0.146 A 
ATOM     11  C   LIG A   1      -6.507  -0.827 124.579  0.00  0.00    +0.093 A 
ATOM     12  O   LIG A   1      -9.755   2.179 122.681  0.00  0.00    -0.287 OA
ENDROOT
BRANCH   1  14
ATOM     13  C   LIG A   1      -5.555  -3.661 124.132  0.00  0.00    +0.277 C 
ATOM     14  O   LIG A   1      -6.824  -3.242 124.623  0.00  0.00    -0.495 OA
ENDBRANCH   1  14
BRANCH   4  15
ATOM     15  O   LIG A   1     -10.146  -0.491 122.594  0.00  0.00    -0.505 OA
ATOM     16  H   LIG A   1     -10.022  -0.076 121.727  0.00  0.00    +0.292 HD
ENDBRANCH   4  15
BRANCH   8  17
ATOM     17  C   LIG A   1      -5.663   3.871 124.549  0.00  0.00    +0.230 C 
BRANCH  17  18
ATOM     18  O   LIG A   1      -6.224   5.137 124.230  0.00  0.00    -0.387 OA
ATOM     19  H   LIG A   1      -6.940   4.978 123.590  0.00  0.00    +0.210 HD
ENDBRANCH  17  18
ENDBRANCH   8  17
TORSDOF 4
ENDMDL
MODEL 8
REMARK VINA RESULT:      -5.6      8.055      9.220
REMARK  Name = NuBBE_298
REMARK  6 active torsions:
REMARK  status: ('A' for Active; 'I' for Inactive)
REMARK    1  A    between atoms: C_1  and  O_2
REMARK    2  A    between atoms: O_2  and  C_3
REMARK    3  A    between atoms: C_4  and  C_5
REMARK    4  A    between atoms: C_6  and  O_7
REMARK    5  A    between atoms: C_11  and  C_12
REMARK    6  A    between atoms: C_12  and  O_13
REMARK                            x       y       z     vdW  Elec       q    Type
REMARK                         _______ _______ _______ _____ _____    ______ ____
ROOT
ATOM      1  C   LIG A   1      -8.965   1.492 123.812  0.00  0.00    +0.130 A 
ATOM      2  C   LIG A   1      -8.366   1.701 125.070  0.00  0.00    +0.034 A 
ATOM      3  C   LIG A   1      -8.963   1.071 126.303  0.00  0.00    +0.051 C 
ATOM      4  C   LIG A   1      -7.199   2.487 125.143  0.00  0.00    +0.138 A 
ATOM      5  C   LIG A   1      -6.665   3.096 123.996  0.00  0.00    +0.106 A 
ATOM      6  C   LIG A   1      -5.449   3.942 124.020  0.00  0.00    +0.196 A 
ATOM      7  C   LIG A   1      -5.053   4.555 122.741  0.00  0.00    +0.095 A 
ATOM      8  C   LIG A   1      -5.737   4.279 121.622  0.00  0.00    +0.135 A 
ATOM      9  O   LIG A   1      -6.834   3.434 121.583  0.00  0.00    -0.457 OA
ATOM     10  C   LIG A   1      -7.284   2.887 122.763  0.00  0.00    +0.146 A 
ATOM     11  C   LIG A   1      -8.417   2.076 122.666  0.00  0.00    +0.093 A 
ATOM     12  O   LIG A   1      -4.755   4.148 125.008  0.00  0.00    -0.287 OA
ENDROOT
BRANCH   1  14
ATOM     13  C   LIG A   1     -10.370   0.082 122.524  0.00  0.00    +0.277 C 
ATOM     14  O   LIG A   1     -10.058   0.665 123.785  0.00  0.00    -0.495 OA
ENDBRANCH   1  14
BRANCH   4  15
ATOM     15  O   LIG A   1      -6.584   2.682 126.349  0.00  0.00    -0.505 OA
ATOM     16  H   LIG A   1      -6.639   3.616 126.606  0.00  0.00    +0.292 HD
ENDBRANCH   4  15
BRANCH   8  17
ATOM     17  C   LIG A   1      -5.343   4.847 120.289  0.00  0.00    +0.230 C 
BRANCH  17  18
ATOM     18  O   LIG A   1      -4.665   6.084 120.462  0.00  0.00    -0.387 OA
ATOM     19  H   LIG A   1      -4.038   6.170 119.722  0.00  0.00    +0.210 HD
ENDBRANCH  17  18
ENDBRANCH   8  17
TORSDOF 4
ENDMDL
MODEL 9
REMARK VINA RESULT:      -5.6      9.274     10.316
REMARK  Name = NuBBE_298
REMARK  6 active torsions:
REMARK  status: ('A' for Active; 'I' for Inactive)
REMARK    1  A    between atoms: C_1  and  O_2
REMARK    2  A    between atoms: O_2  and  C_3
REMARK    3  A    between atoms: C_4  and  C_5
REMARK    4  A    between atoms: C_6  and  O_7
REMARK    5  A    between atoms: C_11  and  C_12
REMARK    6  A    between atoms: C_12  and  O_13
REMARK                            x       y       z     vdW  Elec       q    Type
REMARK                         _______ _______ _______ _____ _____    ______ ____
ROOT
ATOM      1  C   LIG A   1      -7.791  -1.671 127.591  0.00  0.00    +0.130 A 
ATOM      2  C   LIG A   1      -8.598  -2.563 126.856  0.00  0.00    +0.034 A 
ATOM      3  C   LIG A   1      -8.972  -3.899 127.445  0.00  0.00    +0.051 C 
ATOM      4  C   LIG A   1      -9.053  -2.171 125.582  0.00  0.00    +0.138 A 
ATOM      5  C   LIG A   1      -8.676  -0.938 125.026  0.00  0.00    +0.106 A 
ATOM      6  C   LIG A   1      -9.116  -0.484 123.687  0.00  0.00    +0.196 A 
ATOM      7  C   LIG A   1      -8.584   0.809 123.226  0.00  0.00    +0.095 A 
ATOM      8  C   LIG A   1      -7.805   1.542 124.033  0.00  0.00    +0.135 A 
ATOM      9  O   LIG A   1      -7.446   1.153 125.313  0.00  0.00    -0.457 OA
ATOM     10  C   LIG A   1      -7.865  -0.078 125.767  0.00  0.00    +0.146 A 
ATOM     11  C   LIG A   1      -7.438  -0.432 127.049  0.00  0.00    +0.093 A 
ATOM     12  O   LIG A   1      -9.891  -1.092 122.959  0.00  0.00    -0.287 OA
ENDROOT
BRANCH   1  14
ATOM     13  C   LIG A   1      -6.041  -2.300 129.062  0.00  0.00    +0.277 C 
ATOM     14  O   LIG A   1      -7.430  -2.071 128.852  0.00  0.00    -0.495 OA
ENDBRANCH   1  14
BRANCH   4  15
ATOM     15  O   LIG A   1      -9.859  -3.009 124.860  0.00  0.00    -0.505 OA
ATOM     16  H   LIG A   1     -10.787  -2.745 124.955  0.00  0.00    +0.292 HD
ENDBRANCH   4  15
BRANCH   8  17
ATOM     17  C   LIG A   1      -7.276   2.886 123.622  0.00  0.00    +0.230 C 
BRANCH  17  18
ATOM     18  O   LIG A   1      -8.319   3.676 123.065  0.00  0.00    -0.387 OA
ATOM     19  H   LIG A   1      -8.926   3.899 123.793  0.00  0.00    +0.210 HD
ENDBRANCH  17  18
ENDBRANCH   8  17
TORSDOF 4
ENDMDL
