MODEL 1
REMARK VINA RESULT:      -8.1      0.000      0.000
REMARK  Name = NuBBE_1422
REMARK  6 active torsions:
REMARK  status: ('A' for Active; 'I' for Inactive)
REMARK    1  A    between atoms: C_3  and  C_5
REMARK    2  A    between atoms: C_17  and  C_19
REMARK    3  A    between atoms: C_22  and  O_27
REMARK    4  A    between atoms: C_23  and  O_24
REMARK    5  A    between atoms: O_24  and  C_25
REMARK    6  A    between atoms: O_27  and  C_28
REMARK                            x       y       z     vdW  Elec       q    Type
REMARK                         _______ _______ _______ _____ _____    ______ ____
ROOT
ATOM      1  C   LIG A   1      -8.046   4.264 131.175  0.00  0.00    +0.056 C 
ATOM      2  C   LIG A   1      -6.825   4.971 131.752  0.00  0.00    +0.154 C 
ATOM      3  O   LIG A   1      -7.263   6.281 132.168  0.00  0.00    -0.371 OA
ATOM      4  C   LIG A   1      -8.633   6.456 131.790  0.00  0.00    +0.167 C 
ATOM      5  C   LIG A   1      -9.221   5.058 131.699  0.00  0.00    +0.056 C 
ATOM      6  C   LIG A   1     -10.331   4.815 130.678  0.00  0.00    +0.154 C 
ATOM      7  O   LIG A   1      -9.687   4.238 129.515  0.00  0.00    -0.371 OA
ATOM      8  C   LIG A   1      -8.266   4.344 129.679  0.00  0.00    +0.167 C 
ENDROOT
BRANCH   2   9
ATOM      9  C   LIG A   1      -5.606   5.040 130.857  0.00  0.00    -0.015 A 
ATOM     10  C   LIG A   1      -4.850   3.871 130.602  0.00  0.00    +0.010 A 
ATOM     11  C   LIG A   1      -3.709   3.902 129.793  0.00  0.00    +0.050 A 
ATOM     12  C   LIG A   1      -3.340   5.118 129.253  0.00  0.00    +0.166 A 
ATOM     13  O   LIG A   1      -2.266   5.338 128.450  0.00  0.00    -0.453 OA
ATOM     14  C   LIG A   1      -2.413   6.749 128.186  0.00  0.00    +0.466 C 
ATOM     15  O   LIG A   1      -3.533   7.348 128.868  0.00  0.00    -0.453 OA
ATOM     16  C   LIG A   1      -4.062   6.259 129.492  0.00  0.00    +0.167 A 
ATOM     17  C   LIG A   1      -5.188   6.258 130.285  0.00  0.00    +0.055 A 
ENDBRANCH   2   9
BRANCH   6  18
ATOM     18  C   LIG A   1     -11.154   6.029 130.306  0.00  0.00    -0.015 A 
ATOM     19  C   LIG A   1     -12.099   6.567 131.187  0.00  0.00    +0.010 A 
ATOM     20  C   LIG A   1     -12.788   7.740 130.859  0.00  0.00    +0.050 A 
ATOM     21  C   LIG A   1     -12.532   8.402 129.651  0.00  0.00    +0.162 A 
ATOM     22  C   LIG A   1     -11.630   7.843 128.732  0.00  0.00    +0.162 A 
ATOM     23  C   LIG A   1     -10.965   6.661 129.067  0.00  0.00    +0.055 A 
BRANCH  22  24
ATOM     24  O   LIG A   1     -11.432   8.515 127.550  0.00  0.00    -0.491 OA
ATOM     25  C   LIG A   1     -10.947   7.744 126.454  0.00  0.00    +0.277 C 
ENDBRANCH  22  24
BRANCH  21  26
ATOM     26  O   LIG A   1     -13.144   9.578 129.291  0.00  0.00    -0.491 OA
ATOM     27  C   LIG A   1     -13.282  10.545 130.326  0.00  0.00    +0.277 C 
ENDBRANCH  21  26
ENDBRANCH   6  18
TORSDOF 4
ENDMDL
MODEL 2
REMARK VINA RESULT:      -7.6      1.025      7.727
REMARK  Name = NuBBE_1422
REMARK  6 active torsions:
REMARK  status: ('A' for Active; 'I' for Inactive)
REMARK    1  A    between atoms: C_3  and  C_5
REMARK    2  A    between atoms: C_17  and  C_19
REMARK    3  A    between atoms: C_22  and  O_27
REMARK    4  A    between atoms: C_23  and  O_24
REMARK    5  A    between atoms: O_24  and  C_25
REMARK    6  A    between atoms: O_27  and  C_28
REMARK                            x       y       z     vdW  Elec       q    Type
REMARK                         _______ _______ _______ _____ _____    ______ ____
ROOT
ATOM      1  C   LIG A   1      -9.224   4.709 131.787  0.00  0.00    +0.056 C 
ATOM      2  C   LIG A   1     -10.409   4.640 130.831  0.00  0.00    +0.154 C 
ATOM      3  O   LIG A   1      -9.903   4.123 129.582  0.00  0.00    -0.371 OA
ATOM      4  C   LIG A   1      -8.483   3.973 129.682  0.00  0.00    +0.167 C 
ATOM      5  C   LIG A   1      -8.185   3.807 131.162  0.00  0.00    +0.056 C 
ATOM      6  C   LIG A   1      -6.853   4.340 131.686  0.00  0.00    +0.154 C 
ATOM      7  O   LIG A   1      -7.137   5.644 132.250  0.00  0.00    -0.371 OA
ATOM      8  C   LIG A   1      -8.473   6.020 131.887  0.00  0.00    +0.167 C 
ENDROOT
BRANCH   2   9
ATOM      9  C   LIG A   1     -11.189   5.924 130.638  0.00  0.00    -0.015 A 
ATOM     10  C   LIG A   1     -11.937   6.463 131.711  0.00  0.00    +0.010 A 
ATOM     11  C   LIG A   1     -12.682   7.638 131.562  0.00  0.00    +0.050 A 
ATOM     12  C   LIG A   1     -12.666   8.254 130.326  0.00  0.00    +0.166 A 
ATOM     13  O   LIG A   1     -13.329   9.395 129.998  0.00  0.00    -0.453 OA
ATOM     14  C   LIG A   1     -12.916   9.559 128.625  0.00  0.00    +0.466 C 
ATOM     15  O   LIG A   1     -12.064   8.497 128.150  0.00  0.00    -0.453 OA
ATOM     16  C   LIG A   1     -11.948   7.742 129.277  0.00  0.00    +0.167 A 
ATOM     17  C   LIG A   1     -11.207   6.586 129.395  0.00  0.00    +0.055 A 
ENDBRANCH   2   9
BRANCH   6  18
ATOM     18  C   LIG A   1      -5.732   4.411 130.671  0.00  0.00    -0.015 A 
ATOM     19  C   LIG A   1      -5.036   3.264 130.273  0.00  0.00    +0.010 A 
ATOM     20  C   LIG A   1      -4.062   3.337 129.272  0.00  0.00    +0.050 A 
ATOM     21  C   LIG A   1      -3.779   4.556 128.641  0.00  0.00    +0.162 A 
ATOM     22  C   LIG A   1      -4.428   5.725 129.070  0.00  0.00    +0.162 A 
ATOM     23  C   LIG A   1      -5.384   5.637 130.085  0.00  0.00    +0.055 A 
BRANCH  22  24
ATOM     24  O   LIG A   1      -4.098   6.900 128.439  0.00  0.00    -0.491 OA
ATOM     25  C   LIG A   1      -3.751   7.997 129.280  0.00  0.00    +0.277 C 
ENDBRANCH  22  24
BRANCH  21  26
ATOM     26  O   LIG A   1      -2.866   4.685 127.623  0.00  0.00    -0.491 OA
ATOM     27  C   LIG A   1      -2.190   3.491 127.245  0.00  0.00    +0.277 C 
ENDBRANCH  21  26
ENDBRANCH   6  18
TORSDOF 4
ENDMDL
MODEL 3
REMARK VINA RESULT:      -7.1      4.456      7.946
REMARK  Name = NuBBE_1422
REMARK  6 active torsions:
REMARK  status: ('A' for Active; 'I' for Inactive)
REMARK    1  A    between atoms: C_3  and  C_5
REMARK    2  A    between atoms: C_17  and  C_19
REMARK    3  A    between atoms: C_22  and  O_27
REMARK    4  A    between atoms: C_23  and  O_24
REMARK    5  A    between atoms: O_24  and  C_25
REMARK    6  A    between atoms: O_27  and  C_28
REMARK                            x       y       z     vdW  Elec       q    Type
REMARK                         _______ _______ _______ _____ _____    ______ ____
ROOT
ATOM      1  C   LIG A   1      -7.160   3.282 129.477  0.00  0.00    +0.056 C 
ATOM      2  C   LIG A   1      -8.184   3.573 130.568  0.00  0.00    +0.154 C 
ATOM      3  O   LIG A   1      -8.996   2.387 130.701  0.00  0.00    -0.371 OA
ATOM      4  C   LIG A   1      -8.605   1.441 129.700  0.00  0.00    +0.167 C 
ATOM      5  C   LIG A   1      -7.165   1.776 129.352  0.00  0.00    +0.056 C 
ATOM      6  C   LIG A   1      -6.696   1.511 127.923  0.00  0.00    +0.154 C 
ATOM      7  O   LIG A   1      -6.788   2.779 127.229  0.00  0.00    -0.371 OA
ATOM      8  C   LIG A   1      -7.494   3.708 128.064  0.00  0.00    +0.167 C 
ENDROOT
BRANCH   2   9
ATOM      9  C   LIG A   1      -9.026   4.818 130.380  0.00  0.00    -0.015 A 
ATOM     10  C   LIG A   1      -8.444   6.096 130.551  0.00  0.00    +0.010 A 
ATOM     11  C   LIG A   1      -9.197   7.266 130.402  0.00  0.00    +0.050 A 
ATOM     12  C   LIG A   1     -10.534   7.131 130.085  0.00  0.00    +0.166 A 
ATOM     13  O   LIG A   1     -11.415   8.150 129.905  0.00  0.00    -0.453 OA
ATOM     14  C   LIG A   1     -12.612   7.414 129.574  0.00  0.00    +0.466 C 
ATOM     15  O   LIG A   1     -12.436   5.984 129.610  0.00  0.00    -0.453 OA
ATOM     16  C   LIG A   1     -11.112   5.899 129.919  0.00  0.00    +0.167 A 
ATOM     17  C   LIG A   1     -10.396   4.731 130.062  0.00  0.00    +0.055 A 
ENDBRANCH   2   9
BRANCH   6  18
ATOM     18  C   LIG A   1      -7.442   0.422 127.181  0.00  0.00    -0.015 A 
ATOM     19  C   LIG A   1      -7.260  -0.929 127.493  0.00  0.00    +0.010 A 
ATOM     20  C   LIG A   1      -8.021  -1.914 126.855  0.00  0.00    +0.050 A 
ATOM     21  C   LIG A   1      -8.989  -1.562 125.905  0.00  0.00    +0.162 A 
ATOM     22  C   LIG A   1      -9.142  -0.215 125.539  0.00  0.00    +0.162 A 
ATOM     23  C   LIG A   1      -8.360   0.754 126.172  0.00  0.00    +0.055 A 
BRANCH  22  24
ATOM     24  O   LIG A   1     -10.086   0.078 124.584  0.00  0.00    -0.491 OA
ATOM     25  C   LIG A   1     -10.059   1.399 124.049  0.00  0.00    +0.277 C 
ENDBRANCH  22  24
BRANCH  21  26
ATOM     26  O   LIG A   1      -9.797  -2.477 125.276  0.00  0.00    -0.491 OA
ATOM     27  C   LIG A   1      -9.155  -3.315 124.321  0.00  0.00    +0.277 C 
ENDBRANCH  21  26
ENDBRANCH   6  18
TORSDOF 4
ENDMDL
MODEL 4
REMARK VINA RESULT:      -7.0      3.423      8.185
REMARK  Name = NuBBE_1422
REMARK  6 active torsions:
REMARK  status: ('A' for Active; 'I' for Inactive)
REMARK    1  A    between atoms: C_3  and  C_5
REMARK    2  A    between atoms: C_17  and  C_19
REMARK    3  A    between atoms: C_22  and  O_27
REMARK    4  A    between atoms: C_23  and  O_24
REMARK    5  A    between atoms: O_24  and  C_25
REMARK    6  A    between atoms: O_27  and  C_28
REMARK                            x       y       z     vdW  Elec       q    Type
REMARK                         _______ _______ _______ _____ _____    ______ ____
ROOT
ATOM      1  C   LIG A   1      -7.746   5.282 130.423  0.00  0.00    +0.056 C 
ATOM      2  C   LIG A   1      -8.435   6.304 131.320  0.00  0.00    +0.154 C 
ATOM      3  O   LIG A   1      -8.517   5.714 132.634  0.00  0.00    -0.371 OA
ATOM      4  C   LIG A   1      -8.022   4.372 132.573  0.00  0.00    +0.167 C 
ATOM      5  C   LIG A   1      -7.073   4.332 131.387  0.00  0.00    +0.056 C 
ATOM      6  C   LIG A   1      -6.955   3.022 130.611  0.00  0.00    +0.154 C 
ATOM      7  O   LIG A   1      -7.824   3.158 129.460  0.00  0.00    -0.371 OA
ATOM      8  C   LIG A   1      -8.621   4.340 129.624  0.00  0.00    +0.167 C 
ENDROOT
BRANCH   2   9
ATOM      9  C   LIG A   1      -9.779   6.813 130.843  0.00  0.00    -0.015 A 
ATOM     10  C   LIG A   1     -10.954   6.483 131.560  0.00  0.00    +0.010 A 
ATOM     11  C   LIG A   1     -12.214   6.922 131.138  0.00  0.00    +0.050 A 
ATOM     12  C   LIG A   1     -12.273   7.690 129.992  0.00  0.00    +0.166 A 
ATOM     13  O   LIG A   1     -13.403   8.200 129.435  0.00  0.00    -0.453 OA
ATOM     14  C   LIG A   1     -12.849   8.914 128.311  0.00  0.00    +0.466 C 
ATOM     15  O   LIG A   1     -11.419   8.777 128.191  0.00  0.00    -0.453 OA
ATOM     16  C   LIG A   1     -11.144   8.016 129.287  0.00  0.00    +0.167 A 
ATOM     17  C   LIG A   1      -9.892   7.596 129.677  0.00  0.00    +0.055 A 
ENDBRANCH   2   9
BRANCH   6  18
ATOM     18  C   LIG A   1      -7.271   1.766 131.395  0.00  0.00    -0.015 A 
ATOM     19  C   LIG A   1      -8.354   0.949 131.056  0.00  0.00    +0.010 A 
ATOM     20  C   LIG A   1      -8.579  -0.252 131.738  0.00  0.00    +0.050 A 
ATOM     21  C   LIG A   1      -7.714  -0.661 132.762  0.00  0.00    +0.162 A 
ATOM     22  C   LIG A   1      -6.656   0.176 133.152  0.00  0.00    +0.162 A 
ATOM     23  C   LIG A   1      -6.458   1.381 132.472  0.00  0.00    +0.055 A 
BRANCH  22  24
ATOM     24  O   LIG A   1      -5.851  -0.257 134.177  0.00  0.00    -0.491 OA
ATOM     25  C   LIG A   1      -5.178   0.752 134.926  0.00  0.00    +0.277 C 
ENDBRANCH  22  24
BRANCH  21  26
ATOM     26  O   LIG A   1      -7.856  -1.847 133.439  0.00  0.00    -0.491 OA
ATOM     27  C   LIG A   1      -7.449  -3.015 132.735  0.00  0.00    +0.277 C 
ENDBRANCH  21  26
ENDBRANCH   6  18
TORSDOF 4
ENDMDL
MODEL 5
REMARK VINA RESULT:      -7.0      5.571      8.832
REMARK  Name = NuBBE_1422
REMARK  6 active torsions:
REMARK  status: ('A' for Active; 'I' for Inactive)
REMARK    1  A    between atoms: C_3  and  C_5
REMARK    2  A    between atoms: C_17  and  C_19
REMARK    3  A    between atoms: C_22  and  O_27
REMARK    4  A    between atoms: C_23  and  O_24
REMARK    5  A    between atoms: O_24  and  C_25
REMARK    6  A    between atoms: O_27  and  C_28
REMARK                            x       y       z     vdW  Elec       q    Type
REMARK                         _______ _______ _______ _____ _____    ______ ____
ROOT
ATOM      1  C   LIG A   1      -7.937   3.066 125.266  0.00  0.00    +0.056 C 
ATOM      2  C   LIG A   1      -7.440   2.169 124.138  0.00  0.00    +0.154 C 
ATOM      3  O   LIG A   1      -6.170   1.633 124.563  0.00  0.00    -0.371 OA
ATOM      4  C   LIG A   1      -5.814   2.221 125.819  0.00  0.00    +0.167 C 
ATOM      5  C   LIG A   1      -7.122   2.642 126.466  0.00  0.00    +0.056 C 
ATOM      6  C   LIG A   1      -7.108   3.873 127.370  0.00  0.00    +0.154 C 
ATOM      7  O   LIG A   1      -7.565   4.978 126.552  0.00  0.00    -0.371 OA
ATOM      8  C   LIG A   1      -7.618   4.544 125.185  0.00  0.00    +0.167 C 
ENDROOT
BRANCH   2   9
ATOM      9  C   LIG A   1      -7.355   2.805 122.766  0.00  0.00    -0.015 A 
ATOM     10  C   LIG A   1      -6.099   3.199 122.247  0.00  0.00    +0.010 A 
ATOM     11  C   LIG A   1      -5.987   3.805 120.991  0.00  0.00    +0.050 A 
ATOM     12  C   LIG A   1      -7.148   4.008 120.272  0.00  0.00    +0.166 A 
ATOM     13  O   LIG A   1      -7.231   4.580 119.042  0.00  0.00    -0.453 OA
ATOM     14  C   LIG A   1      -8.651   4.493 118.801  0.00  0.00    +0.466 C 
ATOM     15  O   LIG A   1      -9.386   3.920 119.901  0.00  0.00    -0.453 OA
ATOM     16  C   LIG A   1      -8.372   3.633 120.763  0.00  0.00    +0.167 A 
ATOM     17  C   LIG A   1      -8.512   3.037 121.996  0.00  0.00    +0.055 A 
ENDBRANCH   2   9
BRANCH   6  18
ATOM     18  C   LIG A   1      -5.780   4.188 128.026  0.00  0.00    -0.015 A 
ATOM     19  C   LIG A   1      -4.883   5.098 127.457  0.00  0.00    +0.010 A 
ATOM     20  C   LIG A   1      -3.700   5.440 128.122  0.00  0.00    +0.050 A 
ATOM     21  C   LIG A   1      -3.403   4.886 129.375  0.00  0.00    +0.162 A 
ATOM     22  C   LIG A   1      -4.264   3.928 129.931  0.00  0.00    +0.162 A 
ATOM     23  C   LIG A   1      -5.432   3.584 129.245  0.00  0.00    +0.055 A 
BRANCH  22  24
ATOM     24  O   LIG A   1      -3.916   3.394 131.149  0.00  0.00    -0.491 OA
ATOM     25  C   LIG A   1      -4.331   2.053 131.397  0.00  0.00    +0.277 C 
ENDBRANCH  22  24
BRANCH  21  26
ATOM     26  O   LIG A   1      -2.280   5.212 130.096  0.00  0.00    -0.491 OA
ATOM     27  C   LIG A   1      -2.326   6.459 130.780  0.00  0.00    +0.277 C 
ENDBRANCH  21  26
ENDBRANCH   6  18
TORSDOF 4
ENDMDL
MODEL 6
REMARK VINA RESULT:      -6.8      5.178      7.483
REMARK  Name = NuBBE_1422
REMARK  6 active torsions:
REMARK  status: ('A' for Active; 'I' for Inactive)
REMARK    1  A    between atoms: C_3  and  C_5
REMARK    2  A    between atoms: C_17  and  C_19
REMARK    3  A    between atoms: C_22  and  O_27
REMARK    4  A    between atoms: C_23  and  O_24
REMARK    5  A    between atoms: O_24  and  C_25
REMARK    6  A    between atoms: O_27  and  C_28
REMARK                            x       y       z     vdW  Elec       q    Type
REMARK                         _______ _______ _______ _____ _____    ______ ____
ROOT
ATOM      1  C   LIG A   1      -5.223   4.454 125.866  0.00  0.00    +0.056 C 
ATOM      2  C   LIG A   1      -3.899   4.176 126.568  0.00  0.00    +0.154 C 
ATOM      3  O   LIG A   1      -3.690   2.749 126.507  0.00  0.00    -0.371 OA
ATOM      4  C   LIG A   1      -4.839   2.135 125.913  0.00  0.00    +0.167 C 
ATOM      5  C   LIG A   1      -5.484   3.208 125.052  0.00  0.00    +0.056 C 
ATOM      6  C   LIG A   1      -7.002   3.172 124.886  0.00  0.00    +0.154 C 
ATOM      7  O   LIG A   1      -7.533   4.121 125.844  0.00  0.00    -0.371 OA
ATOM      8  C   LIG A   1      -6.472   4.531 126.718  0.00  0.00    +0.167 C 
ENDROOT
BRANCH   2   9
ATOM      9  C   LIG A   1      -3.765   4.708 127.979  0.00  0.00    -0.015 A 
ATOM     10  C   LIG A   1      -3.674   3.808 129.067  0.00  0.00    +0.010 A 
ATOM     11  C   LIG A   1      -3.566   4.266 130.385  0.00  0.00    +0.050 A 
ATOM     12  C   LIG A   1      -3.556   5.632 130.590  0.00  0.00    +0.166 A 
ATOM     13  O   LIG A   1      -3.461   6.254 131.794  0.00  0.00    -0.453 OA
ATOM     14  C   LIG A   1      -3.470   7.637 131.382  0.00  0.00    +0.466 C 
ATOM     15  O   LIG A   1      -3.618   7.812 129.959  0.00  0.00    -0.453 OA
ATOM     16  C   LIG A   1      -3.646   6.515 129.545  0.00  0.00    +0.167 A 
ATOM     17  C   LIG A   1      -3.755   6.093 128.239  0.00  0.00    +0.055 A 
ENDBRANCH   2   9
BRANCH   6  18
ATOM     18  C   LIG A   1      -7.646   1.811 125.044  0.00  0.00    -0.015 A 
ATOM     19  C   LIG A   1      -8.408   1.492 126.173  0.00  0.00    +0.010 A 
ATOM     20  C   LIG A   1      -9.066   0.260 126.261  0.00  0.00    +0.050 A 
ATOM     21  C   LIG A   1      -8.984  -0.667 125.213  0.00  0.00    +0.162 A 
ATOM     22  C   LIG A   1      -8.176  -0.384 124.100  0.00  0.00    +0.162 A 
ATOM     23  C   LIG A   1      -7.511   0.843 124.037  0.00  0.00    +0.055 A 
BRANCH  22  24
ATOM     24  O   LIG A   1      -8.107  -1.335 123.111  0.00  0.00    -0.491 OA
ATOM     25  C   LIG A   1      -6.821  -1.895 122.856  0.00  0.00    +0.277 C 
ENDBRANCH  22  24
BRANCH  21  26
ATOM     26  O   LIG A   1      -9.640  -1.873 125.221  0.00  0.00    -0.491 OA
ATOM     27  C   LIG A   1      -9.151  -2.836 126.148  0.00  0.00    +0.277 C 
ENDBRANCH  21  26
ENDBRANCH   6  18
TORSDOF 4
ENDMDL
MODEL 7
REMARK VINA RESULT:      -6.8      4.563      8.487
REMARK  Name = NuBBE_1422
REMARK  6 active torsions:
REMARK  status: ('A' for Active; 'I' for Inactive)
REMARK    1  A    between atoms: C_3  and  C_5
REMARK    2  A    between atoms: C_17  and  C_19
REMARK    3  A    between atoms: C_22  and  O_27
REMARK    4  A    between atoms: C_23  and  O_24
REMARK    5  A    between atoms: O_24  and  C_25
REMARK    6  A    between atoms: O_27  and  C_28
REMARK                            x       y       z     vdW  Elec       q    Type
REMARK                         _______ _______ _______ _____ _____    ______ ____
ROOT
ATOM      1  C   LIG A   1      -7.246   3.148 130.642  0.00  0.00    +0.056 C 
ATOM      2  C   LIG A   1      -8.473   3.605 131.423  0.00  0.00    +0.154 C 
ATOM      3  O   LIG A   1      -9.341   2.459 131.539  0.00  0.00    -0.371 OA
ATOM      4  C   LIG A   1      -8.778   1.372 130.797  0.00  0.00    +0.167 C 
ATOM      5  C   LIG A   1      -7.284   1.640 130.736  0.00  0.00    +0.056 C 
ATOM      6  C   LIG A   1      -6.522   1.163 129.501  0.00  0.00    +0.154 C 
ATOM      7  O   LIG A   1      -6.408   2.315 128.630  0.00  0.00    -0.371 OA
ATOM      8  C   LIG A   1      -7.243   3.362 129.143  0.00  0.00    +0.167 C 
ENDROOT
BRANCH   2   9
ATOM      9  C   LIG A   1      -9.202   4.814 130.875  0.00  0.00    -0.015 A 
ATOM     10  C   LIG A   1      -8.606   6.095 130.957  0.00  0.00    +0.010 A 
ATOM     11  C   LIG A   1      -9.258   7.236 130.476  0.00  0.00    +0.050 A 
ATOM     12  C   LIG A   1     -10.512   7.070 129.921  0.00  0.00    +0.166 A 
ATOM     13  O   LIG A   1     -11.291   8.058 129.408  0.00  0.00    -0.453 OA
ATOM     14  C   LIG A   1     -12.432   7.295 128.962  0.00  0.00    +0.466 C 
ATOM     15  O   LIG A   1     -12.334   5.888 129.257  0.00  0.00    -0.453 OA
ATOM     16  C   LIG A   1     -11.103   5.835 129.837  0.00  0.00    +0.167 A 
ATOM     17  C   LIG A   1     -10.484   4.696 130.303  0.00  0.00    +0.055 A 
ENDBRANCH   2   9
BRANCH   6  18
ATOM     18  C   LIG A   1      -7.130  -0.019 128.774  0.00  0.00    -0.015 A 
ATOM     19  C   LIG A   1      -7.687   0.119 127.498  0.00  0.00    +0.010 A 
ATOM     20  C   LIG A   1      -8.166  -1.000 126.808  0.00  0.00    +0.050 A 
ATOM     21  C   LIG A   1      -8.080  -2.278 127.378  0.00  0.00    +0.162 A 
ATOM     22  C   LIG A   1      -7.577  -2.424 128.680  0.00  0.00    +0.162 A 
ATOM     23  C   LIG A   1      -7.121  -1.293 129.362  0.00  0.00    +0.055 A 
BRANCH  22  24
ATOM     24  O   LIG A   1      -7.537  -3.693 129.206  0.00  0.00    -0.491 OA
ATOM     25  C   LIG A   1      -6.446  -3.987 130.075  0.00  0.00    +0.277 C 
ENDBRANCH  22  24
BRANCH  21  26
ATOM     26  O   LIG A   1      -8.493  -3.420 126.735  0.00  0.00    -0.491 OA
ATOM     27  C   LIG A   1      -9.191  -3.221 125.511  0.00  0.00    +0.277 C 
ENDBRANCH  21  26
ENDBRANCH   6  18
TORSDOF 4
ENDMDL
MODEL 8
REMARK VINA RESULT:      -6.7      6.654      9.436
REMARK  Name = NuBBE_1422
REMARK  6 active torsions:
REMARK  status: ('A' for Active; 'I' for Inactive)
REMARK    1  A    between atoms: C_3  and  C_5
REMARK    2  A    between atoms: C_17  and  C_19
REMARK    3  A    between atoms: C_22  and  O_27
REMARK    4  A    between atoms: C_23  and  O_24
REMARK    5  A    between atoms: O_24  and  C_25
REMARK    6  A    between atoms: O_27  and  C_28
REMARK                            x       y       z     vdW  Elec       q    Type
REMARK                         _______ _______ _______ _____ _____    ______ ____
ROOT
ATOM      1  C   LIG A   1      -6.920  -3.016 127.382  0.00  0.00    +0.056 C 
ATOM      2  C   LIG A   1      -6.397  -2.152 126.241  0.00  0.00    +0.154 C 
ATOM      3  O   LIG A   1      -5.758  -1.008 126.846  0.00  0.00    -0.371 OA
ATOM      4  C   LIG A   1      -5.947  -1.067 128.264  0.00  0.00    +0.167 C 
ATOM      5  C   LIG A   1      -6.159  -2.534 128.595  0.00  0.00    +0.056 C 
ATOM      6  C   LIG A   1      -7.067  -2.876 129.775  0.00  0.00    +0.154 C 
ATOM      7  O   LIG A   1      -8.364  -3.181 129.207  0.00  0.00    -0.371 OA
ATOM      8  C   LIG A   1      -8.355  -2.815 127.820  0.00  0.00    +0.167 C 
ENDROOT
BRANCH   2   9
ATOM      9  C   LIG A   1      -7.411  -1.744 125.192  0.00  0.00    -0.015 A 
ATOM     10  C   LIG A   1      -7.919  -2.707 124.289  0.00  0.00    +0.010 A 
ATOM     11  C   LIG A   1      -8.844  -2.362 123.297  0.00  0.00    +0.050 A 
ATOM     12  C   LIG A   1      -9.243  -1.042 123.226  0.00  0.00    +0.166 A 
ATOM     13  O   LIG A   1     -10.126  -0.525 122.332  0.00  0.00    -0.453 OA
ATOM     14  C   LIG A   1     -10.164   0.853 122.758  0.00  0.00    +0.466 C 
ATOM     15  O   LIG A   1      -9.275   1.140 123.855  0.00  0.00    -0.453 OA
ATOM     16  C   LIG A   1      -8.757  -0.097 124.093  0.00  0.00    +0.167 A 
ATOM     17  C   LIG A   1      -7.845  -0.408 125.077  0.00  0.00    +0.055 A 
ENDBRANCH   2   9
BRANCH   6  18
ATOM     18  C   LIG A   1      -7.171  -1.814 130.849  0.00  0.00    -0.015 A 
ATOM     19  C   LIG A   1      -6.285  -1.782 131.931  0.00  0.00    +0.010 A 
ATOM     20  C   LIG A   1      -6.343  -0.744 132.867  0.00  0.00    +0.050 A 
ATOM     21  C   LIG A   1      -7.281   0.289 132.726  0.00  0.00    +0.162 A 
ATOM     22  C   LIG A   1      -8.214   0.239 131.679  0.00  0.00    +0.162 A 
ATOM     23  C   LIG A   1      -8.153  -0.815 130.764  0.00  0.00    +0.055 A 
BRANCH  22  24
ATOM     24  O   LIG A   1      -9.130   1.261 131.598  0.00  0.00    -0.491 OA
ATOM     25  C   LIG A   1      -8.979   2.164 130.506  0.00  0.00    +0.277 C 
ENDBRANCH  22  24
BRANCH  21  26
ATOM     26  O   LIG A   1      -7.361   1.356 133.586  0.00  0.00    -0.491 OA
ATOM     27  C   LIG A   1      -6.281   2.282 133.525  0.00  0.00    +0.277 C 
ENDBRANCH  21  26
ENDBRANCH   6  18
TORSDOF 4
ENDMDL
MODEL 9
REMARK VINA RESULT:      -6.6      5.133      8.499
REMARK  Name = NuBBE_1422
REMARK  6 active torsions:
REMARK  status: ('A' for Active; 'I' for Inactive)
REMARK    1  A    between atoms: C_3  and  C_5
REMARK    2  A    between atoms: C_17  and  C_19
REMARK    3  A    between atoms: C_22  and  O_27
REMARK    4  A    between atoms: C_23  and  O_24
REMARK    5  A    between atoms: O_24  and  C_25
REMARK    6  A    between atoms: O_27  and  C_28
REMARK                            x       y       z     vdW  Elec       q    Type
REMARK                         _______ _______ _______ _____ _____    ______ ____
ROOT
ATOM      1  C   LIG A   1      -6.598   3.263 128.228  0.00  0.00    +0.056 C 
ATOM      2  C   LIG A   1      -7.234   3.006 129.589  0.00  0.00    +0.154 C 
ATOM      3  O   LIG A   1      -7.411   1.579 129.700  0.00  0.00    -0.371 OA
ATOM      4  C   LIG A   1      -7.025   0.964 128.466  0.00  0.00    +0.167 C 
ATOM      5  C   LIG A   1      -6.039   1.921 127.816  0.00  0.00    +0.056 C 
ATOM      6  C   LIG A   1      -5.999   1.976 126.291  0.00  0.00    +0.154 C 
ATOM      7  O   LIG A   1      -6.812   3.113 125.909  0.00  0.00    -0.371 OA
ATOM      8  C   LIG A   1      -7.516   3.582 127.067  0.00  0.00    +0.167 C 
ENDROOT
BRANCH   2   9
ATOM      9  C   LIG A   1      -8.515   3.760 129.881  0.00  0.00    -0.015 A 
ATOM     10  C   LIG A   1      -9.703   3.048 130.172  0.00  0.00    +0.010 A 
ATOM     11  C   LIG A   1     -10.907   3.712 130.431  0.00  0.00    +0.050 A 
ATOM     12  C   LIG A   1     -10.898   5.092 130.389  0.00  0.00    +0.166 A 
ATOM     13  O   LIG A   1     -11.968   5.901 130.609  0.00  0.00    -0.453 OA
ATOM     14  C   LIG A   1     -11.357   7.200 130.464  0.00  0.00    +0.466 C 
ATOM     15  O   LIG A   1      -9.960   7.142 130.114  0.00  0.00    -0.453 OA
ATOM     16  C   LIG A   1      -9.756   5.795 130.106  0.00  0.00    +0.167 A 
ATOM     17  C   LIG A   1      -8.558   5.168 129.846  0.00  0.00    +0.055 A 
ENDBRANCH   2   9
BRANCH   6  18
ATOM     18  C   LIG A   1      -6.444   0.717 125.578  0.00  0.00    -0.015 A 
ATOM     19  C   LIG A   1      -5.626  -0.417 125.522  0.00  0.00    +0.010 A 
ATOM     20  C   LIG A   1      -6.089  -1.598 124.933  0.00  0.00    +0.050 A 
ATOM     21  C   LIG A   1      -7.385  -1.670 124.406  0.00  0.00    +0.162 A 
ATOM     22  C   LIG A   1      -8.197  -0.524 124.403  0.00  0.00    +0.162 A 
ATOM     23  C   LIG A   1      -7.711   0.653 124.978  0.00  0.00    +0.055 A 
BRANCH  22  24
ATOM     24  O   LIG A   1      -9.450  -0.637 123.851  0.00  0.00    -0.491 OA
ATOM     25  C   LIG A   1      -9.792   0.319 122.851  0.00  0.00    +0.277 C 
ENDBRANCH  22  24
BRANCH  21  26
ATOM     26  O   LIG A   1      -7.913  -2.812 123.854  0.00  0.00    -0.491 OA
ATOM     27  C   LIG A   1      -8.228  -3.853 124.772  0.00  0.00    +0.277 C 
ENDBRANCH  21  26
ENDBRANCH   6  18
TORSDOF 4
ENDMDL
