MODEL 1
REMARK VINA RESULT:      -9.0      0.000      0.000
REMARK  Name = NuBBE_1730
REMARK  14 active torsions:
REMARK  status: ('A' for Active; 'I' for Inactive)
REMARK    1  A    between atoms: C_1  and  C_2
REMARK    2  A    between atoms: C_5  and  C_6
REMARK    3  A    between atoms: C_11  and  C_12
REMARK    4  A    between atoms: C_11  and  C_13
REMARK    5  A    between atoms: C_14  and  O_18
REMARK    6  A    between atoms: O_18  and  C_19
REMARK    7  A    between atoms: C_19  and  C_21
REMARK    8  A    between atoms: C_26  and  C_27
REMARK    9  A    between atoms: C_30  and  C_32
REMARK   10  A    between atoms: C_32  and  C_33
REMARK   11  A    between atoms: C_35  and  C_39
REMARK   12  A    between atoms: C_39  and  C_40
REMARK   13  A    between atoms: C_39  and  C_41
REMARK   14  A    between atoms: C_39  and  O_42
REMARK                            x       y       z     vdW  Elec       q    Type
REMARK                         _______ _______ _______ _____ _____    ______ ____
ROOT
ATOM      1  C   LIG A   1      -6.187   4.025 127.952  0.00  0.00    +0.012 C 
ATOM      2  C   LIG A   1      -4.930   3.307 127.368  0.00  0.00    -0.023 C 
ATOM      3  C   LIG A   1      -4.829   1.808 127.832  0.00  0.00    +0.002 C 
ATOM      4  C   LIG A   1      -5.997   0.848 127.341  0.00  0.00    -0.025 C 
ATOM      5  C   LIG A   1      -7.323   1.182 128.060  0.00  0.00    +0.012 C 
ATOM      6  C   LIG A   1      -6.074   0.948 125.770  0.00  0.00    +0.004 C 
ATOM      7  C   LIG A   1      -6.201   2.410 125.289  0.00  0.00    +0.005 C 
ATOM      8  C   LIG A   1      -5.074   3.306 125.819  0.00  0.00    +0.008 C 
ATOM      9  C   LIG A   1      -7.080  -0.042 125.077  0.00  0.00    +0.005 C 
ATOM     10  C   LIG A   1      -8.551   0.438 125.140  0.00  0.00    +0.015 C 
ATOM     11  C   LIG A   1      -6.753  -0.124 123.554  0.00  0.00    +0.015 C 
ATOM     12  C   LIG A   1      -6.902  -1.498 125.628  0.00  0.00    +0.182 C 
ATOM     13  C   LIG A   1      -6.638  -1.636 127.126  0.00  0.00    +0.046 C 
ATOM     14  C   LIG A   1      -5.627  -0.629 127.666  0.00  0.00    +0.011 C 
ATOM     15  C   LIG A   1      -4.431   1.658 129.323  0.00  0.00    +0.005 C 
ATOM     16  C   LIG A   1      -4.202   2.948 130.107  0.00  0.00    +0.005 C 
ATOM     17  C   LIG A   1      -3.399   4.027 129.378  0.00  0.00    +0.001 C 
ATOM     18  C   LIG A   1      -3.593   4.062 127.822  0.00  0.00    -0.023 C 
ATOM     19  C   LIG A   1      -2.301   3.448 127.203  0.00  0.00    +0.012 C 
ATOM     20  C   LIG A   1      -3.581   5.572 127.444  0.00  0.00    +0.008 C 
ATOM     21  C   LIG A   1      -3.167   6.327 128.700  0.00  0.00    +0.007 C 
ATOM     22  C   LIG A   1      -3.673   5.471 129.870  0.00  0.00    +0.024 C 
ENDROOT
BRANCH  22  23
ATOM     23  C   LIG A   1      -3.077   5.882 131.248  0.00  0.00    +0.070 C 
ATOM     24  C   LIG A   1      -3.012   7.405 131.457  0.00  0.00    +0.042 C 
ATOM     25  O   LIG A   1      -3.940   5.368 132.298  0.00  0.00    -0.367 OA
ATOM     26  C   LIG A   1      -3.145   4.675 133.293  0.00  0.00    +0.150 C 
ATOM     27  C   LIG A   1      -1.700   5.055 133.010  0.00  0.00    +0.037 C 
ATOM     28  C   LIG A   1      -1.711   5.242 131.514  0.00  0.00    +0.037 C 
BRANCH  26  29
ATOM     29  C   LIG A   1      -3.641   5.027 134.717  0.00  0.00    +0.086 C 
ATOM     30  C   LIG A   1      -2.914   6.255 135.271  0.00  0.00    +0.043 C 
ATOM     31  C   LIG A   1      -5.154   5.259 134.749  0.00  0.00    +0.043 C 
BRANCH  29  32
ATOM     32  O   LIG A   1      -3.353   3.934 135.601  0.00  0.00    -0.387 OA
ATOM     33  H   LIG A   1      -3.091   3.194 135.021  0.00  0.00    +0.210 HD
ENDBRANCH  29  32
ENDBRANCH  26  29
ENDBRANCH  22  23
BRANCH  12  34
ATOM     34  O   LIG A   1      -8.114  -2.230 125.342  0.00  0.00    -0.461 OA
BRANCH  34  35
ATOM     35  C   LIG A   1      -8.061  -3.248 124.447  0.00  0.00    +0.304 C 
ATOM     36  O   LIG A   1      -7.137  -4.024 124.301  0.00  0.00    -0.251 OA
ATOM     37  C   LIG A   1      -9.327  -3.265 123.642  0.00  0.00    +0.136 C 
ENDBRANCH  34  35
ENDBRANCH  12  34
TORSDOF 5
ENDMDL
MODEL 2
REMARK VINA RESULT:      -8.9      1.298      1.983
REMARK  Name = NuBBE_1730
REMARK  14 active torsions:
REMARK  status: ('A' for Active; 'I' for Inactive)
REMARK    1  A    between atoms: C_1  and  C_2
REMARK    2  A    between atoms: C_5  and  C_6
REMARK    3  A    between atoms: C_11  and  C_12
REMARK    4  A    between atoms: C_11  and  C_13
REMARK    5  A    between atoms: C_14  and  O_18
REMARK    6  A    between atoms: O_18  and  C_19
REMARK    7  A    between atoms: C_19  and  C_21
REMARK    8  A    between atoms: C_26  and  C_27
REMARK    9  A    between atoms: C_30  and  C_32
REMARK   10  A    between atoms: C_32  and  C_33
REMARK   11  A    between atoms: C_35  and  C_39
REMARK   12  A    between atoms: C_39  and  C_40
REMARK   13  A    between atoms: C_39  and  C_41
REMARK   14  A    between atoms: C_39  and  O_42
REMARK                            x       y       z     vdW  Elec       q    Type
REMARK                         _______ _______ _______ _____ _____    ______ ____
ROOT
ATOM      1  C   LIG A   1      -6.173   4.044 128.088  0.00  0.00    +0.012 C 
ATOM      2  C   LIG A   1      -4.924   3.325 127.488  0.00  0.00    -0.023 C 
ATOM      3  C   LIG A   1      -4.866   1.803 127.878  0.00  0.00    +0.002 C 
ATOM      4  C   LIG A   1      -6.048   0.897 127.323  0.00  0.00    -0.025 C 
ATOM      5  C   LIG A   1      -7.378   1.227 128.037  0.00  0.00    +0.012 C 
ATOM      6  C   LIG A   1      -6.097   1.076 125.758  0.00  0.00    +0.004 C 
ATOM      7  C   LIG A   1      -6.182   2.563 125.349  0.00  0.00    +0.005 C 
ATOM      8  C   LIG A   1      -5.043   3.404 125.939  0.00  0.00    +0.008 C 
ATOM      9  C   LIG A   1      -7.115   0.146 125.001  0.00  0.00    +0.005 C 
ATOM     10  C   LIG A   1      -8.575   0.658 125.067  0.00  0.00    +0.015 C 
ATOM     11  C   LIG A   1      -6.765   0.132 123.481  0.00  0.00    +0.015 C 
ATOM     12  C   LIG A   1      -6.980  -1.339 125.483  0.00  0.00    +0.182 C 
ATOM     13  C   LIG A   1      -6.744  -1.556 126.975  0.00  0.00    +0.046 C 
ATOM     14  C   LIG A   1      -5.718  -0.603 127.579  0.00  0.00    +0.011 C 
ATOM     15  C   LIG A   1      -4.496   1.570 129.366  0.00  0.00    +0.005 C 
ATOM     16  C   LIG A   1      -4.249   2.814 130.217  0.00  0.00    +0.005 C 
ATOM     17  C   LIG A   1      -3.409   3.908 129.554  0.00  0.00    +0.001 C 
ATOM     18  C   LIG A   1      -3.577   4.024 127.999  0.00  0.00    -0.023 C 
ATOM     19  C   LIG A   1      -2.291   3.410 127.370  0.00  0.00    +0.012 C 
ATOM     20  C   LIG A   1      -3.523   5.551 127.696  0.00  0.00    +0.008 C 
ATOM     21  C   LIG A   1      -3.112   6.232 128.995  0.00  0.00    +0.007 C 
ATOM     22  C   LIG A   1      -3.657   5.332 130.113  0.00  0.00    +0.024 C 
ENDROOT
BRANCH  22  23
ATOM     23  C   LIG A   1      -3.074   5.661 131.518  0.00  0.00    +0.070 C 
ATOM     24  C   LIG A   1      -1.878   4.774 131.906  0.00  0.00    +0.042 C 
ATOM     25  O   LIG A   1      -2.575   7.026 131.505  0.00  0.00    -0.367 OA
ATOM     26  C   LIG A   1      -3.082   7.745 132.658  0.00  0.00    +0.150 C 
ATOM     27  C   LIG A   1      -3.655   6.689 133.590  0.00  0.00    +0.037 C 
ATOM     28  C   LIG A   1      -4.140   5.642 132.618  0.00  0.00    +0.037 C 
BRANCH  26  29
ATOM     29  C   LIG A   1      -1.965   8.619 133.279  0.00  0.00    +0.086 C 
ATOM     30  C   LIG A   1      -2.156   8.775 134.790  0.00  0.00    +0.043 C 
ATOM     31  C   LIG A   1      -0.573   8.053 132.986  0.00  0.00    +0.043 C 
BRANCH  29  32
ATOM     32  O   LIG A   1      -2.024   9.935 132.710  0.00  0.00    -0.387 OA
ATOM     33  H   LIG A   1      -2.197   9.799 131.759  0.00  0.00    +0.210 HD
ENDBRANCH  29  32
ENDBRANCH  26  29
ENDBRANCH  22  23
BRANCH  12  34
ATOM     34  O   LIG A   1      -8.204  -2.026 125.142  0.00  0.00    -0.461 OA
BRANCH  34  35
ATOM     35  C   LIG A   1      -8.132  -3.134 124.362  0.00  0.00    +0.304 C 
ATOM     36  O   LIG A   1      -7.198  -3.910 124.308  0.00  0.00    -0.251 OA
ATOM     37  C   LIG A   1      -9.388  -3.251 123.552  0.00  0.00    +0.136 C 
ENDBRANCH  34  35
ENDBRANCH  12  34
TORSDOF 5
ENDMDL
MODEL 3
REMARK VINA RESULT:      -8.8      5.804      7.772
REMARK  Name = NuBBE_1730
REMARK  14 active torsions:
REMARK  status: ('A' for Active; 'I' for Inactive)
REMARK    1  A    between atoms: C_1  and  C_2
REMARK    2  A    between atoms: C_5  and  C_6
REMARK    3  A    between atoms: C_11  and  C_12
REMARK    4  A    between atoms: C_11  and  C_13
REMARK    5  A    between atoms: C_14  and  O_18
REMARK    6  A    between atoms: O_18  and  C_19
REMARK    7  A    between atoms: C_19  and  C_21
REMARK    8  A    between atoms: C_26  and  C_27
REMARK    9  A    between atoms: C_30  and  C_32
REMARK   10  A    between atoms: C_32  and  C_33
REMARK   11  A    between atoms: C_35  and  C_39
REMARK   12  A    between atoms: C_39  and  C_40
REMARK   13  A    between atoms: C_39  and  C_41
REMARK   14  A    between atoms: C_39  and  O_42
REMARK                            x       y       z     vdW  Elec       q    Type
REMARK                         _______ _______ _______ _____ _____    ______ ____
ROOT
ATOM      1  C   LIG A   1      -5.101  -1.436 130.532  0.00  0.00    +0.012 C 
ATOM      2  C   LIG A   1      -5.400  -2.902 130.088  0.00  0.00    -0.023 C 
ATOM      3  C   LIG A   1      -6.861  -3.071 129.531  0.00  0.00    +0.002 C 
ATOM      4  C   LIG A   1      -7.197  -2.265 128.203  0.00  0.00    -0.025 C 
ATOM      5  C   LIG A   1      -7.274  -0.747 128.484  0.00  0.00    +0.012 C 
ATOM      6  C   LIG A   1      -6.129  -2.664 127.115  0.00  0.00    +0.004 C 
ATOM      7  C   LIG A   1      -4.684  -2.480 127.629  0.00  0.00    +0.005 C 
ATOM      8  C   LIG A   1      -4.419  -3.245 128.932  0.00  0.00    +0.008 C 
ATOM      9  C   LIG A   1      -6.374  -2.076 125.677  0.00  0.00    +0.005 C 
ATOM     10  C   LIG A   1      -5.915  -0.604 125.532  0.00  0.00    +0.015 C 
ATOM     11  C   LIG A   1      -5.512  -2.867 124.645  0.00  0.00    +0.015 C 
ATOM     12  C   LIG A   1      -7.863  -2.284 125.235  0.00  0.00    +0.182 C 
ATOM     13  C   LIG A   1      -8.931  -2.090 126.308  0.00  0.00    +0.046 C 
ATOM     14  C   LIG A   1      -8.576  -2.726 127.648  0.00  0.00    +0.011 C 
ATOM     15  C   LIG A   1      -7.946  -3.006 130.637  0.00  0.00    +0.005 C 
ATOM     16  C   LIG A   1      -7.457  -2.792 132.068  0.00  0.00    +0.005 C 
ATOM     17  C   LIG A   1      -6.234  -3.615 132.475  0.00  0.00    +0.001 C 
ATOM     18  C   LIG A   1      -5.216  -3.909 131.320  0.00  0.00    -0.023 C 
ATOM     19  C   LIG A   1      -5.416  -5.403 130.926  0.00  0.00    +0.012 C 
ATOM     20  C   LIG A   1      -3.810  -3.818 131.982  0.00  0.00    +0.008 C 
ATOM     21  C   LIG A   1      -4.048  -3.708 133.483  0.00  0.00    +0.007 C 
ATOM     22  C   LIG A   1      -5.400  -2.995 133.626  0.00  0.00    +0.024 C 
ENDROOT
BRANCH  22  23
ATOM     23  C   LIG A   1      -5.996  -3.070 135.062  0.00  0.00    +0.070 C 
ATOM     24  C   LIG A   1      -6.235  -1.690 135.697  0.00  0.00    +0.042 C 
ATOM     25  O   LIG A   1      -7.299  -3.710 134.989  0.00  0.00    -0.367 OA
ATOM     26  C   LIG A   1      -7.386  -4.761 135.985  0.00  0.00    +0.150 C 
ATOM     27  C   LIG A   1      -6.208  -4.546 136.923  0.00  0.00    +0.037 C 
ATOM     28  C   LIG A   1      -5.171  -3.961 135.997  0.00  0.00    +0.037 C 
BRANCH  26  29
ATOM     29  C   LIG A   1      -8.774  -4.736 136.672  0.00  0.00    +0.086 C 
ATOM     30  C   LIG A   1      -9.672  -5.862 136.151  0.00  0.00    +0.043 C 
ATOM     31  C   LIG A   1      -8.653  -4.828 138.195  0.00  0.00    +0.043 C 
BRANCH  29  32
ATOM     32  O   LIG A   1      -9.430  -3.498 136.365  0.00  0.00    -0.387 OA
ATOM     33  H   LIG A   1      -9.256  -3.341 135.417  0.00  0.00    +0.210 HD
ENDBRANCH  29  32
ENDBRANCH  26  29
ENDBRANCH  22  23
BRANCH  12  34
ATOM     34  O   LIG A   1      -8.146  -1.340 124.178  0.00  0.00    -0.461 OA
BRANCH  34  35
ATOM     35  C   LIG A   1      -9.126  -1.636 123.288  0.00  0.00    +0.304 C 
ATOM     36  O   LIG A   1      -9.806  -0.832 122.681  0.00  0.00    -0.251 OA
ATOM     37  C   LIG A   1      -9.258  -3.126 123.175  0.00  0.00    +0.136 C 
ENDBRANCH  34  35
ENDBRANCH  12  34
TORSDOF 5
ENDMDL
MODEL 4
REMARK VINA RESULT:      -8.8      5.356      7.711
REMARK  Name = NuBBE_1730
REMARK  14 active torsions:
REMARK  status: ('A' for Active; 'I' for Inactive)
REMARK    1  A    between atoms: C_1  and  C_2
REMARK    2  A    between atoms: C_5  and  C_6
REMARK    3  A    between atoms: C_11  and  C_12
REMARK    4  A    between atoms: C_11  and  C_13
REMARK    5  A    between atoms: C_14  and  O_18
REMARK    6  A    between atoms: O_18  and  C_19
REMARK    7  A    between atoms: C_19  and  C_21
REMARK    8  A    between atoms: C_26  and  C_27
REMARK    9  A    between atoms: C_30  and  C_32
REMARK   10  A    between atoms: C_32  and  C_33
REMARK   11  A    between atoms: C_35  and  C_39
REMARK   12  A    between atoms: C_39  and  C_40
REMARK   13  A    between atoms: C_39  and  C_41
REMARK   14  A    between atoms: C_39  and  O_42
REMARK                            x       y       z     vdW  Elec       q    Type
REMARK                         _______ _______ _______ _____ _____    ______ ____
ROOT
ATOM      1  C   LIG A   1      -6.820   3.056 130.215  0.00  0.00    +0.012 C 
ATOM      2  C   LIG A   1      -6.968   2.729 131.734  0.00  0.00    -0.023 C 
ATOM      3  C   LIG A   1      -7.691   1.355 131.982  0.00  0.00    +0.002 C 
ATOM      4  C   LIG A   1      -6.930   0.063 131.455  0.00  0.00    -0.025 C 
ATOM      5  C   LIG A   1      -6.941   0.009 129.911  0.00  0.00    +0.012 C 
ATOM      6  C   LIG A   1      -5.487   0.063 132.088  0.00  0.00    +0.004 C 
ATOM      7  C   LIG A   1      -4.744   1.393 131.835  0.00  0.00    +0.005 C 
ATOM      8  C   LIG A   1      -5.534   2.614 132.325  0.00  0.00    +0.008 C 
ATOM      9  C   LIG A   1      -4.621  -1.217 131.800  0.00  0.00    +0.005 C 
ATOM     10  C   LIG A   1      -3.963  -1.207 130.398  0.00  0.00    +0.015 C 
ATOM     11  C   LIG A   1      -3.425  -1.265 132.801  0.00  0.00    +0.015 C 
ATOM     12  C   LIG A   1      -5.447  -2.523 132.062  0.00  0.00    +0.182 C 
ATOM     13  C   LIG A   1      -6.911  -2.505 131.632  0.00  0.00    +0.046 C 
ATOM     14  C   LIG A   1      -7.641  -1.214 131.991  0.00  0.00    +0.011 C 
ATOM     15  C   LIG A   1      -9.210   1.402 131.671  0.00  0.00    +0.005 C 
ATOM     16  C   LIG A   1      -9.771   2.735 131.181  0.00  0.00    +0.005 C 
ATOM     17  C   LIG A   1      -9.273   3.973 131.931  0.00  0.00    +0.001 C 
ATOM     18  C   LIG A   1      -7.806   3.876 132.474  0.00  0.00    -0.023 C 
ATOM     19  C   LIG A   1      -7.919   3.657 134.012  0.00  0.00    +0.012 C 
ATOM     20  C   LIG A   1      -7.204   5.299 132.280  0.00  0.00    +0.008 C 
ATOM     21  C   LIG A   1      -8.359   6.201 131.863  0.00  0.00    +0.007 C 
ATOM     22  C   LIG A   1      -9.333   5.286 131.108  0.00  0.00    +0.024 C 
ENDROOT
BRANCH  22  23
ATOM     23  C   LIG A   1     -10.735   5.922 130.877  0.00  0.00    +0.070 C 
ATOM     24  C   LIG A   1     -11.358   6.509 132.155  0.00  0.00    +0.042 C 
ATOM     25  O   LIG A   1     -10.593   7.033 129.952  0.00  0.00    -0.367 OA
ATOM     26  C   LIG A   1     -11.582   6.924 128.897  0.00  0.00    +0.150 C 
ATOM     27  C   LIG A   1     -12.581   5.879 129.369  0.00  0.00    +0.037 C 
ATOM     28  C   LIG A   1     -11.712   4.962 130.191  0.00  0.00    +0.037 C 
BRANCH  26  29
ATOM     29  C   LIG A   1     -12.193   8.313 128.588  0.00  0.00    +0.086 C 
ATOM     30  C   LIG A   1     -13.382   8.197 127.630  0.00  0.00    +0.043 C 
ATOM     31  C   LIG A   1     -12.622   9.040 129.865  0.00  0.00    +0.043 C 
BRANCH  29  32
ATOM     32  O   LIG A   1     -11.208   9.129 127.937  0.00  0.00    -0.387 OA
ATOM     33  H   LIG A   1     -10.363   8.653 128.050  0.00  0.00    +0.210 HD
ENDBRANCH  29  32
ENDBRANCH  26  29
ENDBRANCH  22  23
BRANCH  12  34
ATOM     34  O   LIG A   1      -4.807  -3.601 131.346  0.00  0.00    -0.461 OA
BRANCH  34  35
ATOM     35  C   LIG A   1      -5.214  -4.873 131.588  0.00  0.00    +0.304 C 
ATOM     36  O   LIG A   1      -5.704  -5.633 130.775  0.00  0.00    -0.251 OA
ATOM     37  C   LIG A   1      -4.981  -5.201 133.033  0.00  0.00    +0.136 C 
ENDBRANCH  34  35
ENDBRANCH  12  34
TORSDOF 5
ENDMDL
MODEL 5
REMARK VINA RESULT:      -8.5      5.047      7.175
REMARK  Name = NuBBE_1730
REMARK  14 active torsions:
REMARK  status: ('A' for Active; 'I' for Inactive)
REMARK    1  A    between atoms: C_1  and  C_2
REMARK    2  A    between atoms: C_5  and  C_6
REMARK    3  A    between atoms: C_11  and  C_12
REMARK    4  A    between atoms: C_11  and  C_13
REMARK    5  A    between atoms: C_14  and  O_18
REMARK    6  A    between atoms: O_18  and  C_19
REMARK    7  A    between atoms: C_19  and  C_21
REMARK    8  A    between atoms: C_26  and  C_27
REMARK    9  A    between atoms: C_30  and  C_32
REMARK   10  A    between atoms: C_32  and  C_33
REMARK   11  A    between atoms: C_35  and  C_39
REMARK   12  A    between atoms: C_39  and  C_40
REMARK   13  A    between atoms: C_39  and  C_41
REMARK   14  A    between atoms: C_39  and  O_42
REMARK                            x       y       z     vdW  Elec       q    Type
REMARK                         _______ _______ _______ _____ _____    ______ ____
ROOT
ATOM      1  C   LIG A   1      -8.039   0.824 129.235  0.00  0.00    +0.012 C 
ATOM      2  C   LIG A   1      -6.605   1.364 129.532  0.00  0.00    -0.023 C 
ATOM      3  C   LIG A   1      -6.143   1.056 131.003  0.00  0.00    +0.002 C 
ATOM      4  C   LIG A   1      -5.984  -0.482 131.374  0.00  0.00    -0.025 C 
ATOM      5  C   LIG A   1      -7.362  -1.175 131.456  0.00  0.00    +0.012 C 
ATOM      6  C   LIG A   1      -5.000  -1.129 130.326  0.00  0.00    +0.004 C 
ATOM      7  C   LIG A   1      -5.447  -0.863 128.872  0.00  0.00    +0.005 C 
ATOM      8  C   LIG A   1      -5.626   0.631 128.573  0.00  0.00    +0.008 C 
ATOM      9  C   LIG A   1      -4.599  -2.624 130.607  0.00  0.00    +0.005 C 
ATOM     10  C   LIG A   1      -5.679  -3.640 130.163  0.00  0.00    +0.015 C 
ATOM     11  C   LIG A   1      -3.339  -2.985 129.761  0.00  0.00    +0.015 C 
ATOM     12  C   LIG A   1      -4.175  -2.817 132.104  0.00  0.00    +0.182 C 
ATOM     13  C   LIG A   1      -4.988  -2.057 133.149  0.00  0.00    +0.046 C 
ATOM     14  C   LIG A   1      -5.290  -0.613 132.761  0.00  0.00    +0.011 C 
ATOM     15  C   LIG A   1      -6.872   1.920 132.064  0.00  0.00    +0.005 C 
ATOM     16  C   LIG A   1      -7.906   2.918 131.546  0.00  0.00    +0.005 C 
ATOM     17  C   LIG A   1      -7.489   3.714 130.308  0.00  0.00    +0.001 C 
ATOM     18  C   LIG A   1      -6.549   2.950 129.313  0.00  0.00    -0.023 C 
ATOM     19  C   LIG A   1      -5.122   3.545 129.509  0.00  0.00    +0.012 C 
ATOM     20  C   LIG A   1      -7.013   3.391 127.893  0.00  0.00    +0.008 C 
ATOM     21  C   LIG A   1      -8.010   4.524 128.100  0.00  0.00    +0.007 C 
ATOM     22  C   LIG A   1      -8.673   4.235 129.454  0.00  0.00    +0.024 C 
ENDROOT
BRANCH  22  23
ATOM     23  C   LIG A   1      -9.487   5.436 130.018  0.00  0.00    +0.070 C 
ATOM     24  C   LIG A   1      -8.617   6.481 130.738  0.00  0.00    +0.042 C 
ATOM     25  O   LIG A   1     -10.115   6.132 128.908  0.00  0.00    -0.367 OA
ATOM     26  C   LIG A   1     -11.521   6.344 129.193  0.00  0.00    +0.150 C 
ATOM     27  C   LIG A   1     -11.694   6.053 130.676  0.00  0.00    +0.037 C 
ATOM     28  C   LIG A   1     -10.649   4.992 130.912  0.00  0.00    +0.037 C 
BRANCH  26  29
ATOM     29  C   LIG A   1     -11.949   7.768 128.758  0.00  0.00    +0.086 C 
ATOM     30  C   LIG A   1     -10.834   8.469 127.977  0.00  0.00    +0.043 C 
ATOM     31  C   LIG A   1     -13.233   7.744 127.925  0.00  0.00    +0.043 C 
BRANCH  29  32
ATOM     32  O   LIG A   1     -12.207   8.561 129.926  0.00  0.00    -0.387 OA
ATOM     33  H   LIG A   1     -12.925   9.172 129.671  0.00  0.00    +0.210 HD
ENDBRANCH  29  32
ENDBRANCH  26  29
ENDBRANCH  22  23
BRANCH  12  34
ATOM     34  O   LIG A   1      -4.289  -4.222 132.416  0.00  0.00    -0.461 OA
BRANCH  34  35
ATOM     35  C   LIG A   1      -3.343  -4.791 133.205  0.00  0.00    +0.304 C 
ATOM     36  O   LIG A   1      -2.212  -4.380 133.374  0.00  0.00    -0.251 OA
ATOM     37  C   LIG A   1      -3.904  -6.031 133.835  0.00  0.00    +0.136 C 
ENDBRANCH  34  35
ENDBRANCH  12  34
TORSDOF 5
ENDMDL
MODEL 6
REMARK VINA RESULT:      -8.4      5.030      7.025
REMARK  Name = NuBBE_1730
REMARK  14 active torsions:
REMARK  status: ('A' for Active; 'I' for Inactive)
REMARK    1  A    between atoms: C_1  and  C_2
REMARK    2  A    between atoms: C_5  and  C_6
REMARK    3  A    between atoms: C_11  and  C_12
REMARK    4  A    between atoms: C_11  and  C_13
REMARK    5  A    between atoms: C_14  and  O_18
REMARK    6  A    between atoms: O_18  and  C_19
REMARK    7  A    between atoms: C_19  and  C_21
REMARK    8  A    between atoms: C_26  and  C_27
REMARK    9  A    between atoms: C_30  and  C_32
REMARK   10  A    between atoms: C_32  and  C_33
REMARK   11  A    between atoms: C_35  and  C_39
REMARK   12  A    between atoms: C_39  and  C_40
REMARK   13  A    between atoms: C_39  and  C_41
REMARK   14  A    between atoms: C_39  and  O_42
REMARK                            x       y       z     vdW  Elec       q    Type
REMARK                         _______ _______ _______ _____ _____    ______ ____
ROOT
ATOM      1  C   LIG A   1      -4.754  -3.043 129.270  0.00  0.00    +0.012 C 
ATOM      2  C   LIG A   1      -6.154  -2.781 129.908  0.00  0.00    -0.023 C 
ATOM      3  C   LIG A   1      -6.642  -1.302 129.692  0.00  0.00    +0.002 C 
ATOM      4  C   LIG A   1      -6.896  -0.866 128.184  0.00  0.00    -0.025 C 
ATOM      5  C   LIG A   1      -5.562  -0.743 127.414  0.00  0.00    +0.012 C 
ATOM      6  C   LIG A   1      -7.911  -1.893 127.552  0.00  0.00    +0.004 C 
ATOM      7  C   LIG A   1      -7.441  -3.353 127.727  0.00  0.00    +0.005 C 
ATOM      8  C   LIG A   1      -7.171  -3.715 129.193  0.00  0.00    +0.008 C 
ATOM      9  C   LIG A   1      -8.403  -1.550 126.098  0.00  0.00    +0.005 C 
ATOM     10  C   LIG A   1      -7.383  -1.942 125.000  0.00  0.00    +0.015 C 
ATOM     11  C   LIG A   1      -9.677  -2.390 125.776  0.00  0.00    +0.015 C 
ATOM     12  C   LIG A   1      -8.845  -0.051 125.995  0.00  0.00    +0.182 C 
ATOM     13  C   LIG A   1      -7.994   0.967 126.750  0.00  0.00    +0.046 C 
ATOM     14  C   LIG A   1      -7.604   0.520 128.155  0.00  0.00    +0.011 C 
ATOM     15  C   LIG A   1      -5.868  -0.273 130.556  0.00  0.00    +0.005 C 
ATOM     16  C   LIG A   1      -4.774  -0.825 131.467  0.00  0.00    +0.005 C 
ATOM     17  C   LIG A   1      -5.136  -2.100 132.232  0.00  0.00    +0.001 C 
ATOM     18  C   LIG A   1      -6.115  -3.069 131.483  0.00  0.00    -0.023 C 
ATOM     19  C   LIG A   1      -7.504  -2.909 132.170  0.00  0.00    +0.012 C 
ATOM     20  C   LIG A   1      -5.618  -4.502 131.833  0.00  0.00    +0.008 C 
ATOM     21  C   LIG A   1      -4.555  -4.336 132.913  0.00  0.00    +0.007 C 
ATOM     22  C   LIG A   1      -3.918  -2.966 132.644  0.00  0.00    +0.024 C 
ENDROOT
BRANCH  22  23
ATOM     23  C   LIG A   1      -3.036  -2.447 133.818  0.00  0.00    +0.070 C 
ATOM     24  C   LIG A   1      -3.849  -2.033 135.056  0.00  0.00    +0.042 C 
ATOM     25  O   LIG A   1      -2.163  -3.525 134.252  0.00  0.00    -0.367 OA
ATOM     26  C   LIG A   1      -0.798  -3.045 134.344  0.00  0.00    +0.150 C 
ATOM     27  C   LIG A   1      -0.884  -1.528 134.273  0.00  0.00    +0.037 C 
ATOM     28  C   LIG A   1      -2.089  -1.322 133.391  0.00  0.00    +0.037 C 
BRANCH  26  29
ATOM     29  C   LIG A   1      -0.119  -3.597 135.622  0.00  0.00    +0.086 C 
ATOM     30  C   LIG A   1       0.315  -2.463 136.555  0.00  0.00    +0.043 C 
ATOM     31  C   LIG A   1      -1.031  -4.569 136.373  0.00  0.00    +0.043 C 
BRANCH  29  32
ATOM     32  O   LIG A   1       1.067  -4.315 135.253  0.00  0.00    -0.387 OA
ATOM     33  H   LIG A   1       0.927  -4.590 134.327  0.00  0.00    +0.210 HD
ENDBRANCH  29  32
ENDBRANCH  26  29
ENDBRANCH  22  23
BRANCH  12  34
ATOM     34  O   LIG A   1      -8.817   0.323 124.600  0.00  0.00    -0.461 OA
BRANCH  34  35
ATOM     35  C   LIG A   1      -9.729   1.223 124.151  0.00  0.00    +0.304 C 
ATOM     36  O   LIG A   1     -10.933   1.150 124.292  0.00  0.00    -0.251 OA
ATOM     37  C   LIG A   1      -9.017   2.327 123.428  0.00  0.00    +0.136 C 
ENDBRANCH  34  35
ENDBRANCH  12  34
TORSDOF 5
ENDMDL
MODEL 7
REMARK VINA RESULT:      -8.3      2.051      9.904
REMARK  Name = NuBBE_1730
REMARK  14 active torsions:
REMARK  status: ('A' for Active; 'I' for Inactive)
REMARK    1  A    between atoms: C_1  and  C_2
REMARK    2  A    between atoms: C_5  and  C_6
REMARK    3  A    between atoms: C_11  and  C_12
REMARK    4  A    between atoms: C_11  and  C_13
REMARK    5  A    between atoms: C_14  and  O_18
REMARK    6  A    between atoms: O_18  and  C_19
REMARK    7  A    between atoms: C_19  and  C_21
REMARK    8  A    between atoms: C_26  and  C_27
REMARK    9  A    between atoms: C_30  and  C_32
REMARK   10  A    between atoms: C_32  and  C_33
REMARK   11  A    between atoms: C_35  and  C_39
REMARK   12  A    between atoms: C_39  and  C_40
REMARK   13  A    between atoms: C_39  and  C_41
REMARK   14  A    between atoms: C_39  and  O_42
REMARK                            x       y       z     vdW  Elec       q    Type
REMARK                         _______ _______ _______ _____ _____    ______ ____
ROOT
ATOM      1  C   LIG A   1      -7.717   1.860 130.008  0.00  0.00    +0.012 C 
ATOM      2  C   LIG A   1      -6.376   1.304 130.582  0.00  0.00    -0.023 C 
ATOM      3  C   LIG A   1      -5.119   1.960 129.904  0.00  0.00    +0.002 C 
ATOM      4  C   LIG A   1      -4.938   3.522 130.138  0.00  0.00    -0.025 C 
ATOM      5  C   LIG A   1      -6.011   4.323 129.367  0.00  0.00    +0.012 C 
ATOM      6  C   LIG A   1      -4.938   3.778 131.693  0.00  0.00    +0.004 C 
ATOM      7  C   LIG A   1      -6.179   3.166 132.380  0.00  0.00    +0.005 C 
ATOM      8  C   LIG A   1      -6.333   1.667 132.093  0.00  0.00    +0.008 C 
ATOM      9  C   LIG A   1      -4.627   5.255 132.136  0.00  0.00    +0.005 C 
ATOM     10  C   LIG A   1      -5.849   6.198 132.020  0.00  0.00    +0.015 C 
ATOM     11  C   LIG A   1      -4.255   5.268 133.651  0.00  0.00    +0.015 C 
ATOM     12  C   LIG A   1      -3.369   5.811 131.385  0.00  0.00    +0.182 C 
ATOM     13  C   LIG A   1      -3.227   5.432 129.913  0.00  0.00    +0.046 C 
ATOM     14  C   LIG A   1      -3.538   3.967 129.624  0.00  0.00    +0.011 C 
ATOM     15  C   LIG A   1      -4.891   1.479 128.447  0.00  0.00    +0.005 C 
ATOM     16  C   LIG A   1      -5.892   0.466 127.893  0.00  0.00    +0.005 C 
ATOM     17  C   LIG A   1      -6.277  -0.667 128.847  0.00  0.00    +0.001 C 
ATOM     18  C   LIG A   1      -6.290  -0.281 130.366  0.00  0.00    -0.023 C 
ATOM     19  C   LIG A   1      -5.013  -0.916 130.993  0.00  0.00    +0.012 C 
ATOM     20  C   LIG A   1      -7.501  -1.050 130.972  0.00  0.00    +0.008 C 
ATOM     21  C   LIG A   1      -7.993  -1.999 129.887  0.00  0.00    +0.007 C 
ATOM     22  C   LIG A   1      -7.662  -1.301 128.560  0.00  0.00    +0.024 C 
ENDROOT
BRANCH  22  23
ATOM     23  C   LIG A   1      -7.779  -2.233 127.319  0.00  0.00    +0.070 C 
ATOM     24  C   LIG A   1      -8.637  -3.484 127.571  0.00  0.00    +0.042 C 
ATOM     25  O   LIG A   1      -8.439  -1.501 126.251  0.00  0.00    -0.367 OA
ATOM     26  C   LIG A   1      -7.681  -1.633 125.022  0.00  0.00    +0.150 C 
ATOM     27  C   LIG A   1      -6.685  -2.756 125.265  0.00  0.00    +0.037 C 
ATOM     28  C   LIG A   1      -6.413  -2.621 126.743  0.00  0.00    +0.037 C 
BRANCH  26  29
ATOM     29  C   LIG A   1      -8.635  -1.861 123.824  0.00  0.00    +0.086 C 
ATOM     30  C   LIG A   1      -7.875  -1.835 122.495  0.00  0.00    +0.043 C 
ATOM     31  C   LIG A   1      -9.406  -3.177 123.957  0.00  0.00    +0.043 C 
BRANCH  29  32
ATOM     32  O   LIG A   1      -9.599  -0.799 123.778  0.00  0.00    -0.387 OA
ATOM     33  H   LIG A   1      -9.309  -0.157 124.455  0.00  0.00    +0.210 HD
ENDBRANCH  29  32
ENDBRANCH  26  29
ENDBRANCH  22  23
BRANCH  12  34
ATOM     34  O   LIG A   1      -3.418   7.253 131.450  0.00  0.00    -0.461 OA
BRANCH  34  35
ATOM     35  C   LIG A   1      -2.458   7.904 132.154  0.00  0.00    +0.304 C 
ATOM     36  O   LIG A   1      -2.568   9.001 132.666  0.00  0.00    -0.251 OA
ATOM     37  C   LIG A   1      -1.217   7.063 132.193  0.00  0.00    +0.136 C 
ENDBRANCH  34  35
ENDBRANCH  12  34
TORSDOF 5
ENDMDL
MODEL 8
REMARK VINA RESULT:      -8.3      4.534     10.715
REMARK  Name = NuBBE_1730
REMARK  14 active torsions:
REMARK  status: ('A' for Active; 'I' for Inactive)
REMARK    1  A    between atoms: C_1  and  C_2
REMARK    2  A    between atoms: C_5  and  C_6
REMARK    3  A    between atoms: C_11  and  C_12
REMARK    4  A    between atoms: C_11  and  C_13
REMARK    5  A    between atoms: C_14  and  O_18
REMARK    6  A    between atoms: O_18  and  C_19
REMARK    7  A    between atoms: C_19  and  C_21
REMARK    8  A    between atoms: C_26  and  C_27
REMARK    9  A    between atoms: C_30  and  C_32
REMARK   10  A    between atoms: C_32  and  C_33
REMARK   11  A    between atoms: C_35  and  C_39
REMARK   12  A    between atoms: C_39  and  C_40
REMARK   13  A    between atoms: C_39  and  C_41
REMARK   14  A    between atoms: C_39  and  O_42
REMARK                            x       y       z     vdW  Elec       q    Type
REMARK                         _______ _______ _______ _____ _____    ______ ____
ROOT
ATOM      1  C   LIG A   1      -7.229  -0.853 131.209  0.00  0.00    +0.012 C 
ATOM      2  C   LIG A   1      -6.477  -2.214 131.352  0.00  0.00    -0.023 C 
ATOM      3  C   LIG A   1      -4.935  -2.022 131.589  0.00  0.00    +0.002 C 
ATOM      4  C   LIG A   1      -4.523  -1.291 132.939  0.00  0.00    -0.025 C 
ATOM      5  C   LIG A   1      -4.897   0.207 132.892  0.00  0.00    +0.012 C 
ATOM      6  C   LIG A   1      -5.184  -2.081 134.133  0.00  0.00    +0.004 C 
ATOM      7  C   LIG A   1      -6.705  -2.259 133.938  0.00  0.00    +0.005 C 
ATOM      8  C   LIG A   1      -7.055  -2.932 132.604  0.00  0.00    +0.008 C 
ATOM      9  C   LIG A   1      -4.777  -1.596 135.573  0.00  0.00    +0.005 C 
ATOM     10  C   LIG A   1      -5.548  -0.334 136.033  0.00  0.00    +0.015 C 
ATOM     11  C   LIG A   1      -5.158  -2.696 136.612  0.00  0.00    +0.015 C 
ATOM     12  C   LIG A   1      -3.224  -1.422 135.687  0.00  0.00    +0.182 C 
ATOM     13  C   LIG A   1      -2.510  -0.829 134.475  0.00  0.00    +0.046 C 
ATOM     14  C   LIG A   1      -2.984  -1.402 133.143  0.00  0.00    +0.011 C 
ATOM     15  C   LIG A   1      -4.178  -1.545 130.322  0.00  0.00    +0.005 C 
ATOM     16  C   LIG A   1      -5.014  -1.333 129.061  0.00  0.00    +0.005 C 
ATOM     17  C   LIG A   1      -6.050  -2.421 128.768  0.00  0.00    +0.001 C 
ATOM     18  C   LIG A   1      -6.674  -3.102 130.035  0.00  0.00    -0.023 C 
ATOM     19  C   LIG A   1      -6.020  -4.513 130.143  0.00  0.00    +0.012 C 
ATOM     20  C   LIG A   1      -8.169  -3.343 129.673  0.00  0.00    +0.008 C 
ATOM     21  C   LIG A   1      -8.310  -3.021 128.191  0.00  0.00    +0.007 C 
ATOM     22  C   LIG A   1      -7.250  -1.947 127.909  0.00  0.00    +0.024 C 
ENDROOT
BRANCH  22  23
ATOM     23  C   LIG A   1      -6.992  -1.707 126.392  0.00  0.00    +0.070 C 
ATOM     24  C   LIG A   1      -5.753  -2.444 125.858  0.00  0.00    +0.042 C 
ATOM     25  O   LIG A   1      -8.124  -2.228 125.643  0.00  0.00    -0.367 OA
ATOM     26  C   LIG A   1      -8.584  -1.234 124.693  0.00  0.00    +0.150 C 
ATOM     27  C   LIG A   1      -7.490  -0.179 124.632  0.00  0.00    +0.037 C 
ATOM     28  C   LIG A   1      -6.934  -0.219 126.033  0.00  0.00    +0.037 C 
BRANCH  26  29
ATOM     29  C   LIG A   1      -8.918  -1.901 123.336  0.00  0.00    +0.086 C 
ATOM     30  C   LIG A   1      -7.684  -1.975 122.434  0.00  0.00    +0.043 C 
ATOM     31  C   LIG A   1      -9.511  -3.300 123.524  0.00  0.00    +0.043 C 
BRANCH  29  32
ATOM     32  O   LIG A   1      -9.895  -1.107 122.648  0.00  0.00    -0.387 OA
ATOM     33  H   LIG A   1      -9.414  -0.689 121.908  0.00  0.00    +0.210 HD
ENDBRANCH  29  32
ENDBRANCH  26  29
ENDBRANCH  22  23
BRANCH  12  34
ATOM     34  O   LIG A   1      -2.959  -0.548 136.806  0.00  0.00    -0.461 OA
BRANCH  34  35
ATOM     35  C   LIG A   1      -2.137  -0.986 137.793  0.00  0.00    +0.304 C 
ATOM     36  O   LIG A   1      -1.131  -1.652 137.641  0.00  0.00    -0.251 OA
ATOM     37  C   LIG A   1      -2.672  -0.533 139.119  0.00  0.00    +0.136 C 
ENDBRANCH  34  35
ENDBRANCH  12  34
TORSDOF 5
ENDMDL
MODEL 9
REMARK VINA RESULT:      -8.1      2.857      4.938
REMARK  Name = NuBBE_1730
REMARK  14 active torsions:
REMARK  status: ('A' for Active; 'I' for Inactive)
REMARK    1  A    between atoms: C_1  and  C_2
REMARK    2  A    between atoms: C_5  and  C_6
REMARK    3  A    between atoms: C_11  and  C_12
REMARK    4  A    between atoms: C_11  and  C_13
REMARK    5  A    between atoms: C_14  and  O_18
REMARK    6  A    between atoms: O_18  and  C_19
REMARK    7  A    between atoms: C_19  and  C_21
REMARK    8  A    between atoms: C_26  and  C_27
REMARK    9  A    between atoms: C_30  and  C_32
REMARK   10  A    between atoms: C_32  and  C_33
REMARK   11  A    between atoms: C_35  and  C_39
REMARK   12  A    between atoms: C_39  and  C_40
REMARK   13  A    between atoms: C_39  and  C_41
REMARK   14  A    between atoms: C_39  and  O_42
REMARK                            x       y       z     vdW  Elec       q    Type
REMARK                         _______ _______ _______ _____ _____    ______ ____
ROOT
ATOM      1  C   LIG A   1      -3.768   3.704 130.598  0.00  0.00    +0.012 C 
ATOM      2  C   LIG A   1      -4.972   4.655 130.309  0.00  0.00    -0.023 C 
ATOM      3  C   LIG A   1      -4.890   5.307 128.881  0.00  0.00    +0.002 C 
ATOM      4  C   LIG A   1      -4.980   4.302 127.652  0.00  0.00    -0.025 C 
ATOM      5  C   LIG A   1      -3.699   3.445 127.545  0.00  0.00    +0.012 C 
ATOM      6  C   LIG A   1      -6.304   3.463 127.814  0.00  0.00    +0.004 C 
ATOM      7  C   LIG A   1      -6.396   2.789 129.201  0.00  0.00    +0.005 C 
ATOM      8  C   LIG A   1      -6.265   3.793 130.354  0.00  0.00    +0.008 C 
ATOM      9  C   LIG A   1      -6.650   2.505 126.615  0.00  0.00    +0.005 C 
ATOM     10  C   LIG A   1      -5.852   1.178 126.643  0.00  0.00    +0.015 C 
ATOM     11  C   LIG A   1      -8.146   2.073 126.718  0.00  0.00    +0.015 C 
ATOM     12  C   LIG A   1      -6.517   3.254 125.245  0.00  0.00    +0.182 C 
ATOM     13  C   LIG A   1      -5.348   4.225 125.106  0.00  0.00    +0.046 C 
ATOM     14  C   LIG A   1      -5.136   5.109 126.330  0.00  0.00    +0.011 C 
ATOM     15  C   LIG A   1      -3.788   6.392 128.768  0.00  0.00    +0.005 C 
ATOM     16  C   LIG A   1      -2.961   6.665 130.023  0.00  0.00    +0.005 C 
ATOM     17  C   LIG A   1      -3.756   6.750 131.329  0.00  0.00    +0.001 C 
ATOM     18  C   LIG A   1      -5.026   5.833 131.393  0.00  0.00    -0.023 C 
ATOM     19  C   LIG A   1      -6.257   6.773 131.216  0.00  0.00    +0.012 C 
ATOM     20  C   LIG A   1      -5.082   5.316 132.861  0.00  0.00    +0.008 C 
ATOM     21  C   LIG A   1      -4.023   6.095 133.631  0.00  0.00    +0.007 C 
ATOM     22  C   LIG A   1      -2.933   6.421 132.600  0.00  0.00    +0.024 C 
ENDROOT
BRANCH  22  23
ATOM     23  C   LIG A   1      -1.914   7.492 133.088  0.00  0.00    +0.070 C 
ATOM     24  C   LIG A   1      -0.492   7.276 132.543  0.00  0.00    +0.042 C 
ATOM     25  O   LIG A   1      -2.339   8.793 132.600  0.00  0.00    -0.367 OA
ATOM     26  C   LIG A   1      -2.336   9.752 133.688  0.00  0.00    +0.150 C 
ATOM     27  C   LIG A   1      -1.569   9.091 134.823  0.00  0.00    +0.037 C 
ATOM     28  C   LIG A   1      -1.892   7.633 134.614  0.00  0.00    +0.037 C 
BRANCH  26  29
ATOM     29  C   LIG A   1      -1.749  11.104 133.211  0.00  0.00    +0.086 C 
ATOM     30  C   LIG A   1      -2.136  12.242 134.158  0.00  0.00    +0.043 C 
ATOM     31  C   LIG A   1      -0.227  11.041 133.066  0.00  0.00    +0.043 C 
BRANCH  29  32
ATOM     32  O   LIG A   1      -2.293  11.425 131.922  0.00  0.00    -0.387 OA
ATOM     33  H   LIG A   1      -3.237  11.620 132.081  0.00  0.00    +0.210 HD
ENDBRANCH  29  32
ENDBRANCH  26  29
ENDBRANCH  22  23
BRANCH  12  34
ATOM     34  O   LIG A   1      -6.367   2.257 124.211  0.00  0.00    -0.461 OA
BRANCH  34  35
ATOM     35  C   LIG A   1      -6.864   2.522 122.976  0.00  0.00    +0.304 C 
ATOM     36  O   LIG A   1      -6.211   2.682 121.963  0.00  0.00    -0.251 OA
ATOM     37  C   LIG A   1      -8.359   2.607 123.052  0.00  0.00    +0.136 C 
ENDBRANCH  34  35
ENDBRANCH  12  34
TORSDOF 5
ENDMDL
