MODEL 1
REMARK VINA RESULT:      -8.3      0.000      0.000
REMARK  Name = NuBBE_1601
REMARK  18 active torsions:
REMARK  status: ('A' for Active; 'I' for Inactive)
REMARK    1  A    between atoms: C_1  and  C_2
REMARK    2  A    between atoms: C_5  and  C_6
REMARK    3  A    between atoms: C_8  and  O_11
REMARK    4  A    between atoms: C_12  and  C_13
REMARK    5  A    between atoms: C_12  and  C_17
REMARK    6  A    between atoms: C_13  and  O_15
REMARK    7  A    between atoms: O_15  and  C_16
REMARK    8  A    between atoms: C_22  and  O_24
REMARK    9  A    between atoms: O_24  and  C_25
REMARK   10  A    between atoms: C_25  and  C_27
REMARK   11  A    between atoms: C_28  and  O_44
REMARK   12  A    between atoms: C_30  and  C_43
REMARK   13  A    between atoms: C_34  and  C_36
REMARK   14  A    between atoms: C_38  and  O_42
REMARK   15  A    between atoms: O_44  and  C_45
REMARK   16  A    between atoms: C_45  and  C_47
REMARK   17  A    between atoms: C_47  and  C_48
REMARK   18  A    between atoms: C_47  and  C_49
REMARK                            x       y       z     vdW  Elec       q    Type
REMARK                         _______ _______ _______ _____ _____    ______ ____
ROOT
ATOM      1  C   LIG A   1      -9.603   3.911 130.544  0.00  0.00    +0.024 C 
ATOM      2  C   LIG A   1      -8.414   2.918 130.597  0.00  0.00    +0.063 C 
ATOM      3  C   LIG A   1      -8.060   2.374 129.201  0.00  0.00    +0.065 C 
ATOM      4  C   LIG A   1      -7.234   0.985 129.236  0.00  0.00    +0.020 C 
ATOM      5  C   LIG A   1      -7.390   0.409 127.798  0.00  0.00    +0.021 C 
ATOM      6  C   LIG A   1      -7.820  -0.053 130.236  0.00  0.00    +0.009 C 
ATOM      7  C   LIG A   1      -8.759   0.326 131.122  0.00  0.00    +0.162 C 
ATOM      8  C   LIG A   1      -9.018   1.768 131.440  0.00  0.00    +0.207 C 
ATOM      9  O   LIG A   1      -9.708   1.963 132.451  0.00  0.00    -0.288 OA
ATOM     10  C   LIG A   1      -7.015  -1.406 130.399  0.00  0.00    +0.152 C 
ATOM     11  C   LIG A   1      -7.534  -2.429 131.444  0.00  0.00    +0.036 C 
ATOM     12  C   LIG A   1      -5.650  -0.941 130.939  0.00  0.00    +0.176 C 
ATOM     13  O   LIG A   1      -4.992  -1.546 131.785  0.00  0.00    -0.291 OA
ATOM     14  C   LIG A   1      -5.057   0.297 130.378  0.00  0.00    +0.044 C 
ATOM     15  C   LIG A   1      -5.779   1.138 129.624  0.00  0.00    -0.012 C 
ATOM     16  C   LIG A   1      -7.473   3.522 128.272  0.00  0.00    +0.223 C 
ATOM     17  C   LIG A   1      -6.395   4.531 128.868  0.00  0.00    +0.228 C 
ATOM     18  C   LIG A   1      -6.489   4.786 130.430  0.00  0.00    +0.038 C 
ATOM     19  C   LIG A   1      -7.142   3.571 131.133  0.00  0.00    -0.050 C 
ATOM     20  C   LIG A   1      -6.339   3.054 132.077  0.00  0.00    -0.025 C 
ATOM     21  C   LIG A   1      -5.001   3.709 132.144  0.00  0.00    +0.036 C 
ATOM     22  C   LIG A   1      -5.170   5.002 131.325  0.00  0.00    +0.043 C 
ATOM     23  C   LIG A   1      -7.310   6.085 130.691  0.00  0.00    +0.020 C 
ENDROOT
BRANCH  22  24
ATOM     24  C   LIG A   1      -3.883   5.621 130.844  0.00  0.00    +0.043 C 
ATOM     25  C   LIG A   1      -2.620   5.304 131.187  0.00  0.00    +0.057 C 
ATOM     26  C   LIG A   1      -1.647   6.244 130.629  0.00  0.00    +0.334 C 
ATOM     27  O   LIG A   1      -2.427   7.092 129.805  0.00  0.00    -0.428 OA
ATOM     28  C   LIG A   1      -3.736   6.880 130.113  0.00  0.00    +0.338 C 
ATOM     29  O   LIG A   1      -4.619   7.615 129.854  0.00  0.00    -0.245 OA
BRANCH  26  30
ATOM     30  O   LIG A   1      -1.081   7.001 131.685  0.00  0.00    -0.354 OA
ATOM     31  H   LIG A   1      -0.126   6.815 131.668  0.00  0.00    +0.214 HD
ENDBRANCH  26  30
ENDBRANCH  22  24
BRANCH   7  32
ATOM     32  O   LIG A   1      -9.404  -0.568 131.953  0.00  0.00    -0.503 OA
ATOM     33  H   LIG A   1      -9.979  -1.107 131.367  0.00  0.00    +0.292 HD
ENDBRANCH   7  32
BRANCH  10  34
ATOM     34  C   LIG A   1      -6.819  -2.244 129.118  0.00  0.00    +0.325 C 
ATOM     35  O   LIG A   1      -5.761  -2.360 128.512  0.00  0.00    -0.249 OA
BRANCH  34  36
ATOM     36  O   LIG A   1      -7.985  -2.852 128.745  0.00  0.00    -0.467 OA
ATOM     37  C   LIG A   1      -8.213  -3.057 127.349  0.00  0.00    +0.280 C 
ENDBRANCH  34  36
ENDBRANCH  10  34
BRANCH  16  38
ATOM     38  O   LIG A   1      -8.589   4.299 127.734  0.00  0.00    -0.457 OA
BRANCH  38  39
ATOM     39  C   LIG A   1      -8.496   4.682 126.425  0.00  0.00    +0.304 C 
ATOM     40  O   LIG A   1      -8.906   5.741 125.970  0.00  0.00    -0.251 OA
ATOM     41  C   LIG A   1      -7.770   3.655 125.612  0.00  0.00    +0.136 C 
ENDBRANCH  38  39
ENDBRANCH  16  38
BRANCH  17  42
ATOM     42  O   LIG A   1      -5.098   4.012 128.431  0.00  0.00    -0.457 OA
BRANCH  42  43
ATOM     43  C   LIG A   1      -4.559   4.574 127.295  0.00  0.00    +0.310 C 
ATOM     44  O   LIG A   1      -4.807   5.705 126.889  0.00  0.00    -0.251 OA
BRANCH  43  45
ATOM     45  C   LIG A   1      -3.637   3.593 126.566  0.00  0.00    +0.092 C 
ATOM     46  C   LIG A   1      -2.324   3.356 127.306  0.00  0.00    +0.019 C 
ATOM     47  C   LIG A   1      -4.296   2.218 126.414  0.00  0.00    +0.019 C 
ENDBRANCH  43  45
ENDBRANCH  42  43
ENDBRANCH  17  42
TORSDOF 10
ENDMDL
MODEL 2
REMARK VINA RESULT:      -8.1      2.252      7.053
REMARK  Name = NuBBE_1601
REMARK  18 active torsions:
REMARK  status: ('A' for Active; 'I' for Inactive)
REMARK    1  A    between atoms: C_1  and  C_2
REMARK    2  A    between atoms: C_5  and  C_6
REMARK    3  A    between atoms: C_8  and  O_11
REMARK    4  A    between atoms: C_12  and  C_13
REMARK    5  A    between atoms: C_12  and  C_17
REMARK    6  A    between atoms: C_13  and  O_15
REMARK    7  A    between atoms: O_15  and  C_16
REMARK    8  A    between atoms: C_22  and  O_24
REMARK    9  A    between atoms: O_24  and  C_25
REMARK   10  A    between atoms: C_25  and  C_27
REMARK   11  A    between atoms: C_28  and  O_44
REMARK   12  A    between atoms: C_30  and  C_43
REMARK   13  A    between atoms: C_34  and  C_36
REMARK   14  A    between atoms: C_38  and  O_42
REMARK   15  A    between atoms: O_44  and  C_45
REMARK   16  A    between atoms: C_45  and  C_47
REMARK   17  A    between atoms: C_47  and  C_48
REMARK   18  A    between atoms: C_47  and  C_49
REMARK                            x       y       z     vdW  Elec       q    Type
REMARK                         _______ _______ _______ _____ _____    ______ ____
ROOT
ATOM      1  C   LIG A   1      -6.073   3.399 134.367  0.00  0.00    +0.024 C 
ATOM      2  C   LIG A   1      -7.112   3.449 133.218  0.00  0.00    +0.063 C 
ATOM      3  C   LIG A   1      -6.518   4.063 131.936  0.00  0.00    +0.065 C 
ATOM      4  C   LIG A   1      -7.633   4.630 130.911  0.00  0.00    +0.020 C 
ATOM      5  C   LIG A   1      -6.839   5.576 129.964  0.00  0.00    +0.021 C 
ATOM      6  C   LIG A   1      -8.740   5.469 131.612  0.00  0.00    +0.009 C 
ATOM      7  C   LIG A   1      -8.834   5.468 132.955  0.00  0.00    +0.162 C 
ATOM      8  C   LIG A   1      -8.160   4.430 133.800  0.00  0.00    +0.207 C 
ATOM      9  O   LIG A   1      -8.541   4.389 134.977  0.00  0.00    -0.288 OA
ATOM     10  C   LIG A   1      -9.922   5.982 130.692  0.00  0.00    +0.152 C 
ATOM     11  C   LIG A   1     -11.078   6.758 131.376  0.00  0.00    +0.036 C 
ATOM     12  C   LIG A   1     -10.562   4.679 130.180  0.00  0.00    +0.176 C 
ATOM     13  O   LIG A   1     -11.772   4.512 130.023  0.00  0.00    -0.291 OA
ATOM     14  C   LIG A   1      -9.669   3.557 129.807  0.00  0.00    +0.044 C 
ATOM     15  C   LIG A   1      -8.371   3.555 130.142  0.00  0.00    -0.012 C 
ATOM     16  C   LIG A   1      -5.402   3.119 131.315  0.00  0.00    +0.223 C 
ATOM     17  C   LIG A   1      -5.671   1.552 131.219  0.00  0.00    +0.228 C 
ATOM     18  C   LIG A   1      -6.646   0.959 132.321  0.00  0.00    +0.038 C 
ATOM     19  C   LIG A   1      -7.609   2.058 132.831  0.00  0.00    -0.050 C 
ATOM     20  C   LIG A   1      -8.895   1.711 132.657  0.00  0.00    -0.025 C 
ATOM     21  C   LIG A   1      -9.069   0.416 131.938  0.00  0.00    +0.036 C 
ATOM     22  C   LIG A   1      -7.672  -0.231 131.978  0.00  0.00    +0.043 C 
ATOM     23  C   LIG A   1      -5.802   0.372 133.493  0.00  0.00    +0.020 C 
ENDROOT
BRANCH  22  24
ATOM     24  C   LIG A   1      -7.443  -1.310 130.951  0.00  0.00    +0.043 C 
ATOM     25  C   LIG A   1      -7.992  -1.433 129.727  0.00  0.00    +0.057 C 
ATOM     26  C   LIG A   1      -7.642  -2.705 129.094  0.00  0.00    +0.334 C 
ATOM     27  O   LIG A   1      -6.720  -3.292 129.996  0.00  0.00    -0.428 OA
ATOM     28  C   LIG A   1      -6.788  -2.601 131.166  0.00  0.00    +0.338 C 
ATOM     29  O   LIG A   1      -6.402  -2.993 132.207  0.00  0.00    -0.245 OA
BRANCH  26  30
ATOM     30  O   LIG A   1      -8.803  -3.513 129.012  0.00  0.00    -0.354 OA
ATOM     31  H   LIG A   1      -8.940  -3.880 129.903  0.00  0.00    +0.214 HD
ENDBRANCH  26  30
ENDBRANCH  22  24
BRANCH   7  32
ATOM     32  O   LIG A   1      -9.714   6.281 133.640  0.00  0.00    -0.503 OA
ATOM     33  H   LIG A   1     -10.094   5.720 134.351  0.00  0.00    +0.292 HD
ENDBRANCH   7  32
BRANCH  10  34
ATOM     34  C   LIG A   1      -9.521   6.878 129.501  0.00  0.00    +0.325 C 
ATOM     35  O   LIG A   1      -8.965   7.965 129.599  0.00  0.00    -0.249 OA
BRANCH  34  36
ATOM     36  O   LIG A   1      -9.860   6.297 128.311  0.00  0.00    -0.467 OA
ATOM     37  C   LIG A   1     -10.479   7.120 127.320  0.00  0.00    +0.280 C 
ENDBRANCH  34  36
ENDBRANCH  10  34
BRANCH  16  38
ATOM     38  O   LIG A   1      -4.154   3.332 132.047  0.00  0.00    -0.457 OA
BRANCH  38  39
ATOM     39  C   LIG A   1      -3.471   4.485 131.773  0.00  0.00    +0.304 C 
ATOM     40  O   LIG A   1      -3.120   5.310 132.604  0.00  0.00    -0.251 OA
ATOM     41  C   LIG A   1      -3.149   4.589 130.313  0.00  0.00    +0.136 C 
ENDBRANCH  38  39
ENDBRANCH  16  38
BRANCH  17  42
ATOM     42  O   LIG A   1      -6.120   1.320 129.846  0.00  0.00    -0.457 OA
BRANCH  42  43
ATOM     43  C   LIG A   1      -5.176   1.466 128.854  0.00  0.00    +0.310 C 
ATOM     44  O   LIG A   1      -3.964   1.370 129.023  0.00  0.00    -0.251 OA
BRANCH  43  45
ATOM     45  C   LIG A   1      -5.821   1.811 127.509  0.00  0.00    +0.092 C 
ATOM     46  C   LIG A   1      -7.279   1.369 127.424  0.00  0.00    +0.019 C 
ATOM     47  C   LIG A   1      -5.819   3.323 127.263  0.00  0.00    +0.019 C 
ENDBRANCH  43  45
ENDBRANCH  42  43
ENDBRANCH  17  42
TORSDOF 10
ENDMDL
MODEL 3
REMARK VINA RESULT:      -8.0      1.822      7.587
REMARK  Name = NuBBE_1601
REMARK  18 active torsions:
REMARK  status: ('A' for Active; 'I' for Inactive)
REMARK    1  A    between atoms: C_1  and  C_2
REMARK    2  A    between atoms: C_5  and  C_6
REMARK    3  A    between atoms: C_8  and  O_11
REMARK    4  A    between atoms: C_12  and  C_13
REMARK    5  A    between atoms: C_12  and  C_17
REMARK    6  A    between atoms: C_13  and  O_15
REMARK    7  A    between atoms: O_15  and  C_16
REMARK    8  A    between atoms: C_22  and  O_24
REMARK    9  A    between atoms: O_24  and  C_25
REMARK   10  A    between atoms: C_25  and  C_27
REMARK   11  A    between atoms: C_28  and  O_44
REMARK   12  A    between atoms: C_30  and  C_43
REMARK   13  A    between atoms: C_34  and  C_36
REMARK   14  A    between atoms: C_38  and  O_42
REMARK   15  A    between atoms: O_44  and  C_45
REMARK   16  A    between atoms: C_45  and  C_47
REMARK   17  A    between atoms: C_47  and  C_48
REMARK   18  A    between atoms: C_47  and  C_49
REMARK                            x       y       z     vdW  Elec       q    Type
REMARK                         _______ _______ _______ _____ _____    ______ ____
ROOT
ATOM      1  C   LIG A   1      -6.095   4.211 127.341  0.00  0.00    +0.024 C 
ATOM      2  C   LIG A   1      -5.305   4.119 128.672  0.00  0.00    +0.063 C 
ATOM      3  C   LIG A   1      -5.954   4.968 129.781  0.00  0.00    +0.065 C 
ATOM      4  C   LIG A   1      -4.941   5.348 130.983  0.00  0.00    +0.020 C 
ATOM      5  C   LIG A   1      -5.638   6.536 131.711  0.00  0.00    +0.021 C 
ATOM      6  C   LIG A   1      -3.552   5.838 130.483  0.00  0.00    +0.009 C 
ATOM      7  C   LIG A   1      -3.216   5.695 129.188  0.00  0.00    +0.162 C 
ATOM      8  C   LIG A   1      -3.959   4.770 128.270  0.00  0.00    +0.207 C 
ATOM      9  O   LIG A   1      -3.390   4.535 127.196  0.00  0.00    -0.288 OA
ATOM     10  C   LIG A   1      -2.470   6.142 131.599  0.00  0.00    +0.152 C 
ATOM     11  C   LIG A   1      -1.052   6.561 131.127  0.00  0.00    +0.036 C 
ATOM     12  C   LIG A   1      -2.277   4.777 132.284  0.00  0.00    +0.176 C 
ATOM     13  O   LIG A   1      -1.197   4.346 132.687  0.00  0.00    -0.291 OA
ATOM     14  C   LIG A   1      -3.473   3.933 132.518  0.00  0.00    +0.044 C 
ATOM     15  C   LIG A   1      -4.646   4.205 131.930  0.00  0.00    -0.012 C 
ATOM     16  C   LIG A   1      -7.363   4.371 130.206  0.00  0.00    +0.223 C 
ATOM     17  C   LIG A   1      -7.513   2.801 130.421  0.00  0.00    +0.228 C 
ATOM     18  C   LIG A   1      -6.529   1.899 129.563  0.00  0.00    +0.038 C 
ATOM     19  C   LIG A   1      -5.247   2.691 129.210  0.00  0.00    -0.050 C 
ATOM     20  C   LIG A   1      -4.141   2.070 129.652  0.00  0.00    -0.025 C 
ATOM     21  C   LIG A   1      -4.428   0.840 130.446  0.00  0.00    +0.036 C 
ATOM     22  C   LIG A   1      -5.909   0.538 130.156  0.00  0.00    +0.043 C 
ATOM     23  C   LIG A   1      -7.261   1.423 128.273  0.00  0.00    +0.020 C 
ENDROOT
BRANCH  22  24
ATOM     24  C   LIG A   1      -6.583  -0.361 131.161  0.00  0.00    +0.043 C 
ATOM     25  C   LIG A   1      -6.234  -0.597 132.440  0.00  0.00    +0.057 C 
ATOM     26  C   LIG A   1      -7.043  -1.658 133.043  0.00  0.00    +0.334 C 
ATOM     27  O   LIG A   1      -8.008  -1.956 132.049  0.00  0.00    -0.428 OA
ATOM     28  C   LIG A   1      -7.597  -1.379 130.887  0.00  0.00    +0.338 C 
ATOM     29  O   LIG A   1      -7.981  -1.673 129.813  0.00  0.00    -0.245 OA
BRANCH  26  30
ATOM     30  O   LIG A   1      -6.224  -2.793 133.263  0.00  0.00    -0.354 OA
ATOM     31  H   LIG A   1      -6.806  -3.567 133.170  0.00  0.00    +0.214 HD
ENDBRANCH  26  30
ENDBRANCH  22  24
BRANCH   7  32
ATOM     32  O   LIG A   1      -2.052   6.214 128.658  0.00  0.00    -0.503 OA
ATOM     33  H   LIG A   1      -2.241   6.369 127.706  0.00  0.00    +0.292 HD
ENDBRANCH   7  32
BRANCH  10  34
ATOM     34  C   LIG A   1      -2.849   7.210 132.645  0.00  0.00    +0.325 C 
ATOM     35  O   LIG A   1      -3.134   6.976 133.813  0.00  0.00    -0.249 OA
BRANCH  34  36
ATOM     36  O   LIG A   1      -2.820   8.465 132.102  0.00  0.00    -0.467 OA
ATOM     37  C   LIG A   1      -2.269   9.521 132.891  0.00  0.00    +0.280 C 
ENDBRANCH  34  36
ENDBRANCH  10  34
BRANCH  16  38
ATOM     38  O   LIG A   1      -8.364   4.804 129.231  0.00  0.00    -0.457 OA
BRANCH  38  39
ATOM     39  C   LIG A   1      -9.491   5.396 129.728  0.00  0.00    +0.304 C 
ATOM     40  O   LIG A   1     -10.604   4.890 129.746  0.00  0.00    -0.251 OA
ATOM     41  C   LIG A   1      -9.182   6.742 130.311  0.00  0.00    +0.136 C 
ENDBRANCH  38  39
ENDBRANCH  16  38
BRANCH  17  42
ATOM     42  O   LIG A   1      -7.395   2.595 131.865  0.00  0.00    -0.457 OA
BRANCH  42  43
ATOM     43  C   LIG A   1      -8.567   2.392 132.558  0.00  0.00    +0.310 C 
ATOM     44  O   LIG A   1      -9.434   1.581 132.243  0.00  0.00    -0.251 OA
BRANCH  43  45
ATOM     45  C   LIG A   1      -8.685   3.339 133.755  0.00  0.00    +0.092 C 
ATOM     46  C   LIG A   1      -7.331   3.687 134.367  0.00  0.00    +0.019 C 
ATOM     47  C   LIG A   1      -9.325   4.671 133.349  0.00  0.00    +0.019 C 
ENDBRANCH  43  45
ENDBRANCH  42  43
ENDBRANCH  17  42
TORSDOF 10
ENDMDL
MODEL 4
REMARK VINA RESULT:      -8.0      2.385      6.220
REMARK  Name = NuBBE_1601
REMARK  18 active torsions:
REMARK  status: ('A' for Active; 'I' for Inactive)
REMARK    1  A    between atoms: C_1  and  C_2
REMARK    2  A    between atoms: C_5  and  C_6
REMARK    3  A    between atoms: C_8  and  O_11
REMARK    4  A    between atoms: C_12  and  C_13
REMARK    5  A    between atoms: C_12  and  C_17
REMARK    6  A    between atoms: C_13  and  O_15
REMARK    7  A    between atoms: O_15  and  C_16
REMARK    8  A    between atoms: C_22  and  O_24
REMARK    9  A    between atoms: O_24  and  C_25
REMARK   10  A    between atoms: C_25  and  C_27
REMARK   11  A    between atoms: C_28  and  O_44
REMARK   12  A    between atoms: C_30  and  C_43
REMARK   13  A    between atoms: C_34  and  C_36
REMARK   14  A    between atoms: C_38  and  O_42
REMARK   15  A    between atoms: O_44  and  C_45
REMARK   16  A    between atoms: C_45  and  C_47
REMARK   17  A    between atoms: C_47  and  C_48
REMARK   18  A    between atoms: C_47  and  C_49
REMARK                            x       y       z     vdW  Elec       q    Type
REMARK                         _______ _______ _______ _____ _____    ______ ____
ROOT
ATOM      1  C   LIG A   1      -6.181   4.846 129.190  0.00  0.00    +0.024 C 
ATOM      2  C   LIG A   1      -6.831   3.570 128.597  0.00  0.00    +0.063 C 
ATOM      3  C   LIG A   1      -5.802   2.696 127.856  0.00  0.00    +0.065 C 
ATOM      4  C   LIG A   1      -6.465   1.676 126.790  0.00  0.00    +0.020 C 
ATOM      5  C   LIG A   1      -5.279   1.256 125.872  0.00  0.00    +0.021 C 
ATOM      6  C   LIG A   1      -7.552   2.342 125.897  0.00  0.00    +0.009 C 
ATOM      7  C   LIG A   1      -8.015   3.567 126.207  0.00  0.00    +0.162 C 
ATOM      8  C   LIG A   1      -7.803   4.181 127.558  0.00  0.00    +0.207 C 
ATOM      9  O   LIG A   1      -8.499   5.179 127.791  0.00  0.00    -0.288 OA
ATOM     10  C   LIG A   1      -8.316   1.389 124.890  0.00  0.00    +0.152 C 
ATOM     11  C   LIG A   1      -9.456   2.010 124.041  0.00  0.00    +0.036 C 
ATOM     12  C   LIG A   1      -9.014   0.380 125.820  0.00  0.00    +0.176 C 
ATOM     13  O   LIG A   1     -10.141  -0.079 125.632  0.00  0.00    -0.291 OA
ATOM     14  C   LIG A   1      -8.271  -0.115 127.004  0.00  0.00    +0.044 C 
ATOM     15  C   LIG A   1      -7.141   0.476 127.417  0.00  0.00    -0.012 C 
ATOM     16  C   LIG A   1      -4.748   2.073 128.868  0.00  0.00    +0.223 C 
ATOM     17  C   LIG A   1      -5.259   1.450 130.241  0.00  0.00    +0.228 C 
ATOM     18  C   LIG A   1      -6.593   2.081 130.821  0.00  0.00    +0.038 C 
ATOM     19  C   LIG A   1      -7.445   2.681 129.675  0.00  0.00    -0.050 C 
ATOM     20  C   LIG A   1      -8.672   2.137 129.631  0.00  0.00    -0.025 C 
ATOM     21  C   LIG A   1      -8.870   1.038 130.621  0.00  0.00    +0.036 C 
ATOM     22  C   LIG A   1      -7.682   1.180 131.589  0.00  0.00    +0.043 C 
ATOM     23  C   LIG A   1      -6.232   3.173 131.873  0.00  0.00    +0.020 C 
ENDROOT
BRANCH  22  24
ATOM     24  C   LIG A   1      -7.375  -0.052 132.402  0.00  0.00    +0.043 C 
ATOM     25  C   LIG A   1      -7.817  -1.311 132.216  0.00  0.00    +0.057 C 
ATOM     26  C   LIG A   1      -7.426  -2.197 133.314  0.00  0.00    +0.334 C 
ATOM     27  O   LIG A   1      -6.592  -1.388 134.125  0.00  0.00    -0.428 OA
ATOM     28  C   LIG A   1      -6.755  -0.096 133.726  0.00  0.00    +0.338 C 
ATOM     29  O   LIG A   1      -6.464   0.850 134.365  0.00  0.00    -0.245 OA
BRANCH  26  30
ATOM     30  O   LIG A   1      -8.584  -2.563 134.044  0.00  0.00    -0.354 OA
ATOM     31  H   LIG A   1      -9.173  -1.789 134.022  0.00  0.00    +0.214 HD
ENDBRANCH  26  30
ENDBRANCH  22  24
BRANCH   7  32
ATOM     32  O   LIG A   1      -8.888   4.261 125.393  0.00  0.00    -0.503 OA
ATOM     33  H   LIG A   1      -9.315   4.929 125.972  0.00  0.00    +0.292 HD
ENDBRANCH   7  32
BRANCH  10  34
ATOM     34  C   LIG A   1      -7.443   0.643 123.860  0.00  0.00    +0.325 C 
ATOM     35  O   LIG A   1      -6.792   1.182 122.973  0.00  0.00    -0.249 OA
BRANCH  34  36
ATOM     36  O   LIG A   1      -7.481  -0.708 124.067  0.00  0.00    -0.467 OA
ATOM     37  C   LIG A   1      -6.382  -1.487 123.590  0.00  0.00    +0.280 C 
ENDBRANCH  34  36
ENDBRANCH  10  34
BRANCH  16  38
ATOM     38  O   LIG A   1      -3.736   3.086 129.165  0.00  0.00    -0.457 OA
BRANCH  38  39
ATOM     39  C   LIG A   1      -2.912   3.452 128.137  0.00  0.00    +0.304 C 
ATOM     40  O   LIG A   1      -2.414   2.684 127.327  0.00  0.00    -0.251 OA
ATOM     41  C   LIG A   1      -2.734   4.939 128.090  0.00  0.00    +0.136 C 
ENDBRANCH  38  39
ENDBRANCH  16  38
BRANCH  17  42
ATOM     42  O   LIG A   1      -5.341   0.008 130.004  0.00  0.00    -0.457 OA
BRANCH  42  43
ATOM     43  C   LIG A   1      -4.425  -0.779 130.663  0.00  0.00    +0.310 C 
ATOM     44  O   LIG A   1      -3.803  -0.439 131.665  0.00  0.00    -0.251 OA
BRANCH  43  45
ATOM     45  C   LIG A   1      -4.237  -2.129 129.965  0.00  0.00    +0.092 C 
ATOM     46  C   LIG A   1      -4.867  -3.285 130.736  0.00  0.00    +0.019 C 
ATOM     47  C   LIG A   1      -4.890  -2.134 128.579  0.00  0.00    +0.019 C 
ENDBRANCH  43  45
ENDBRANCH  42  43
ENDBRANCH  17  42
TORSDOF 10
ENDMDL
MODEL 5
REMARK VINA RESULT:      -8.0      2.262      5.513
REMARK  Name = NuBBE_1601
REMARK  18 active torsions:
REMARK  status: ('A' for Active; 'I' for Inactive)
REMARK    1  A    between atoms: C_1  and  C_2
REMARK    2  A    between atoms: C_5  and  C_6
REMARK    3  A    between atoms: C_8  and  O_11
REMARK    4  A    between atoms: C_12  and  C_13
REMARK    5  A    between atoms: C_12  and  C_17
REMARK    6  A    between atoms: C_13  and  O_15
REMARK    7  A    between atoms: O_15  and  C_16
REMARK    8  A    between atoms: C_22  and  O_24
REMARK    9  A    between atoms: O_24  and  C_25
REMARK   10  A    between atoms: C_25  and  C_27
REMARK   11  A    between atoms: C_28  and  O_44
REMARK   12  A    between atoms: C_30  and  C_43
REMARK   13  A    between atoms: C_34  and  C_36
REMARK   14  A    between atoms: C_38  and  O_42
REMARK   15  A    between atoms: O_44  and  C_45
REMARK   16  A    between atoms: C_45  and  C_47
REMARK   17  A    between atoms: C_47  and  C_48
REMARK   18  A    between atoms: C_47  and  C_49
REMARK                            x       y       z     vdW  Elec       q    Type
REMARK                         _______ _______ _______ _____ _____    ______ ____
ROOT
ATOM      1  C   LIG A   1      -5.372   1.938 127.342  0.00  0.00    +0.024 C 
ATOM      2  C   LIG A   1      -5.772   1.677 128.817  0.00  0.00    +0.063 C 
ATOM      3  C   LIG A   1      -4.793   2.343 129.801  0.00  0.00    +0.065 C 
ATOM      4  C   LIG A   1      -4.821   1.695 131.283  0.00  0.00    +0.020 C 
ATOM      5  C   LIG A   1      -3.494   2.177 131.939  0.00  0.00    +0.021 C 
ATOM      6  C   LIG A   1      -4.814   0.139 131.272  0.00  0.00    +0.009 C 
ATOM      7  C   LIG A   1      -5.018  -0.525 130.119  0.00  0.00    +0.162 C 
ATOM      8  C   LIG A   1      -5.603   0.141 128.909  0.00  0.00    +0.207 C 
ATOM      9  O   LIG A   1      -5.979  -0.634 128.019  0.00  0.00    -0.288 OA
ATOM     10  C   LIG A   1      -4.935  -0.575 132.680  0.00  0.00    +0.152 C 
ATOM     11  C   LIG A   1      -5.006  -2.125 132.694  0.00  0.00    +0.036 C 
ATOM     12  C   LIG A   1      -6.308  -0.107 133.196  0.00  0.00    +0.176 C 
ATOM     13  O   LIG A   1      -7.094  -0.814 133.827  0.00  0.00    -0.291 OA
ATOM     14  C   LIG A   1      -6.703   1.302 132.962  0.00  0.00    +0.044 C 
ATOM     15  C   LIG A   1      -6.029   2.084 132.107  0.00  0.00    -0.012 C 
ATOM     16  C   LIG A   1      -4.890   3.926 129.721  0.00  0.00    +0.223 C 
ATOM     17  C   LIG A   1      -6.324   4.617 129.665  0.00  0.00    +0.228 C 
ATOM     18  C   LIG A   1      -7.475   3.747 129.008  0.00  0.00    +0.038 C 
ATOM     19  C   LIG A   1      -7.153   2.240 129.147  0.00  0.00    -0.050 C 
ATOM     20  C   LIG A   1      -8.127   1.581 129.795  0.00  0.00    -0.025 C 
ATOM     21  C   LIG A   1      -9.214   2.472 130.297  0.00  0.00    +0.036 C 
ATOM     22  C   LIG A   1      -8.986   3.803 129.558  0.00  0.00    +0.043 C 
ATOM     23  C   LIG A   1      -7.629   4.146 127.509  0.00  0.00    +0.020 C 
ENDROOT
BRANCH  22  24
ATOM     24  C   LIG A   1      -9.637   5.003 130.196  0.00  0.00    +0.043 C 
ATOM     25  C   LIG A   1     -10.060   5.151 131.466  0.00  0.00    +0.057 C 
ATOM     26  C   LIG A   1     -10.788   6.406 131.659  0.00  0.00    +0.334 C 
ATOM     27  O   LIG A   1     -10.657   7.071 130.415  0.00  0.00    -0.428 OA
ATOM     28  C   LIG A   1     -10.199   6.165 129.508  0.00  0.00    +0.338 C 
ATOM     29  O   LIG A   1     -10.269   6.285 128.338  0.00  0.00    -0.245 OA
BRANCH  26  30
ATOM     30  O   LIG A   1     -12.154   6.113 131.896  0.00  0.00    -0.354 OA
ATOM     31  H   LIG A   1     -12.219   5.143 131.939  0.00  0.00    +0.214 HD
ENDBRANCH  26  30
ENDBRANCH  22  24
BRANCH   7  32
ATOM     32  O   LIG A   1      -4.906  -1.897 130.019  0.00  0.00    -0.503 OA
ATOM     33  H   LIG A   1      -5.598  -2.263 130.614  0.00  0.00    +0.292 HD
ENDBRANCH   7  32
BRANCH  10  34
ATOM     34  C   LIG A   1      -3.839  -0.239 133.712  0.00  0.00    +0.325 C 
ATOM     35  O   LIG A   1      -4.027   0.360 134.764  0.00  0.00    -0.249 OA
BRANCH  34  36
ATOM     36  O   LIG A   1      -2.619  -0.705 133.306  0.00  0.00    -0.467 OA
ATOM     37  C   LIG A   1      -1.762  -1.281 134.294  0.00  0.00    +0.280 C 
ENDBRANCH  34  36
ENDBRANCH  10  34
BRANCH  16  38
ATOM     38  O   LIG A   1      -4.110   4.381 128.571  0.00  0.00    -0.457 OA
BRANCH  38  39
ATOM     39  C   LIG A   1      -3.732   5.695 128.566  0.00  0.00    +0.304 C 
ATOM     40  O   LIG A   1      -4.197   6.560 127.837  0.00  0.00    -0.251 OA
ATOM     41  C   LIG A   1      -2.701   5.965 129.619  0.00  0.00    +0.136 C 
ENDBRANCH  38  39
ENDBRANCH  16  38
BRANCH  17  42
ATOM     42  O   LIG A   1      -6.608   5.030 131.040  0.00  0.00    -0.457 OA
BRANCH  42  43
ATOM     43  C   LIG A   1      -6.142   6.268 131.422  0.00  0.00    +0.310 C 
ATOM     44  O   LIG A   1      -6.105   7.256 130.695  0.00  0.00    -0.251 OA
BRANCH  43  45
ATOM     45  C   LIG A   1      -5.628   6.256 132.864  0.00  0.00    +0.092 C 
ATOM     46  C   LIG A   1      -6.509   5.432 133.798  0.00  0.00    +0.019 C 
ATOM     47  C   LIG A   1      -4.226   5.644 132.950  0.00  0.00    +0.019 C 
ENDBRANCH  43  45
ENDBRANCH  42  43
ENDBRANCH  17  42
TORSDOF 10
ENDMDL
MODEL 6
REMARK VINA RESULT:      -7.8      1.762      3.008
REMARK  Name = NuBBE_1601
REMARK  18 active torsions:
REMARK  status: ('A' for Active; 'I' for Inactive)
REMARK    1  A    between atoms: C_1  and  C_2
REMARK    2  A    between atoms: C_5  and  C_6
REMARK    3  A    between atoms: C_8  and  O_11
REMARK    4  A    between atoms: C_12  and  C_13
REMARK    5  A    between atoms: C_12  and  C_17
REMARK    6  A    between atoms: C_13  and  O_15
REMARK    7  A    between atoms: O_15  and  C_16
REMARK    8  A    between atoms: C_22  and  O_24
REMARK    9  A    between atoms: O_24  and  C_25
REMARK   10  A    between atoms: C_25  and  C_27
REMARK   11  A    between atoms: C_28  and  O_44
REMARK   12  A    between atoms: C_30  and  C_43
REMARK   13  A    between atoms: C_34  and  C_36
REMARK   14  A    between atoms: C_38  and  O_42
REMARK   15  A    between atoms: O_44  and  C_45
REMARK   16  A    between atoms: C_45  and  C_47
REMARK   17  A    between atoms: C_47  and  C_48
REMARK   18  A    between atoms: C_47  and  C_49
REMARK                            x       y       z     vdW  Elec       q    Type
REMARK                         _______ _______ _______ _____ _____    ______ ____
ROOT
ATOM      1  C   LIG A   1      -7.455   3.163 134.137  0.00  0.00    +0.024 C 
ATOM      2  C   LIG A   1      -6.625   2.317 133.139  0.00  0.00    +0.063 C 
ATOM      3  C   LIG A   1      -7.492   1.779 131.986  0.00  0.00    +0.065 C 
ATOM      4  C   LIG A   1      -6.853   0.497 131.236  0.00  0.00    +0.020 C 
ATOM      5  C   LIG A   1      -8.050  -0.134 130.466  0.00  0.00    +0.021 C 
ATOM      6  C   LIG A   1      -6.296  -0.574 132.218  0.00  0.00    +0.009 C 
ATOM      7  C   LIG A   1      -6.167  -0.281 133.526  0.00  0.00    +0.162 C 
ATOM      8  C   LIG A   1      -6.194   1.129 134.033  0.00  0.00    +0.207 C 
ATOM      9  O   LIG A   1      -5.802   1.270 135.200  0.00  0.00    -0.288 OA
ATOM     10  C   LIG A   1      -5.569  -1.819 131.564  0.00  0.00    +0.152 C 
ATOM     11  C   LIG A   1      -4.938  -2.865 132.520  0.00  0.00    +0.036 C 
ATOM     12  C   LIG A   1      -4.378  -1.182 130.825  0.00  0.00    +0.176 C 
ATOM     13  O   LIG A   1      -3.255  -1.683 130.751  0.00  0.00    -0.291 OA
ATOM     14  C   LIG A   1      -4.596   0.100 130.113  0.00  0.00    +0.044 C 
ATOM     15  C   LIG A   1      -5.702   0.829 130.311  0.00  0.00    -0.012 C 
ATOM     16  C   LIG A   1      -8.002   2.961 131.054  0.00  0.00    +0.223 C 
ATOM     17  C   LIG A   1      -6.983   4.105 130.620  0.00  0.00    +0.228 C 
ATOM     18  C   LIG A   1      -5.803   4.391 131.640  0.00  0.00    +0.038 C 
ATOM     19  C   LIG A   1      -5.508   3.129 132.485  0.00  0.00    -0.050 C 
ATOM     20  C   LIG A   1      -4.230   2.735 132.361  0.00  0.00    -0.025 C 
ATOM     21  C   LIG A   1      -3.453   3.544 131.378  0.00  0.00    +0.036 C 
ATOM     22  C   LIG A   1      -4.330   4.784 131.128  0.00  0.00    +0.043 C 
ATOM     23  C   LIG A   1      -6.193   5.592 132.554  0.00  0.00    +0.020 C 
ENDROOT
BRANCH  22  24
ATOM     24  C   LIG A   1      -4.020   5.536 129.859  0.00  0.00    +0.043 C 
ATOM     25  C   LIG A   1      -3.127   5.228 128.899  0.00  0.00    +0.057 C 
ATOM     26  C   LIG A   1      -3.004   6.293 127.902  0.00  0.00    +0.334 C 
ATOM     27  O   LIG A   1      -4.003   7.225 128.275  0.00  0.00    -0.428 OA
ATOM     28  C   LIG A   1      -4.424   6.903 129.529  0.00  0.00    +0.338 C 
ATOM     29  O   LIG A   1      -5.005   7.626 130.254  0.00  0.00    -0.245 OA
BRANCH  26  30
ATOM     30  O   LIG A   1      -1.727   6.894 128.026  0.00  0.00    -0.354 OA
ATOM     31  H   LIG A   1      -1.133   6.387 127.445  0.00  0.00    +0.214 HD
ENDBRANCH  26  30
ENDBRANCH  22  24
BRANCH   7  32
ATOM     32  O   LIG A   1      -5.793  -1.221 134.466  0.00  0.00    -0.503 OA
ATOM     33  H   LIG A   1      -5.352  -1.939 133.961  0.00  0.00    +0.292 HD
ENDBRANCH   7  32
BRANCH  10  34
ATOM     34  C   LIG A   1      -6.410  -2.663 130.585  0.00  0.00    +0.325 C 
ATOM     35  O   LIG A   1      -7.454  -3.237 130.872  0.00  0.00    -0.249 OA
BRANCH  34  36
ATOM     36  O   LIG A   1      -5.842  -2.686 129.341  0.00  0.00    -0.467 OA
ATOM     37  C   LIG A   1      -6.706  -2.542 128.211  0.00  0.00    +0.280 C 
ENDBRANCH  34  36
ENDBRANCH  10  34
BRANCH  16  38
ATOM     38  O   LIG A   1      -9.160   3.587 131.691  0.00  0.00    -0.457 OA
BRANCH  38  39
ATOM     39  C   LIG A   1     -10.096   4.136 130.859  0.00  0.00    +0.304 C 
ATOM     40  O   LIG A   1     -10.623   3.564 129.916  0.00  0.00    -0.251 OA
ATOM     41  C   LIG A   1     -10.445   5.530 131.285  0.00  0.00    +0.136 C 
ENDBRANCH  38  39
ENDBRANCH  16  38
BRANCH  17  42
ATOM     42  O   LIG A   1      -6.528   3.729 129.281  0.00  0.00    -0.457 OA
BRANCH  42  43
ATOM     43  C   LIG A   1      -7.356   4.059 128.231  0.00  0.00    +0.310 C 
ATOM     44  O   LIG A   1      -8.071   5.056 128.192  0.00  0.00    -0.251 OA
BRANCH  43  45
ATOM     45  C   LIG A   1      -7.314   3.001 127.126  0.00  0.00    +0.092 C 
ATOM     46  C   LIG A   1      -5.928   2.386 126.950  0.00  0.00    +0.019 C 
ATOM     47  C   LIG A   1      -8.260   1.836 127.435  0.00  0.00    +0.019 C 
ENDBRANCH  43  45
ENDBRANCH  42  43
ENDBRANCH  17  42
TORSDOF 10
ENDMDL
MODEL 7
REMARK VINA RESULT:      -7.7      2.092      7.256
REMARK  Name = NuBBE_1601
REMARK  18 active torsions:
REMARK  status: ('A' for Active; 'I' for Inactive)
REMARK    1  A    between atoms: C_1  and  C_2
REMARK    2  A    between atoms: C_5  and  C_6
REMARK    3  A    between atoms: C_8  and  O_11
REMARK    4  A    between atoms: C_12  and  C_13
REMARK    5  A    between atoms: C_12  and  C_17
REMARK    6  A    between atoms: C_13  and  O_15
REMARK    7  A    between atoms: O_15  and  C_16
REMARK    8  A    between atoms: C_22  and  O_24
REMARK    9  A    between atoms: O_24  and  C_25
REMARK   10  A    between atoms: C_25  and  C_27
REMARK   11  A    between atoms: C_28  and  O_44
REMARK   12  A    between atoms: C_30  and  C_43
REMARK   13  A    between atoms: C_34  and  C_36
REMARK   14  A    between atoms: C_38  and  O_42
REMARK   15  A    between atoms: O_44  and  C_45
REMARK   16  A    between atoms: C_45  and  C_47
REMARK   17  A    between atoms: C_47  and  C_48
REMARK   18  A    between atoms: C_47  and  C_49
REMARK                            x       y       z     vdW  Elec       q    Type
REMARK                         _______ _______ _______ _____ _____    ______ ____
ROOT
ATOM      1  C   LIG A   1      -8.800   2.413 131.692  0.00  0.00    +0.024 C 
ATOM      2  C   LIG A   1      -7.880   2.193 130.464  0.00  0.00    +0.063 C 
ATOM      3  C   LIG A   1      -6.435   2.643 130.745  0.00  0.00    +0.065 C 
ATOM      4  C   LIG A   1      -5.578   2.946 129.407  0.00  0.00    +0.020 C 
ATOM      5  C   LIG A   1      -4.371   3.793 129.907  0.00  0.00    +0.021 C 
ATOM      6  C   LIG A   1      -6.356   3.790 128.358  0.00  0.00    +0.009 C 
ATOM      7  C   LIG A   1      -7.678   3.994 128.508  0.00  0.00    +0.162 C 
ATOM      8  C   LIG A   1      -8.512   3.162 129.435  0.00  0.00    +0.207 C 
ATOM      9  O   LIG A   1      -9.736   3.277 129.279  0.00  0.00    -0.288 OA
ATOM     10  C   LIG A   1      -5.622   4.051 126.979  0.00  0.00    +0.152 C 
ATOM     11  C   LIG A   1      -6.402   4.826 125.886  0.00  0.00    +0.036 C 
ATOM     12  C   LIG A   1      -5.432   2.635 126.407  0.00  0.00    +0.176 C 
ATOM     13  O   LIG A   1      -5.538   2.344 125.216  0.00  0.00    -0.291 OA
ATOM     14  C   LIG A   1      -5.052   1.545 127.339  0.00  0.00    +0.044 C 
ATOM     15  C   LIG A   1      -5.125   1.705 128.667  0.00  0.00    -0.012 C 
ATOM     16  C   LIG A   1      -5.745   1.709 131.829  0.00  0.00    +0.223 C 
ATOM     17  C   LIG A   1      -5.924   0.130 131.724  0.00  0.00    +0.228 C 
ATOM     18  C   LIG A   1      -7.266  -0.360 131.036  0.00  0.00    +0.038 C 
ATOM     19  C   LIG A   1      -7.796   0.722 130.064  0.00  0.00    -0.050 C 
ATOM     20  C   LIG A   1      -7.927   0.246 128.815  0.00  0.00    -0.025 C 
ATOM     21  C   LIG A   1      -7.443  -1.157 128.660  0.00  0.00    +0.036 C 
ATOM     22  C   LIG A   1      -7.300  -1.671 130.104  0.00  0.00    +0.043 C 
ATOM     23  C   LIG A   1      -8.322  -0.681 132.137  0.00  0.00    +0.020 C 
ENDROOT
BRANCH  22  24
ATOM     24  C   LIG A   1      -6.409  -2.876 130.264  0.00  0.00    +0.043 C 
ATOM     25  C   LIG A   1      -6.325  -3.725 131.306  0.00  0.00    +0.057 C 
ATOM     26  C   LIG A   1      -5.223  -4.676 131.152  0.00  0.00    +0.334 C 
ATOM     27  O   LIG A   1      -4.723  -4.410 129.853  0.00  0.00    -0.428 OA
ATOM     28  C   LIG A   1      -5.250  -3.225 129.441  0.00  0.00    +0.338 C 
ATOM     29  O   LIG A   1      -4.822  -2.562 128.567  0.00  0.00    -0.245 OA
BRANCH  26  30
ATOM     30  O   LIG A   1      -4.224  -4.383 132.113  0.00  0.00    -0.354 OA
ATOM     31  H   LIG A   1      -3.976  -5.234 132.513  0.00  0.00    +0.214 HD
ENDBRANCH  26  30
ENDBRANCH  22  24
BRANCH   7  32
ATOM     32  O   LIG A   1      -8.402   4.829 127.681  0.00  0.00    -0.503 OA
ATOM     33  H   LIG A   1      -8.618   5.618 128.225  0.00  0.00    +0.292 HD
ENDBRANCH   7  32
BRANCH  10  34
ATOM     34  C   LIG A   1      -4.262   4.777 127.057  0.00  0.00    +0.325 C 
ATOM     35  O   LIG A   1      -3.180   4.268 126.791  0.00  0.00    -0.249 OA
BRANCH  34  36
ATOM     36  O   LIG A   1      -4.419   6.075 127.456  0.00  0.00    -0.467 OA
ATOM     37  C   LIG A   1      -3.290   6.737 128.032  0.00  0.00    +0.280 C 
ENDBRANCH  34  36
ENDBRANCH  10  34
BRANCH  16  38
ATOM     38  O   LIG A   1      -6.183   2.139 133.157  0.00  0.00    -0.457 OA
BRANCH  38  39
ATOM     39  C   LIG A   1      -5.638   3.297 133.638  0.00  0.00    +0.304 C 
ATOM     40  O   LIG A   1      -4.472   3.638 133.498  0.00  0.00    -0.251 OA
ATOM     41  C   LIG A   1      -6.673   4.138 134.321  0.00  0.00    +0.136 C 
ENDBRANCH  38  39
ENDBRANCH  16  38
BRANCH  17  42
ATOM     42  O   LIG A   1      -4.711  -0.353 131.064  0.00  0.00    -0.457 OA
BRANCH  42  43
ATOM     43  C   LIG A   1      -3.777  -0.972 131.864  0.00  0.00    +0.310 C 
ATOM     44  O   LIG A   1      -2.944  -1.782 131.467  0.00  0.00    -0.251 OA
BRANCH  43  45
ATOM     45  C   LIG A   1      -3.931  -0.562 133.330  0.00  0.00    +0.092 C 
ATOM     46  C   LIG A   1      -3.816  -1.744 134.289  0.00  0.00    +0.019 C 
ATOM     47  C   LIG A   1      -2.842   0.432 133.747  0.00  0.00    +0.019 C 
ENDBRANCH  43  45
ENDBRANCH  42  43
ENDBRANCH  17  42
TORSDOF 10
ENDMDL
MODEL 8
REMARK VINA RESULT:      -7.7      2.266      4.983
REMARK  Name = NuBBE_1601
REMARK  18 active torsions:
REMARK  status: ('A' for Active; 'I' for Inactive)
REMARK    1  A    between atoms: C_1  and  C_2
REMARK    2  A    between atoms: C_5  and  C_6
REMARK    3  A    between atoms: C_8  and  O_11
REMARK    4  A    between atoms: C_12  and  C_13
REMARK    5  A    between atoms: C_12  and  C_17
REMARK    6  A    between atoms: C_13  and  O_15
REMARK    7  A    between atoms: O_15  and  C_16
REMARK    8  A    between atoms: C_22  and  O_24
REMARK    9  A    between atoms: O_24  and  C_25
REMARK   10  A    between atoms: C_25  and  C_27
REMARK   11  A    between atoms: C_28  and  O_44
REMARK   12  A    between atoms: C_30  and  C_43
REMARK   13  A    between atoms: C_34  and  C_36
REMARK   14  A    between atoms: C_38  and  O_42
REMARK   15  A    between atoms: O_44  and  C_45
REMARK   16  A    between atoms: C_45  and  C_47
REMARK   17  A    between atoms: C_47  and  C_48
REMARK   18  A    between atoms: C_47  and  C_49
REMARK                            x       y       z     vdW  Elec       q    Type
REMARK                         _______ _______ _______ _____ _____    ______ ____
ROOT
ATOM      1  C   LIG A   1      -7.370  -0.769 128.075  0.00  0.00    +0.024 C 
ATOM      2  C   LIG A   1      -7.138  -0.566 129.594  0.00  0.00    +0.063 C 
ATOM      3  C   LIG A   1      -5.701  -0.103 129.896  0.00  0.00    +0.065 C 
ATOM      4  C   LIG A   1      -5.235  -0.384 131.419  0.00  0.00    +0.020 C 
ATOM      5  C   LIG A   1      -3.682  -0.278 131.372  0.00  0.00    +0.021 C 
ATOM      6  C   LIG A   1      -5.605  -1.809 131.921  0.00  0.00    +0.009 C 
ATOM      7  C   LIG A   1      -6.442  -2.578 131.200  0.00  0.00    +0.162 C 
ATOM      8  C   LIG A   1      -7.317  -2.010 130.124  0.00  0.00    +0.207 C 
ATOM      9  O   LIG A   1      -8.216  -2.766 129.731  0.00  0.00    -0.288 OA
ATOM     10  C   LIG A   1      -5.267  -2.133 133.434  0.00  0.00    +0.152 C 
ATOM     11  C   LIG A   1      -5.692  -3.520 133.983  0.00  0.00    +0.036 C 
ATOM     12  C   LIG A   1      -6.122  -1.116 134.211  0.00  0.00    +0.176 C 
ATOM     13  O   LIG A   1      -6.699  -1.356 135.272  0.00  0.00    -0.291 OA
ATOM     14  C   LIG A   1      -6.231   0.263 133.678  0.00  0.00    +0.044 C 
ATOM     15  C   LIG A   1      -5.832   0.566 132.435  0.00  0.00    -0.012 C 
ATOM     16  C   LIG A   1      -5.442   1.361 129.337  0.00  0.00    +0.223 C 
ATOM     17  C   LIG A   1      -6.546   2.486 129.560  0.00  0.00    +0.228 C 
ATOM     18  C   LIG A   1      -8.040   1.964 129.673  0.00  0.00    +0.038 C 
ATOM     19  C   LIG A   1      -8.059   0.502 130.180  0.00  0.00    -0.050 C 
ATOM     20  C   LIG A   1      -8.780   0.376 131.306  0.00  0.00    -0.025 C 
ATOM     21  C   LIG A   1      -9.292   1.675 131.832  0.00  0.00    +0.036 C 
ATOM     22  C   LIG A   1      -9.098   2.660 130.664  0.00  0.00    +0.043 C 
ATOM     23  C   LIG A   1      -8.731   2.078 128.280  0.00  0.00    +0.020 C 
ENDROOT
BRANCH  22  24
ATOM     24  C   LIG A   1      -9.099   4.116 131.055  0.00  0.00    +0.043 C 
ATOM     25  C   LIG A   1      -8.914   4.657 132.274  0.00  0.00    +0.057 C 
ATOM     26  C   LIG A   1      -9.151   6.101 132.275  0.00  0.00    +0.334 C 
ATOM     27  O   LIG A   1      -9.372   6.411 130.910  0.00  0.00    -0.428 OA
ATOM     28  C   LIG A   1      -9.574   5.240 130.247  0.00  0.00    +0.338 C 
ATOM     29  O   LIG A   1     -10.082   5.141 129.189  0.00  0.00    -0.245 OA
BRANCH  26  30
ATOM     30  O   LIG A   1     -10.326   6.375 133.018  0.00  0.00    -0.354 OA
ATOM     31  H   LIG A   1     -10.628   5.519 133.369  0.00  0.00    +0.214 HD
ENDBRANCH  26  30
ENDBRANCH  22  24
BRANCH   7  32
ATOM     32  O   LIG A   1      -6.715  -3.891 131.527  0.00  0.00    -0.503 OA
ATOM     33  H   LIG A   1      -5.884  -4.386 131.356  0.00  0.00    +0.292 HD
ENDBRANCH   7  32
BRANCH  10  34
ATOM     34  C   LIG A   1      -3.786  -2.003 133.846  0.00  0.00    +0.325 C 
ATOM     35  O   LIG A   1      -3.328  -1.104 134.542  0.00  0.00    -0.249 OA
BRANCH  34  36
ATOM     36  O   LIG A   1      -3.041  -3.030 133.337  0.00  0.00    -0.467 OA
ATOM     37  C   LIG A   1      -2.182  -3.739 134.234  0.00  0.00    +0.280 C 
ENDBRANCH  34  36
ENDBRANCH  10  34
BRANCH  16  38
ATOM     38  O   LIG A   1      -5.157   1.267 127.906  0.00  0.00    -0.457 OA
BRANCH  38  39
ATOM     39  C   LIG A   1      -4.656   2.388 127.304  0.00  0.00    +0.304 C 
ATOM     40  O   LIG A   1      -5.206   3.013 126.408  0.00  0.00    -0.251 OA
ATOM     41  C   LIG A   1      -3.356   2.799 127.925  0.00  0.00    +0.136 C 
ENDBRANCH  38  39
ENDBRANCH  16  38
BRANCH  17  42
ATOM     42  O   LIG A   1      -6.096   3.243 130.729  0.00  0.00    -0.457 OA
BRANCH  42  43
ATOM     43  C   LIG A   1      -5.566   4.491 130.490  0.00  0.00    +0.310 C 
ATOM     44  O   LIG A   1      -6.018   5.301 129.686  0.00  0.00    -0.251 OA
BRANCH  43  45
ATOM     45  C   LIG A   1      -4.304   4.736 131.322  0.00  0.00    +0.092 C 
ATOM     46  C   LIG A   1      -3.636   3.441 131.776  0.00  0.00    +0.019 C 
ATOM     47  C   LIG A   1      -3.248   5.502 130.519  0.00  0.00    +0.019 C 
ENDBRANCH  43  45
ENDBRANCH  42  43
ENDBRANCH  17  42
TORSDOF 10
ENDMDL
MODEL 9
REMARK VINA RESULT:      -7.5      1.967      4.936
REMARK  Name = NuBBE_1601
REMARK  18 active torsions:
REMARK  status: ('A' for Active; 'I' for Inactive)
REMARK    1  A    between atoms: C_1  and  C_2
REMARK    2  A    between atoms: C_5  and  C_6
REMARK    3  A    between atoms: C_8  and  O_11
REMARK    4  A    between atoms: C_12  and  C_13
REMARK    5  A    between atoms: C_12  and  C_17
REMARK    6  A    between atoms: C_13  and  O_15
REMARK    7  A    between atoms: O_15  and  C_16
REMARK    8  A    between atoms: C_22  and  O_24
REMARK    9  A    between atoms: O_24  and  C_25
REMARK   10  A    between atoms: C_25  and  C_27
REMARK   11  A    between atoms: C_28  and  O_44
REMARK   12  A    between atoms: C_30  and  C_43
REMARK   13  A    between atoms: C_34  and  C_36
REMARK   14  A    between atoms: C_38  and  O_42
REMARK   15  A    between atoms: O_44  and  C_45
REMARK   16  A    between atoms: C_45  and  C_47
REMARK   17  A    between atoms: C_47  and  C_48
REMARK   18  A    between atoms: C_47  and  C_49
REMARK                            x       y       z     vdW  Elec       q    Type
REMARK                         _______ _______ _______ _____ _____    ______ ____
ROOT
ATOM      1  C   LIG A   1      -6.142   1.894 125.977  0.00  0.00    +0.024 C 
ATOM      2  C   LIG A   1      -6.390   1.324 127.397  0.00  0.00    +0.063 C 
ATOM      3  C   LIG A   1      -5.144   1.455 128.292  0.00  0.00    +0.065 C 
ATOM      4  C   LIG A   1      -5.139   0.439 129.550  0.00  0.00    +0.020 C 
ATOM      5  C   LIG A   1      -3.655   0.415 130.019  0.00  0.00    +0.021 C 
ATOM      6  C   LIG A   1      -5.546  -1.013 129.168  0.00  0.00    +0.009 C 
ATOM      7  C   LIG A   1      -6.074  -1.265 127.956  0.00  0.00    +0.162 C 
ATOM      8  C   LIG A   1      -6.622  -0.175 127.084  0.00  0.00    +0.207 C 
ATOM      9  O   LIG A   1      -7.309  -0.567 126.131  0.00  0.00    -0.288 OA
ATOM     10  C   LIG A   1      -5.657  -2.050 130.359  0.00  0.00    +0.152 C 
ATOM     11  C   LIG A   1      -6.132  -3.487 130.018  0.00  0.00    +0.036 C 
ATOM     12  C   LIG A   1      -6.772  -1.457 131.240  0.00  0.00    +0.176 C 
ATOM     13  O   LIG A   1      -7.623  -2.124 131.830  0.00  0.00    -0.291 OA
ATOM     14  C   LIG A   1      -6.809   0.012 131.433  0.00  0.00    +0.044 C 
ATOM     15  C   LIG A   1      -6.076   0.836 130.671  0.00  0.00    -0.012 C 
ATOM     16  C   LIG A   1      -4.829   2.978 128.613  0.00  0.00    +0.223 C 
ATOM     17  C   LIG A   1      -6.022   3.953 129.015  0.00  0.00    +0.228 C 
ATOM     18  C   LIG A   1      -7.442   3.577 128.417  0.00  0.00    +0.038 C 
ATOM     19  C   LIG A   1      -7.514   2.058 128.124  0.00  0.00    -0.050 C 
ATOM     20  C   LIG A   1      -8.529   1.474 128.781  0.00  0.00    -0.025 C 
ATOM     21  C   LIG A   1      -9.262   2.402 129.690  0.00  0.00    +0.036 C 
ATOM     22  C   LIG A   1      -8.793   3.804 129.259  0.00  0.00    +0.043 C 
ATOM     23  C   LIG A   1      -7.689   4.404 127.119  0.00  0.00    +0.020 C 
ENDROOT
BRANCH  22  24
ATOM     24  C   LIG A   1      -9.009   4.889 130.283  0.00  0.00    +0.043 C 
ATOM     25  C   LIG A   1      -9.128   4.768 131.619  0.00  0.00    +0.057 C 
ATOM     26  C   LIG A   1      -9.493   6.036 132.253  0.00  0.00    +0.334 C 
ATOM     27  O   LIG A   1      -9.458   6.972 131.191  0.00  0.00    -0.428 OA
ATOM     28  C   LIG A   1      -9.410   6.272 130.024  0.00  0.00    +0.338 C 
ATOM     29  O   LIG A   1      -9.680   6.707 128.963  0.00  0.00    -0.245 OA
BRANCH  26  30
ATOM     30  O   LIG A   1     -10.815   5.937 132.753  0.00  0.00    -0.354 OA
ATOM     31  H   LIG A   1     -10.751   5.446 133.591  0.00  0.00    +0.214 HD
ENDBRANCH  26  30
ENDBRANCH  22  24
BRANCH   7  32
ATOM     32  O   LIG A   1      -6.345  -2.544 127.511  0.00  0.00    -0.503 OA
ATOM     33  H   LIG A   1      -5.865  -2.634 126.659  0.00  0.00    +0.292 HD
ENDBRANCH   7  32
BRANCH  10  34
ATOM     34  C   LIG A   1      -4.379  -2.266 131.198  0.00  0.00    +0.325 C 
ATOM     35  O   LIG A   1      -3.331  -2.733 130.769  0.00  0.00    -0.249 OA
BRANCH  34  36
ATOM     36  O   LIG A   1      -4.563  -1.860 132.490  0.00  0.00    -0.467 OA
ATOM     37  C   LIG A   1      -4.170  -2.755 133.533  0.00  0.00    +0.280 C 
ENDBRANCH  34  36
ENDBRANCH  10  34
BRANCH  16  38
ATOM     38  O   LIG A   1      -4.122   3.556 127.471  0.00  0.00    -0.457 OA
BRANCH  38  39
ATOM     39  C   LIG A   1      -2.817   3.912 127.671  0.00  0.00    +0.304 C 
ATOM     40  O   LIG A   1      -2.431   4.754 128.469  0.00  0.00    -0.251 OA
ATOM     41  C   LIG A   1      -1.896   3.090 126.821  0.00  0.00    +0.136 C 
ENDBRANCH  38  39
ENDBRANCH  16  38
BRANCH  17  42
ATOM     42  O   LIG A   1      -5.995   4.015 130.477  0.00  0.00    -0.457 OA
BRANCH  42  43
ATOM     43  C   LIG A   1      -4.911   4.642 131.049  0.00  0.00    +0.310 C 
ATOM     44  O   LIG A   1      -4.117   4.104 131.816  0.00  0.00    -0.251 OA
BRANCH  43  45
ATOM     45  C   LIG A   1      -4.836   6.117 130.646  0.00  0.00    +0.092 C 
ATOM     46  C   LIG A   1      -6.004   6.936 131.189  0.00  0.00    +0.019 C 
ATOM     47  C   LIG A   1      -3.564   6.777 131.187  0.00  0.00    +0.019 C 
ENDBRANCH  43  45
ENDBRANCH  42  43
ENDBRANCH  17  42
TORSDOF 10
ENDMDL
