MODEL 1
REMARK VINA RESULT:     -10.1      0.000      0.000
REMARK  Name = NuBBE_200
REMARK  9 active torsions:
REMARK  status: ('A' for Active; 'I' for Inactive)
REMARK    1  A    between atoms: O_1  and  C_2
REMARK    2  A    between atoms: C_4  and  O_5
REMARK    3  A    between atoms: C_9  and  C_10
REMARK    4  A    between atoms: C_12  and  C_13
REMARK    5  A    between atoms: C_14  and  O_15
REMARK    6  A    between atoms: C_17  and  O_18
REMARK    7  A    between atoms: C_22  and  C_23
REMARK    8  A    between atoms: C_26  and  O_27
REMARK    9  A    between atoms: C_33  and  O_34
REMARK                            x       y       z     vdW  Elec       q    Type
REMARK                         _______ _______ _______ _____ _____    ______ ____
ROOT
ATOM      1  C   LIG A   1      -7.256   3.761 128.301  0.00  0.00    +0.018 A 
ATOM      2  C   LIG A   1      -7.908   3.045 127.273  0.00  0.00    +0.024 A 
ATOM      3  C   LIG A   1      -7.216   2.432 126.197  0.00  0.00    +0.031 A 
ATOM      4  C   LIG A   1      -5.816   2.643 126.207  0.00  0.00    +0.125 A 
ATOM      5  C   LIG A   1      -5.168   3.417 127.178  0.00  0.00    +0.046 A 
ATOM      6  C   LIG A   1      -5.881   3.967 128.230  0.00  0.00    +0.015 A 
ENDROOT
BRANCH   1  13
ATOM      7  C   LIG A   1     -12.026   6.534 130.631  0.00  0.00    +0.124 A 
ATOM      8  C   LIG A   1     -11.584   6.761 131.931  0.00  0.00    +0.091 A 
ATOM      9  C   LIG A   1     -10.323   6.293 132.319  0.00  0.00    +0.135 A 
ATOM     10  C   LIG A   1      -9.512   5.595 131.409  0.00  0.00    +0.105 A 
ATOM     11  C   LIG A   1      -8.177   5.048 131.757  0.00  0.00    +0.197 A 
ATOM     12  C   LIG A   1      -7.419   4.434 130.649  0.00  0.00    +0.098 A 
ATOM     13  C   LIG A   1      -7.988   4.312 129.447  0.00  0.00    +0.139 A 
ATOM     14  O   LIG A   1      -9.260   4.738 129.137  0.00  0.00    -0.454 OA
ATOM     15  O   LIG A   1      -7.692   5.058 132.880  0.00  0.00    -0.287 OA
ATOM     16  C   LIG A   1      -9.976   5.394 130.106  0.00  0.00    +0.146 A 
ATOM     17  C   LIG A   1     -11.230   5.862 129.715  0.00  0.00    +0.092 A 
BRANCH   7  18
ATOM     18  O   LIG A   1     -13.249   6.958 130.206  0.00  0.00    -0.506 OA
ATOM     19  H   LIG A   1     -13.881   6.920 130.943  0.00  0.00    +0.292 HD
ENDBRANCH   7  18
BRANCH   9  20
ATOM     20  O   LIG A   1      -9.898   6.532 133.595  0.00  0.00    -0.506 OA
ATOM     21  H   LIG A   1      -9.438   7.384 133.650  0.00  0.00    +0.292 HD
ENDBRANCH   9  20
ENDBRANCH   1  13
BRANCH   3  22
ATOM     22  C   LIG A   1      -7.974   1.627 125.152  0.00  0.00    +0.070 A 
ATOM     23  C   LIG A   1      -8.593   2.232 124.027  0.00  0.00    +0.132 A 
ATOM     24  C   LIG A   1      -9.310   1.515 123.062  0.00  0.00    +0.092 A 
ATOM     25  C   LIG A   1      -9.464   0.144 123.195  0.00  0.00    +0.135 A 
ATOM     26  C   LIG A   1      -8.892  -0.517 124.283  0.00  0.00    +0.106 A 
ATOM     27  C   LIG A   1      -8.142   0.208 125.238  0.00  0.00    +0.154 A 
ATOM     28  O   LIG A   1      -7.520  -0.453 126.285  0.00  0.00    -0.454 OA
ATOM     29  C   LIG A   1      -7.707  -1.815 126.457  0.00  0.00    +0.139 A 
ATOM     30  C   LIG A   1      -8.435  -2.577 125.637  0.00  0.00    +0.098 A 
ATOM     31  C   LIG A   1      -9.071  -1.978 124.462  0.00  0.00    +0.197 A 
ATOM     32  O   LIG A   1      -9.716  -2.703 123.715  0.00  0.00    -0.287 OA
BRANCH  29  33
ATOM     33  C   LIG A   1      -7.044  -2.395 127.646  0.00  0.00    +0.018 A 
ATOM     34  C   LIG A   1      -5.657  -2.271 127.818  0.00  0.00    +0.015 A 
ATOM     35  C   LIG A   1      -5.011  -2.829 128.925  0.00  0.00    +0.046 A 
ATOM     36  C   LIG A   1      -5.755  -3.511 129.878  0.00  0.00    +0.117 A 
ATOM     37  C   LIG A   1      -7.128  -3.645 129.740  0.00  0.00    +0.046 A 
ATOM     38  C   LIG A   1      -7.769  -3.095 128.626  0.00  0.00    +0.015 A 
BRANCH  36  39
ATOM     39  O   LIG A   1      -5.161  -4.065 130.971  0.00  0.00    -0.507 OA
ATOM     40  H   LIG A   1      -5.844  -4.525 131.490  0.00  0.00    +0.292 HD
ENDBRANCH  36  39
ENDBRANCH  29  33
BRANCH  23  41
ATOM     41  O   LIG A   1      -8.488   3.589 123.826  0.00  0.00    -0.506 OA
ATOM     42  H   LIG A   1      -7.549   3.846 123.768  0.00  0.00    +0.292 HD
ENDBRANCH  23  41
BRANCH  25  43
ATOM     43  O   LIG A   1     -10.171  -0.531 122.243  0.00  0.00    -0.506 OA
ATOM     44  H   LIG A   1     -11.062  -0.755 122.548  0.00  0.00    +0.292 HD
ENDBRANCH  25  43
ENDBRANCH   3  22
BRANCH   4  45
ATOM     45  O   LIG A   1      -4.950   2.107 125.291  0.00  0.00    -0.506 OA
ATOM     46  H   LIG A   1      -4.463   1.404 125.759  0.00  0.00    +0.292 HD
ENDBRANCH   4  45
TORSDOF 9
ENDMDL
MODEL 2
REMARK VINA RESULT:     -10.0      1.884      2.279
REMARK  Name = NuBBE_200
REMARK  9 active torsions:
REMARK  status: ('A' for Active; 'I' for Inactive)
REMARK    1  A    between atoms: O_1  and  C_2
REMARK    2  A    between atoms: C_4  and  O_5
REMARK    3  A    between atoms: C_9  and  C_10
REMARK    4  A    between atoms: C_12  and  C_13
REMARK    5  A    between atoms: C_14  and  O_15
REMARK    6  A    between atoms: C_17  and  O_18
REMARK    7  A    between atoms: C_22  and  C_23
REMARK    8  A    between atoms: C_26  and  O_27
REMARK    9  A    between atoms: C_33  and  O_34
REMARK                            x       y       z     vdW  Elec       q    Type
REMARK                         _______ _______ _______ _____ _____    ______ ____
ROOT
ATOM      1  C   LIG A   1      -7.409   3.694 128.238  0.00  0.00    +0.018 A 
ATOM      2  C   LIG A   1      -7.641   2.604 127.371  0.00  0.00    +0.024 A 
ATOM      3  C   LIG A   1      -6.602   1.927 126.681  0.00  0.00    +0.031 A 
ATOM      4  C   LIG A   1      -5.311   2.469 126.892  0.00  0.00    +0.125 A 
ATOM      5  C   LIG A   1      -5.078   3.598 127.688  0.00  0.00    +0.046 A 
ATOM      6  C   LIG A   1      -6.121   4.205 128.370  0.00  0.00    +0.015 A 
ENDROOT
BRANCH   1  13
ATOM      7  C   LIG A   1     -11.466   8.035 128.985  0.00  0.00    +0.124 A 
ATOM      8  C   LIG A   1     -11.903   7.762 130.278  0.00  0.00    +0.091 A 
ATOM      9  C   LIG A   1     -11.386   6.652 130.956  0.00  0.00    +0.135 A 
ATOM     10  C   LIG A   1     -10.439   5.818 130.340  0.00  0.00    +0.105 A 
ATOM     11  C   LIG A   1      -9.866   4.613 130.988  0.00  0.00    +0.197 A 
ATOM     12  C   LIG A   1      -8.808   3.912 130.235  0.00  0.00    +0.098 A 
ATOM     13  C   LIG A   1      -8.492   4.321 129.004  0.00  0.00    +0.139 A 
ATOM     14  O   LIG A   1      -9.080   5.386 128.358  0.00  0.00    -0.454 OA
ATOM     15  O   LIG A   1     -10.226   4.166 132.069  0.00  0.00    -0.287 OA
ATOM     16  C   LIG A   1     -10.008   6.125 129.046  0.00  0.00    +0.146 A 
ATOM     17  C   LIG A   1     -10.519   7.231 128.368  0.00  0.00    +0.092 A 
BRANCH   7  18
ATOM     18  O   LIG A   1     -11.947   9.095 128.275  0.00  0.00    -0.506 OA
ATOM     19  H   LIG A   1     -11.233   9.735 128.123  0.00  0.00    +0.292 HD
ENDBRANCH   7  18
BRANCH   9  20
ATOM     20  O   LIG A   1     -11.816   6.401 132.228  0.00  0.00    -0.506 OA
ATOM     21  H   LIG A   1     -12.662   6.846 132.400  0.00  0.00    +0.292 HD
ENDBRANCH   9  20
ENDBRANCH   1  13
BRANCH   3  22
ATOM     22  C   LIG A   1      -6.915   0.723 125.805  0.00  0.00    +0.070 A 
ATOM     23  C   LIG A   1      -6.893   0.789 124.387  0.00  0.00    +0.132 A 
ATOM     24  C   LIG A   1      -7.194  -0.300 123.560  0.00  0.00    +0.092 A 
ATOM     25  C   LIG A   1      -7.561  -1.512 124.121  0.00  0.00    +0.135 A 
ATOM     26  C   LIG A   1      -7.616  -1.646 125.510  0.00  0.00    +0.106 A 
ATOM     27  C   LIG A   1      -7.281  -0.552 126.341  0.00  0.00    +0.154 A 
ATOM     28  O   LIG A   1      -7.273  -0.699 127.719  0.00  0.00    -0.454 OA
ATOM     29  C   LIG A   1      -7.686  -1.890 128.294  0.00  0.00    +0.139 A 
ATOM     30  C   LIG A   1      -8.067  -2.963 127.596  0.00  0.00    +0.098 A 
ATOM     31  C   LIG A   1      -8.038  -2.924 126.132  0.00  0.00    +0.197 A 
ATOM     32  O   LIG A   1      -8.372  -3.928 125.516  0.00  0.00    -0.287 OA
BRANCH  29  33
ATOM     33  C   LIG A   1      -7.695  -1.903 129.774  0.00  0.00    +0.018 A 
ATOM     34  C   LIG A   1      -8.041  -0.749 130.493  0.00  0.00    +0.015 A 
ATOM     35  C   LIG A   1      -8.036  -0.738 131.891  0.00  0.00    +0.046 A 
ATOM     36  C   LIG A   1      -7.692  -1.890 132.582  0.00  0.00    +0.117 A 
ATOM     37  C   LIG A   1      -7.351  -3.049 131.900  0.00  0.00    +0.046 A 
ATOM     38  C   LIG A   1      -7.347  -3.054 130.503  0.00  0.00    +0.015 A 
BRANCH  36  39
ATOM     39  O   LIG A   1      -7.679  -1.917 133.944  0.00  0.00    -0.507 OA
ATOM     40  H   LIG A   1      -7.470  -1.022 134.266  0.00  0.00    +0.292 HD
ENDBRANCH  36  39
ENDBRANCH  29  33
BRANCH  23  41
ATOM     41  O   LIG A   1      -6.540   1.957 123.753  0.00  0.00    -0.506 OA
ATOM     42  H   LIG A   1      -6.233   2.612 124.408  0.00  0.00    +0.292 HD
ENDBRANCH  23  41
BRANCH  25  43
ATOM     43  O   LIG A   1      -7.854  -2.556 123.293  0.00  0.00    -0.506 OA
ATOM     44  H   LIG A   1      -7.845  -3.403 123.765  0.00  0.00    +0.292 HD
ENDBRANCH  25  43
ENDBRANCH   3  22
BRANCH   4  45
ATOM     45  O   LIG A   1      -4.161   1.948 126.362  0.00  0.00    -0.506 OA
ATOM     46  H   LIG A   1      -3.444   2.554 126.624  0.00  0.00    +0.292 HD
ENDBRANCH   4  45
TORSDOF 9
ENDMDL
MODEL 3
REMARK VINA RESULT:     -10.0      2.085      4.913
REMARK  Name = NuBBE_200
REMARK  9 active torsions:
REMARK  status: ('A' for Active; 'I' for Inactive)
REMARK    1  A    between atoms: O_1  and  C_2
REMARK    2  A    between atoms: C_4  and  O_5
REMARK    3  A    between atoms: C_9  and  C_10
REMARK    4  A    between atoms: C_12  and  C_13
REMARK    5  A    between atoms: C_14  and  O_15
REMARK    6  A    between atoms: C_17  and  O_18
REMARK    7  A    between atoms: C_22  and  C_23
REMARK    8  A    between atoms: C_26  and  O_27
REMARK    9  A    between atoms: C_33  and  O_34
REMARK                            x       y       z     vdW  Elec       q    Type
REMARK                         _______ _______ _______ _____ _____    ______ ____
ROOT
ATOM      1  C   LIG A   1      -7.471   0.907 130.227  0.00  0.00    +0.018 A 
ATOM      2  C   LIG A   1      -7.994   0.271 129.079  0.00  0.00    +0.024 A 
ATOM      3  C   LIG A   1      -7.454  -0.927 128.543  0.00  0.00    +0.031 A 
ATOM      4  C   LIG A   1      -6.309  -1.407 129.223  0.00  0.00    +0.125 A 
ATOM      5  C   LIG A   1      -5.736  -0.743 130.315  0.00  0.00    +0.046 A 
ATOM      6  C   LIG A   1      -6.319   0.405 130.825  0.00  0.00    +0.015 A 
ENDROOT
BRANCH   1  13
ATOM      7  C   LIG A   1      -9.583   6.490 129.734  0.00  0.00    +0.124 A 
ATOM      8  C   LIG A   1      -9.817   6.797 131.071  0.00  0.00    +0.091 A 
ATOM      9  C   LIG A   1      -9.580   5.825 132.050  0.00  0.00    +0.135 A 
ATOM     10  C   LIG A   1      -9.116   4.549 131.690  0.00  0.00    +0.105 A 
ATOM     11  C   LIG A   1      -8.866   3.463 132.669  0.00  0.00    +0.197 A 
ATOM     12  C   LIG A   1      -8.282   2.222 132.126  0.00  0.00    +0.098 A 
ATOM     13  C   LIG A   1      -8.101   2.098 130.809  0.00  0.00    +0.139 A 
ATOM     14  O   LIG A   1      -8.411   3.067 129.882  0.00  0.00    -0.454 OA
ATOM     15  O   LIG A   1      -9.131   3.527 133.862  0.00  0.00    -0.287 OA
ATOM     16  C   LIG A   1      -8.876   4.274 130.341  0.00  0.00    +0.146 A 
ATOM     17  C   LIG A   1      -9.108   5.240 129.363  0.00  0.00    +0.092 A 
BRANCH   7  18
ATOM     18  O   LIG A   1      -9.809   7.395 128.741  0.00  0.00    -0.506 OA
ATOM     19  H   LIG A   1     -10.729   7.704 128.786  0.00  0.00    +0.292 HD
ENDBRANCH   7  18
BRANCH   9  20
ATOM     20  O   LIG A   1      -9.805   6.143 133.359  0.00  0.00    -0.506 OA
ATOM     21  H   LIG A   1     -10.692   6.519 133.475  0.00  0.00    +0.292 HD
ENDBRANCH   9  20
ENDBRANCH   1  13
BRANCH   3  22
ATOM     22  C   LIG A   1      -8.100  -1.591 127.336  0.00  0.00    +0.070 A 
ATOM     23  C   LIG A   1      -8.568  -2.931 127.364  0.00  0.00    +0.132 A 
ATOM     24  C   LIG A   1      -9.150  -3.568 126.262  0.00  0.00    +0.092 A 
ATOM     25  C   LIG A   1      -9.266  -2.893 125.057  0.00  0.00    +0.135 A 
ATOM     26  C   LIG A   1      -8.816  -1.575 124.953  0.00  0.00    +0.106 A 
ATOM     27  C   LIG A   1      -8.257  -0.926 126.078  0.00  0.00    +0.154 A 
ATOM     28  O   LIG A   1      -7.867   0.401 125.996  0.00  0.00    -0.454 OA
ATOM     29  C   LIG A   1      -7.932   1.072 124.785  0.00  0.00    +0.139 A 
ATOM     30  C   LIG A   1      -8.399   0.530 123.657  0.00  0.00    +0.098 A 
ATOM     31  C   LIG A   1      -8.901  -0.845 123.665  0.00  0.00    +0.197 A 
ATOM     32  O   LIG A   1      -9.342  -1.310 122.622  0.00  0.00    -0.287 OA
BRANCH  29  33
ATOM     33  C   LIG A   1      -7.428   2.462 124.810  0.00  0.00    +0.018 A 
ATOM     34  C   LIG A   1      -6.482   2.892 123.866  0.00  0.00    +0.015 A 
ATOM     35  C   LIG A   1      -5.980   4.197 123.886  0.00  0.00    +0.046 A 
ATOM     36  C   LIG A   1      -6.429   5.087 124.850  0.00  0.00    +0.117 A 
ATOM     37  C   LIG A   1      -7.368   4.694 125.793  0.00  0.00    +0.046 A 
ATOM     38  C   LIG A   1      -7.860   3.387 125.776  0.00  0.00    +0.015 A 
BRANCH  36  39
ATOM     39  O   LIG A   1      -5.965   6.367 124.899  0.00  0.00    -0.507 OA
ATOM     40  H   LIG A   1      -5.469   6.543 124.080  0.00  0.00    +0.292 HD
ENDBRANCH  36  39
ENDBRANCH  29  33
BRANCH  23  41
ATOM     41  O   LIG A   1      -8.486  -3.668 128.522  0.00  0.00    -0.506 OA
ATOM     42  H   LIG A   1      -9.259  -3.486 129.089  0.00  0.00    +0.292 HD
ENDBRANCH  23  41
BRANCH  25  43
ATOM     43  O   LIG A   1      -9.833  -3.538 123.997  0.00  0.00    -0.506 OA
ATOM     44  H   LIG A   1      -9.207  -4.138 123.565  0.00  0.00    +0.292 HD
ENDBRANCH  25  43
ENDBRANCH   3  22
BRANCH   4  45
ATOM     45  O   LIG A   1      -5.655  -2.567 128.906  0.00  0.00    -0.506 OA
ATOM     46  H   LIG A   1      -5.622  -2.601 127.932  0.00  0.00    +0.292 HD
ENDBRANCH   4  45
TORSDOF 9
ENDMDL
MODEL 4
REMARK VINA RESULT:     -10.0      2.546      5.003
REMARK  Name = NuBBE_200
REMARK  9 active torsions:
REMARK  status: ('A' for Active; 'I' for Inactive)
REMARK    1  A    between atoms: O_1  and  C_2
REMARK    2  A    between atoms: C_4  and  O_5
REMARK    3  A    between atoms: C_9  and  C_10
REMARK    4  A    between atoms: C_12  and  C_13
REMARK    5  A    between atoms: C_14  and  O_15
REMARK    6  A    between atoms: C_17  and  O_18
REMARK    7  A    between atoms: C_22  and  C_23
REMARK    8  A    between atoms: C_26  and  O_27
REMARK    9  A    between atoms: C_33  and  O_34
REMARK                            x       y       z     vdW  Elec       q    Type
REMARK                         _______ _______ _______ _____ _____    ______ ____
ROOT
ATOM      1  C   LIG A   1      -8.054   0.164 131.632  0.00  0.00    +0.018 A 
ATOM      2  C   LIG A   1      -8.037  -0.273 130.289  0.00  0.00    +0.024 A 
ATOM      3  C   LIG A   1      -7.652  -1.584 129.905  0.00  0.00    +0.031 A 
ATOM      4  C   LIG A   1      -7.232  -2.407 130.978  0.00  0.00    +0.125 A 
ATOM      5  C   LIG A   1      -7.171  -1.959 132.304  0.00  0.00    +0.046 A 
ATOM      6  C   LIG A   1      -7.590  -0.681 132.635  0.00  0.00    +0.015 A 
ENDROOT
BRANCH   1  13
ATOM      7  C   LIG A   1     -11.191   5.126 130.448  0.00  0.00    +0.124 A 
ATOM      8  C   LIG A   1     -10.794   5.942 131.504  0.00  0.00    +0.091 A 
ATOM      9  C   LIG A   1      -9.920   5.434 132.472  0.00  0.00    +0.135 A 
ATOM     10  C   LIG A   1      -9.451   4.113 132.385  0.00  0.00    +0.105 A 
ATOM     11  C   LIG A   1      -8.543   3.500 133.386  0.00  0.00    +0.197 A 
ATOM     12  C   LIG A   1      -8.069   2.136 133.082  0.00  0.00    +0.098 A 
ATOM     13  C   LIG A   1      -8.538   1.497 132.008  0.00  0.00    +0.139 A 
ATOM     14  O   LIG A   1      -9.447   2.025 131.119  0.00  0.00    -0.454 OA
ATOM     15  O   LIG A   1      -8.194   4.036 134.429  0.00  0.00    -0.287 OA
ATOM     16  C   LIG A   1      -9.856   3.322 131.307  0.00  0.00    +0.146 A 
ATOM     17  C   LIG A   1     -10.724   3.825 130.338  0.00  0.00    +0.092 A 
BRANCH   7  18
ATOM     18  O   LIG A   1     -12.050   5.567 129.487  0.00  0.00    -0.506 OA
ATOM     19  H   LIG A   1     -11.545   5.885 128.720  0.00  0.00    +0.292 HD
ENDBRANCH   7  18
BRANCH   9  20
ATOM     20  O   LIG A   1      -9.530   6.249 133.497  0.00  0.00    -0.506 OA
ATOM     21  H   LIG A   1      -9.960   5.987 134.327  0.00  0.00    +0.292 HD
ENDBRANCH   9  20
ENDBRANCH   1  13
BRANCH   3  22
ATOM     22  C   LIG A   1      -7.710  -2.008 128.445  0.00  0.00    +0.070 A 
ATOM     23  C   LIG A   1      -8.469  -3.126 128.007  0.00  0.00    +0.132 A 
ATOM     24  C   LIG A   1      -8.523  -3.545 126.673  0.00  0.00    +0.092 A 
ATOM     25  C   LIG A   1      -7.790  -2.873 125.708  0.00  0.00    +0.135 A 
ATOM     26  C   LIG A   1      -7.012  -1.771 126.069  0.00  0.00    +0.106 A 
ATOM     27  C   LIG A   1      -6.985  -1.333 127.413  0.00  0.00    +0.154 A 
ATOM     28  O   LIG A   1      -6.264  -0.203 127.765  0.00  0.00    -0.454 OA
ATOM     29  C   LIG A   1      -5.488   0.449 126.819  0.00  0.00    +0.139 A 
ATOM     30  C   LIG A   1      -5.410   0.083 125.537  0.00  0.00    +0.098 A 
ATOM     31  C   LIG A   1      -6.195  -1.057 125.059  0.00  0.00    +0.197 A 
ATOM     32  O   LIG A   1      -6.121  -1.359 123.874  0.00  0.00    -0.287 OA
BRANCH  29  33
ATOM     33  C   LIG A   1      -4.714   1.603 127.329  0.00  0.00    +0.018 A 
ATOM     34  C   LIG A   1      -4.004   2.429 126.445  0.00  0.00    +0.015 A 
ATOM     35  C   LIG A   1      -3.252   3.512 126.911  0.00  0.00    +0.046 A 
ATOM     36  C   LIG A   1      -3.214   3.782 128.272  0.00  0.00    +0.117 A 
ATOM     37  C   LIG A   1      -3.910   2.987 129.170  0.00  0.00    +0.046 A 
ATOM     38  C   LIG A   1      -4.652   1.899 128.702  0.00  0.00    +0.015 A 
BRANCH  36  39
ATOM     39  O   LIG A   1      -2.495   4.830 128.762  0.00  0.00    -0.507 OA
ATOM     40  H   LIG A   1      -2.795   5.009 129.670  0.00  0.00    +0.292 HD
ENDBRANCH  36  39
ENDBRANCH  29  33
BRANCH  23  41
ATOM     41  O   LIG A   1      -9.221  -3.846 128.905  0.00  0.00    -0.506 OA
ATOM     42  H   LIG A   1      -9.090  -4.802 128.759  0.00  0.00    +0.292 HD
ENDBRANCH  23  41
BRANCH  25  43
ATOM     43  O   LIG A   1      -7.857  -3.304 124.415  0.00  0.00    -0.506 OA
ATOM     44  H   LIG A   1      -7.011  -3.198 123.957  0.00  0.00    +0.292 HD
ENDBRANCH  25  43
ENDBRANCH   3  22
BRANCH   4  45
ATOM     45  O   LIG A   1      -6.861  -3.718 130.844  0.00  0.00    -0.506 OA
ATOM     46  H   LIG A   1      -7.680  -4.213 130.656  0.00  0.00    +0.292 HD
ENDBRANCH   4  45
TORSDOF 9
ENDMDL
MODEL 5
REMARK VINA RESULT:      -9.9      2.482      7.474
REMARK  Name = NuBBE_200
REMARK  9 active torsions:
REMARK  status: ('A' for Active; 'I' for Inactive)
REMARK    1  A    between atoms: O_1  and  C_2
REMARK    2  A    between atoms: C_4  and  O_5
REMARK    3  A    between atoms: C_9  and  C_10
REMARK    4  A    between atoms: C_12  and  C_13
REMARK    5  A    between atoms: C_14  and  O_15
REMARK    6  A    between atoms: C_17  and  O_18
REMARK    7  A    between atoms: C_22  and  C_23
REMARK    8  A    between atoms: C_26  and  O_27
REMARK    9  A    between atoms: C_33  and  O_34
REMARK                            x       y       z     vdW  Elec       q    Type
REMARK                         _______ _______ _______ _____ _____    ______ ____
ROOT
ATOM      1  C   LIG A   1      -7.543  -3.117 128.755  0.00  0.00    +0.018 A 
ATOM      2  C   LIG A   1      -7.266  -2.103 127.813  0.00  0.00    +0.024 A 
ATOM      3  C   LIG A   1      -8.039  -1.901 126.640  0.00  0.00    +0.031 A 
ATOM      4  C   LIG A   1      -9.084  -2.840 126.461  0.00  0.00    +0.125 A 
ATOM      5  C   LIG A   1      -9.320  -3.898 127.349  0.00  0.00    +0.046 A 
ATOM      6  C   LIG A   1      -8.560  -4.032 128.500  0.00  0.00    +0.015 A 
ENDROOT
BRANCH   1  13
ATOM      7  C   LIG A   1      -7.172  -2.838 134.726  0.00  0.00    +0.124 A 
ATOM      8  C   LIG A   1      -5.800  -2.982 134.907  0.00  0.00    +0.091 A 
ATOM      9  C   LIG A   1      -4.978  -3.185 133.792  0.00  0.00    +0.135 A 
ATOM     10  C   LIG A   1      -5.530  -3.247 132.503  0.00  0.00    +0.105 A 
ATOM     11  C   LIG A   1      -4.725  -3.483 131.279  0.00  0.00    +0.197 A 
ATOM     12  C   LIG A   1      -5.456  -3.415 129.999  0.00  0.00    +0.098 A 
ATOM     13  C   LIG A   1      -6.780  -3.249 130.002  0.00  0.00    +0.139 A 
ATOM     14  O   LIG A   1      -7.549  -3.116 131.136  0.00  0.00    -0.454 OA
ATOM     15  O   LIG A   1      -3.530  -3.746 131.272  0.00  0.00    -0.287 OA
ATOM     16  C   LIG A   1      -6.910  -3.085 132.350  0.00  0.00    +0.146 A 
ATOM     17  C   LIG A   1      -7.732  -2.880 133.458  0.00  0.00    +0.092 A 
BRANCH   7  18
ATOM     18  O   LIG A   1      -8.017  -2.652 135.778  0.00  0.00    -0.506 OA
ATOM     19  H   LIG A   1      -8.937  -2.728 135.474  0.00  0.00    +0.292 HD
ENDBRANCH   7  18
BRANCH   9  20
ATOM     20  O   LIG A   1      -3.631  -3.315 133.984  0.00  0.00    -0.506 OA
ATOM     21  H   LIG A   1      -3.441  -3.647 134.876  0.00  0.00    +0.292 HD
ENDBRANCH   9  20
ENDBRANCH   1  13
BRANCH   3  22
ATOM     22  C   LIG A   1      -7.720  -0.754 125.694  0.00  0.00    +0.070 A 
ATOM     23  C   LIG A   1      -7.325  -0.966 124.347  0.00  0.00    +0.132 A 
ATOM     24  C   LIG A   1      -7.010   0.073 123.463  0.00  0.00    +0.092 A 
ATOM     25  C   LIG A   1      -7.050   1.387 123.901  0.00  0.00    +0.135 A 
ATOM     26  C   LIG A   1      -7.419   1.670 125.217  0.00  0.00    +0.106 A 
ATOM     27  C   LIG A   1      -7.766   0.619 126.097  0.00  0.00    +0.154 A 
ATOM     28  O   LIG A   1      -8.193   0.899 127.385  0.00  0.00    -0.454 OA
ATOM     29  C   LIG A   1      -8.191   2.204 127.850  0.00  0.00    +0.139 A 
ATOM     30  C   LIG A   1      -7.834   3.258 127.112  0.00  0.00    +0.098 A 
ATOM     31  C   LIG A   1      -7.438   3.067 125.716  0.00  0.00    +0.197 A 
ATOM     32  O   LIG A   1      -7.136   4.052 125.056  0.00  0.00    -0.287 OA
BRANCH  29  33
ATOM     33  C   LIG A   1      -8.606   2.369 129.261  0.00  0.00    +0.018 A 
ATOM     34  C   LIG A   1      -8.556   1.282 130.148  0.00  0.00    +0.015 A 
ATOM     35  C   LIG A   1      -8.962   1.415 131.479  0.00  0.00    +0.046 A 
ATOM     36  C   LIG A   1      -9.415   2.644 131.937  0.00  0.00    +0.117 A 
ATOM     37  C   LIG A   1      -9.470   3.738 131.086  0.00  0.00    +0.046 A 
ATOM     38  C   LIG A   1      -9.073   3.600 129.753  0.00  0.00    +0.015 A 
BRANCH  36  39
ATOM     39  O   LIG A   1      -9.816   2.811 133.228  0.00  0.00    -0.507 OA
ATOM     40  H   LIG A   1      -9.293   3.533 133.619  0.00  0.00    +0.292 HD
ENDBRANCH  36  39
ENDBRANCH  29  33
BRANCH  23  41
ATOM     41  O   LIG A   1      -7.258  -2.241 123.838  0.00  0.00    -0.506 OA
ATOM     42  H   LIG A   1      -7.346  -2.218 122.866  0.00  0.00    +0.292 HD
ENDBRANCH  23  41
BRANCH  25  43
ATOM     43  O   LIG A   1      -6.735   2.381 123.021  0.00  0.00    -0.506 OA
ATOM     44  H   LIG A   1      -5.952   2.161 122.495  0.00  0.00    +0.292 HD
ENDBRANCH  25  43
ENDBRANCH   3  22
BRANCH   4  45
ATOM     45  O   LIG A   1      -9.978  -2.808 125.425  0.00  0.00    -0.506 OA
ATOM     46  H   LIG A   1     -10.760  -3.306 125.727  0.00  0.00    +0.292 HD
ENDBRANCH   4  45
TORSDOF 9
ENDMDL
MODEL 6
REMARK VINA RESULT:      -9.8      2.404      5.332
REMARK  Name = NuBBE_200
REMARK  9 active torsions:
REMARK  status: ('A' for Active; 'I' for Inactive)
REMARK    1  A    between atoms: O_1  and  C_2
REMARK    2  A    between atoms: C_4  and  O_5
REMARK    3  A    between atoms: C_9  and  C_10
REMARK    4  A    between atoms: C_12  and  C_13
REMARK    5  A    between atoms: C_14  and  O_15
REMARK    6  A    between atoms: C_17  and  O_18
REMARK    7  A    between atoms: C_22  and  C_23
REMARK    8  A    between atoms: C_26  and  O_27
REMARK    9  A    between atoms: C_33  and  O_34
REMARK                            x       y       z     vdW  Elec       q    Type
REMARK                         _______ _______ _______ _____ _____    ______ ____
ROOT
ATOM      1  C   LIG A   1      -8.314   3.712 130.433  0.00  0.00    +0.018 A 
ATOM      2  C   LIG A   1      -8.423   2.403 129.914  0.00  0.00    +0.024 A 
ATOM      3  C   LIG A   1      -7.467   1.386 130.166  0.00  0.00    +0.031 A 
ATOM      4  C   LIG A   1      -6.359   1.806 130.941  0.00  0.00    +0.125 A 
ATOM      5  C   LIG A   1      -6.201   3.121 131.396  0.00  0.00    +0.046 A 
ATOM      6  C   LIG A   1      -7.179   4.071 131.154  0.00  0.00    +0.015 A 
ENDROOT
BRANCH   1  13
ATOM      7  C   LIG A   1     -11.038   7.815 127.025  0.00  0.00    +0.124 A 
ATOM      8  C   LIG A   1     -11.905   8.386 127.952  0.00  0.00    +0.091 A 
ATOM      9  C   LIG A   1     -11.947   7.879 129.256  0.00  0.00    +0.135 A 
ATOM     10  C   LIG A   1     -11.127   6.801 129.628  0.00  0.00    +0.105 A 
ATOM     11  C   LIG A   1     -11.136   6.197 130.983  0.00  0.00    +0.197 A 
ATOM     12  C   LIG A   1     -10.136   5.140 131.228  0.00  0.00    +0.098 A 
ATOM     13  C   LIG A   1      -9.361   4.719 130.226  0.00  0.00    +0.139 A 
ATOM     14  O   LIG A   1      -9.405   5.213 128.942  0.00  0.00    -0.454 OA
ATOM     15  O   LIG A   1     -11.916   6.500 131.875  0.00  0.00    -0.287 OA
ATOM     16  C   LIG A   1     -10.256   6.257 128.680  0.00  0.00    +0.146 A 
ATOM     17  C   LIG A   1     -10.209   6.761 127.381  0.00  0.00    +0.092 A 
BRANCH   7  18
ATOM     18  O   LIG A   1     -10.967   8.262 125.740  0.00  0.00    -0.506 OA
ATOM     19  H   LIG A   1     -11.450   7.653 125.157  0.00  0.00    +0.292 HD
ENDBRANCH   7  18
BRANCH   9  20
ATOM     20  O   LIG A   1     -12.796   8.456 130.157  0.00  0.00    -0.506 OA
ATOM     21  H   LIG A   1     -12.526   9.369 130.348  0.00  0.00    +0.292 HD
ENDBRANCH   9  20
ENDBRANCH   1  13
BRANCH   3  22
ATOM     22  C   LIG A   1      -7.673  -0.020 129.622  0.00  0.00    +0.070 A 
ATOM     23  C   LIG A   1      -8.023  -1.115 130.455  0.00  0.00    +0.132 A 
ATOM     24  C   LIG A   1      -8.202  -2.419 129.980  0.00  0.00    +0.092 A 
ATOM     25  C   LIG A   1      -8.010  -2.696 128.636  0.00  0.00    +0.135 A 
ATOM     26  C   LIG A   1      -7.653  -1.670 127.759  0.00  0.00    +0.106 A 
ATOM     27  C   LIG A   1      -7.504  -0.348 128.239  0.00  0.00    +0.154 A 
ATOM     28  O   LIG A   1      -7.211   0.684 127.362  0.00  0.00    -0.454 OA
ATOM     29  C   LIG A   1      -6.968   0.413 126.025  0.00  0.00    +0.139 A 
ATOM     30  C   LIG A   1      -7.037  -0.807 125.487  0.00  0.00    +0.098 A 
ATOM     31  C   LIG A   1      -7.410  -1.949 126.323  0.00  0.00    +0.197 A 
ATOM     32  O   LIG A   1      -7.486  -3.054 125.801  0.00  0.00    -0.287 OA
BRANCH  29  33
ATOM     33  C   LIG A   1      -6.603   1.588 125.203  0.00  0.00    +0.018 A 
ATOM     34  C   LIG A   1      -7.053   1.695 123.877  0.00  0.00    +0.015 A 
ATOM     35  C   LIG A   1      -6.701   2.788 123.080  0.00  0.00    +0.046 A 
ATOM     36  C   LIG A   1      -5.902   3.791 123.608  0.00  0.00    +0.117 A 
ATOM     37  C   LIG A   1      -5.448   3.717 124.917  0.00  0.00    +0.046 A 
ATOM     38  C   LIG A   1      -5.791   2.618 125.708  0.00  0.00    +0.015 A 
BRANCH  36  39
ATOM     39  O   LIG A   1      -5.542   4.873 122.862  0.00  0.00    -0.507 OA
ATOM     40  H   LIG A   1      -5.125   5.526 123.451  0.00  0.00    +0.292 HD
ENDBRANCH  36  39
ENDBRANCH  29  33
BRANCH  23  41
ATOM     41  O   LIG A   1      -8.229  -0.922 131.801  0.00  0.00    -0.506 OA
ATOM     42  H   LIG A   1      -8.129  -1.767 132.279  0.00  0.00    +0.292 HD
ENDBRANCH  23  41
BRANCH  25  43
ATOM     43  O   LIG A   1      -8.186  -3.977 128.199  0.00  0.00    -0.506 OA
ATOM     44  H   LIG A   1      -7.896  -4.086 127.281  0.00  0.00    +0.292 HD
ENDBRANCH  25  43
ENDBRANCH   3  22
BRANCH   4  45
ATOM     45  O   LIG A   1      -5.342   0.981 131.342  0.00  0.00    -0.506 OA
ATOM     46  H   LIG A   1      -4.926   0.648 130.525  0.00  0.00    +0.292 HD
ENDBRANCH   4  45
TORSDOF 9
ENDMDL
MODEL 7
REMARK VINA RESULT:      -9.7      5.017      8.926
REMARK  Name = NuBBE_200
REMARK  9 active torsions:
REMARK  status: ('A' for Active; 'I' for Inactive)
REMARK    1  A    between atoms: O_1  and  C_2
REMARK    2  A    between atoms: C_4  and  O_5
REMARK    3  A    between atoms: C_9  and  C_10
REMARK    4  A    between atoms: C_12  and  C_13
REMARK    5  A    between atoms: C_14  and  O_15
REMARK    6  A    between atoms: C_17  and  O_18
REMARK    7  A    between atoms: C_22  and  C_23
REMARK    8  A    between atoms: C_26  and  O_27
REMARK    9  A    between atoms: C_33  and  O_34
REMARK                            x       y       z     vdW  Elec       q    Type
REMARK                         _______ _______ _______ _____ _____    ______ ____
ROOT
ATOM      1  C   LIG A   1      -9.215   4.916 132.314  0.00  0.00    +0.018 A 
ATOM      2  C   LIG A   1      -8.085   5.516 132.912  0.00  0.00    +0.024 A 
ATOM      3  C   LIG A   1      -7.105   4.782 133.629  0.00  0.00    +0.031 A 
ATOM      4  C   LIG A   1      -7.381   3.398 133.744  0.00  0.00    +0.125 A 
ATOM      5  C   LIG A   1      -8.537   2.805 133.222  0.00  0.00    +0.046 A 
ATOM      6  C   LIG A   1      -9.449   3.557 132.498  0.00  0.00    +0.015 A 
ENDROOT
BRANCH   1  13
ATOM      7  C   LIG A   1     -10.846   7.456 127.142  0.00  0.00    +0.124 A 
ATOM      8  C   LIG A   1     -11.964   8.179 127.549  0.00  0.00    +0.091 A 
ATOM      9  C   LIG A   1     -12.392   8.089 128.879  0.00  0.00    +0.135 A 
ATOM     10  C   LIG A   1     -11.705   7.275 129.795  0.00  0.00    +0.105 A 
ATOM     11  C   LIG A   1     -12.114   7.113 131.212  0.00  0.00    +0.197 A 
ATOM     12  C   LIG A   1     -11.218   6.301 132.057  0.00  0.00    +0.098 A 
ATOM     13  C   LIG A   1     -10.167   5.687 131.506  0.00  0.00    +0.139 A 
ATOM     14  O   LIG A   1      -9.828   5.761 130.174  0.00  0.00    -0.454 OA
ATOM     15  O   LIG A   1     -13.134   7.581 131.699  0.00  0.00    -0.287 OA
ATOM     16  C   LIG A   1     -10.578   6.572 129.361  0.00  0.00    +0.146 A 
ATOM     17  C   LIG A   1     -10.147   6.661 128.037  0.00  0.00    +0.092 A 
BRANCH   7  18
ATOM     18  O   LIG A   1     -10.396   7.498 125.856  0.00  0.00    -0.506 OA
ATOM     19  H   LIG A   1     -10.547   8.384 125.488  0.00  0.00    +0.292 HD
ENDBRANCH   7  18
BRANCH   9  20
ATOM     20  O   LIG A   1     -13.484   8.812 129.268  0.00  0.00    -0.506 OA
ATOM     21  H   LIG A   1     -13.459   8.987 130.222  0.00  0.00    +0.292 HD
ENDBRANCH   9  20
ENDBRANCH   1  13
BRANCH   3  22
ATOM     22  C   LIG A   1      -5.882   5.483 134.202  0.00  0.00    +0.070 A 
ATOM     23  C   LIG A   1      -5.905   6.150 135.455  0.00  0.00    +0.132 A 
ATOM     24  C   LIG A   1      -4.798   6.816 135.994  0.00  0.00    +0.092 A 
ATOM     25  C   LIG A   1      -3.611   6.868 135.282  0.00  0.00    +0.135 A 
ATOM     26  C   LIG A   1      -3.519   6.244 134.037  0.00  0.00    +0.106 A 
ATOM     27  C   LIG A   1      -4.631   5.546 133.511  0.00  0.00    +0.154 A 
ATOM     28  O   LIG A   1      -4.525   4.872 132.304  0.00  0.00    -0.454 OA
ATOM     29  C   LIG A   1      -3.360   4.958 131.560  0.00  0.00    +0.139 A 
ATOM     30  C   LIG A   1      -2.274   5.631 131.949  0.00  0.00    +0.098 A 
ATOM     31  C   LIG A   1      -2.268   6.314 133.243  0.00  0.00    +0.197 A 
ATOM     32  O   LIG A   1      -1.253   6.907 133.585  0.00  0.00    -0.287 OA
BRANCH  29  33
ATOM     33  C   LIG A   1      -3.391   4.249 130.261  0.00  0.00    +0.018 A 
ATOM     34  C   LIG A   1      -4.019   2.999 130.148  0.00  0.00    +0.015 A 
ATOM     35  C   LIG A   1      -4.041   2.307 128.934  0.00  0.00    +0.046 A 
ATOM     36  C   LIG A   1      -3.440   2.867 127.816  0.00  0.00    +0.117 A 
ATOM     37  C   LIG A   1      -2.817   4.104 127.895  0.00  0.00    +0.046 A 
ATOM     38  C   LIG A   1      -2.787   4.789 129.112  0.00  0.00    +0.015 A 
BRANCH  36  39
ATOM     39  O   LIG A   1      -3.445   2.223 126.616  0.00  0.00    -0.507 OA
ATOM     40  H   LIG A   1      -4.079   2.673 126.030  0.00  0.00    +0.292 HD
ENDBRANCH  36  39
ENDBRANCH  29  33
BRANCH  23  41
ATOM     41  O   LIG A   1      -7.047   6.146 136.221  0.00  0.00    -0.506 OA
ATOM     42  H   LIG A   1      -7.373   7.058 136.339  0.00  0.00    +0.292 HD
ENDBRANCH  23  41
BRANCH  25  43
ATOM     43  O   LIG A   1      -2.547   7.527 135.828  0.00  0.00    -0.506 OA
ATOM     44  H   LIG A   1      -1.881   6.913 136.170  0.00  0.00    +0.292 HD
ENDBRANCH  25  43
ENDBRANCH   3  22
BRANCH   4  45
ATOM     45  O   LIG A   1      -6.551   2.496 134.354  0.00  0.00    -0.506 OA
ATOM     46  H   LIG A   1      -6.979   1.625 134.255  0.00  0.00    +0.292 HD
ENDBRANCH   4  45
TORSDOF 9
ENDMDL
MODEL 8
REMARK VINA RESULT:      -9.6      2.552      7.075
REMARK  Name = NuBBE_200
REMARK  9 active torsions:
REMARK  status: ('A' for Active; 'I' for Inactive)
REMARK    1  A    between atoms: O_1  and  C_2
REMARK    2  A    between atoms: C_4  and  O_5
REMARK    3  A    between atoms: C_9  and  C_10
REMARK    4  A    between atoms: C_12  and  C_13
REMARK    5  A    between atoms: C_14  and  O_15
REMARK    6  A    between atoms: C_17  and  O_18
REMARK    7  A    between atoms: C_22  and  C_23
REMARK    8  A    between atoms: C_26  and  O_27
REMARK    9  A    between atoms: C_33  and  O_34
REMARK                            x       y       z     vdW  Elec       q    Type
REMARK                         _______ _______ _______ _____ _____    ______ ____
ROOT
ATOM      1  C   LIG A   1      -8.306   2.740 129.014  0.00  0.00    +0.018 A 
ATOM      2  C   LIG A   1      -7.722   1.617 129.639  0.00  0.00    +0.024 A 
ATOM      3  C   LIG A   1      -8.171   1.100 130.882  0.00  0.00    +0.031 A 
ATOM      4  C   LIG A   1      -9.223   1.839 131.475  0.00  0.00    +0.125 A 
ATOM      5  C   LIG A   1      -9.758   3.000 130.902  0.00  0.00    +0.046 A 
ATOM      6  C   LIG A   1      -9.310   3.446 129.670  0.00  0.00    +0.015 A 
ENDROOT
BRANCH   1  13
ATOM      7  C   LIG A   1      -8.638   2.545 123.038  0.00  0.00    +0.124 A 
ATOM      8  C   LIG A   1      -7.550   3.340 122.692  0.00  0.00    +0.091 A 
ATOM      9  C   LIG A   1      -6.793   3.945 123.702  0.00  0.00    +0.135 A 
ATOM     10  C   LIG A   1      -7.129   3.757 125.053  0.00  0.00    +0.105 A 
ATOM     11  C   LIG A   1      -6.389   4.386 126.175  0.00  0.00    +0.197 A 
ATOM     12  C   LIG A   1      -6.816   3.997 127.532  0.00  0.00    +0.098 A 
ATOM     13  C   LIG A   1      -7.877   3.201 127.689  0.00  0.00    +0.139 A 
ATOM     14  O   LIG A   1      -8.625   2.683 126.656  0.00  0.00    -0.454 OA
ATOM     15  O   LIG A   1      -5.486   5.201 126.042  0.00  0.00    -0.287 OA
ATOM     16  C   LIG A   1      -8.219   2.942 125.371  0.00  0.00    +0.146 A 
ATOM     17  C   LIG A   1      -8.974   2.336 124.367  0.00  0.00    +0.092 A 
BRANCH   7  18
ATOM     18  O   LIG A   1      -9.415   1.944 122.093  0.00  0.00    -0.506 OA
ATOM     19  H   LIG A   1      -9.833   1.152 122.471  0.00  0.00    +0.292 HD
ENDBRANCH   7  18
BRANCH   9  20
ATOM     20  O   LIG A   1      -5.721   4.715 123.348  0.00  0.00    -0.506 OA
ATOM     21  H   LIG A   1      -5.946   5.295 122.604  0.00  0.00    +0.292 HD
ENDBRANCH   9  20
ENDBRANCH   1  13
BRANCH   3  22
ATOM     22  C   LIG A   1      -7.534  -0.148 131.474  0.00  0.00    +0.070 A 
ATOM     23  C   LIG A   1      -7.042  -0.193 132.805  0.00  0.00    +0.132 A 
ATOM     24  C   LIG A   1      -6.437  -1.324 133.366  0.00  0.00    +0.092 A 
ATOM     25  C   LIG A   1      -6.269  -2.467 132.602  0.00  0.00    +0.135 A 
ATOM     26  C   LIG A   1      -6.718  -2.491 131.280  0.00  0.00    +0.106 A 
ATOM     27  C   LIG A   1      -7.357  -1.356 130.728  0.00  0.00    +0.154 A 
ATOM     28  O   LIG A   1      -7.860  -1.397 129.437  0.00  0.00    -0.454 OA
ATOM     29  C   LIG A   1      -7.656  -2.516 128.646  0.00  0.00    +0.139 A 
ATOM     30  C   LIG A   1      -7.023  -3.617 129.060  0.00  0.00    +0.098 A 
ATOM     31  C   LIG A   1      -6.520  -3.693 130.434  0.00  0.00    +0.197 A 
ATOM     32  O   LIG A   1      -5.962  -4.721 130.794  0.00  0.00    -0.287 OA
BRANCH  29  33
ATOM     33  C   LIG A   1      -8.183  -2.415 127.267  0.00  0.00    +0.018 A 
ATOM     34  C   LIG A   1      -8.278  -1.168 126.632  0.00  0.00    +0.015 A 
ATOM     35  C   LIG A   1      -8.792  -1.051 125.337  0.00  0.00    +0.046 A 
ATOM     36  C   LIG A   1      -9.207  -2.190 124.662  0.00  0.00    +0.117 A 
ATOM     37  C   LIG A   1      -9.120  -3.438 125.260  0.00  0.00    +0.046 A 
ATOM     38  C   LIG A   1      -8.616  -3.550 126.559  0.00  0.00    +0.015 A 
BRANCH  36  39
ATOM     39  O   LIG A   1      -9.710  -2.115 123.398  0.00  0.00    -0.507 OA
ATOM     40  H   LIG A   1      -9.690  -3.007 123.008  0.00  0.00    +0.292 HD
ENDBRANCH  36  39
ENDBRANCH  29  33
BRANCH  23  41
ATOM     41  O   LIG A   1      -7.169   0.902 133.627  0.00  0.00    -0.506 OA
ATOM     42  H   LIG A   1      -6.292   1.293 133.800  0.00  0.00    +0.292 HD
ENDBRANCH  23  41
BRANCH  25  43
ATOM     43  O   LIG A   1      -5.673  -3.555 133.170  0.00  0.00    -0.506 OA
ATOM     44  H   LIG A   1      -5.361  -3.365 134.068  0.00  0.00    +0.292 HD
ENDBRANCH  25  43
ENDBRANCH   3  22
BRANCH   4  45
ATOM     45  O   LIG A   1      -9.838   1.496 132.650  0.00  0.00    -0.506 OA
ATOM     46  H   LIG A   1     -10.712   1.141 132.404  0.00  0.00    +0.292 HD
ENDBRANCH   4  45
TORSDOF 9
ENDMDL
MODEL 9
REMARK VINA RESULT:      -9.5      2.529      7.158
REMARK  Name = NuBBE_200
REMARK  9 active torsions:
REMARK  status: ('A' for Active; 'I' for Inactive)
REMARK    1  A    between atoms: O_1  and  C_2
REMARK    2  A    between atoms: C_4  and  O_5
REMARK    3  A    between atoms: C_9  and  C_10
REMARK    4  A    between atoms: C_12  and  C_13
REMARK    5  A    between atoms: C_14  and  O_15
REMARK    6  A    between atoms: C_17  and  O_18
REMARK    7  A    between atoms: C_22  and  C_23
REMARK    8  A    between atoms: C_26  and  O_27
REMARK    9  A    between atoms: C_33  and  O_34
REMARK                            x       y       z     vdW  Elec       q    Type
REMARK                         _______ _______ _______ _____ _____    ______ ____
ROOT
ATOM      1  C   LIG A   1      -7.454   3.042 128.624  0.00  0.00    +0.018 A 
ATOM      2  C   LIG A   1      -6.501   2.167 129.189  0.00  0.00    +0.024 A 
ATOM      3  C   LIG A   1      -6.404   1.921 130.583  0.00  0.00    +0.031 A 
ATOM      4  C   LIG A   1      -7.310   2.670 131.372  0.00  0.00    +0.125 A 
ATOM      5  C   LIG A   1      -8.207   3.599 130.830  0.00  0.00    +0.046 A 
ATOM      6  C   LIG A   1      -8.289   3.779 129.459  0.00  0.00    +0.015 A 
ENDROOT
BRANCH   1  13
ATOM      7  C   LIG A   1      -9.804   1.437 123.355  0.00  0.00    +0.124 A 
ATOM      8  C   LIG A   1      -9.039   2.208 122.484  0.00  0.00    +0.091 A 
ATOM      9  C   LIG A   1      -8.081   3.085 123.006  0.00  0.00    +0.135 A 
ATOM     10  C   LIG A   1      -7.895   3.193 124.394  0.00  0.00    +0.105 A 
ATOM     11  C   LIG A   1      -6.917   4.118 125.019  0.00  0.00    +0.197 A 
ATOM     12  C   LIG A   1      -6.782   4.025 126.485  0.00  0.00    +0.098 A 
ATOM     13  C   LIG A   1      -7.588   3.212 127.173  0.00  0.00    +0.139 A 
ATOM     14  O   LIG A   1      -8.558   2.414 126.611  0.00  0.00    -0.454 OA
ATOM     15  O   LIG A   1      -6.253   4.944 124.408  0.00  0.00    -0.287 OA
ATOM     16  C   LIG A   1      -8.668   2.396 125.243  0.00  0.00    +0.146 A 
ATOM     17  C   LIG A   1      -9.622   1.519 124.727  0.00  0.00    +0.092 A 
BRANCH   7  18
ATOM     18  O   LIG A   1     -10.758   0.577 122.900  0.00  0.00    -0.506 OA
ATOM     19  H   LIG A   1     -11.639   0.964 123.042  0.00  0.00    +0.292 HD
ENDBRANCH   7  18
BRANCH   9  20
ATOM     20  O   LIG A   1      -7.330   3.828 122.140  0.00  0.00    -0.506 OA
ATOM     21  H   LIG A   1      -6.484   4.077 122.544  0.00  0.00    +0.292 HD
ENDBRANCH   9  20
ENDBRANCH   1  13
BRANCH   3  22
ATOM     22  C   LIG A   1      -5.390   0.923 131.122  0.00  0.00    +0.070 A 
ATOM     23  C   LIG A   1      -4.423   1.273 132.101  0.00  0.00    +0.132 A 
ATOM     24  C   LIG A   1      -3.470   0.378 132.599  0.00  0.00    +0.092 A 
ATOM     25  C   LIG A   1      -3.422  -0.919 132.113  0.00  0.00    +0.135 A 
ATOM     26  C   LIG A   1      -4.335  -1.331 131.140  0.00  0.00    +0.106 A 
ATOM     27  C   LIG A   1      -5.316  -0.431 130.663  0.00  0.00    +0.154 A 
ATOM     28  O   LIG A   1      -6.263  -0.853 129.744  0.00  0.00    -0.454 OA
ATOM     29  C   LIG A   1      -6.196  -2.132 129.214  0.00  0.00    +0.139 A 
ATOM     30  C   LIG A   1      -5.280  -3.038 129.565  0.00  0.00    +0.098 A 
ATOM     31  C   LIG A   1      -4.282  -2.704 130.583  0.00  0.00    +0.197 A 
ATOM     32  O   LIG A   1      -3.466  -3.560 130.901  0.00  0.00    -0.287 OA
BRANCH  29  33
ATOM     33  C   LIG A   1      -7.223  -2.444 128.195  0.00  0.00    +0.018 A 
ATOM     34  C   LIG A   1      -7.326  -1.670 127.029  0.00  0.00    +0.015 A 
ATOM     35  C   LIG A   1      -8.302  -1.938 126.065  0.00  0.00    +0.046 A 
ATOM     36  C   LIG A   1      -9.181  -2.994 126.258  0.00  0.00    +0.117 A 
ATOM     37  C   LIG A   1      -9.101  -3.781 127.397  0.00  0.00    +0.046 A 
ATOM     38  C   LIG A   1      -8.131  -3.504 128.364  0.00  0.00    +0.015 A 
BRANCH  36  39
ATOM     39  O   LIG A   1     -10.143  -3.287 125.339  0.00  0.00    -0.507 OA
ATOM     40  H   LIG A   1      -9.947  -4.162 124.960  0.00  0.00    +0.292 HD
ENDBRANCH  36  39
ENDBRANCH  29  33
BRANCH  23  41
ATOM     41  O   LIG A   1      -4.403   2.542 132.631  0.00  0.00    -0.506 OA
ATOM     42  H   LIG A   1      -3.860   3.129 132.072  0.00  0.00    +0.292 HD
ENDBRANCH  23  41
BRANCH  25  43
ATOM     43  O   LIG A   1      -2.481  -1.772 132.612  0.00  0.00    -0.506 OA
ATOM     44  H   LIG A   1      -1.682  -1.301 132.893  0.00  0.00    +0.292 HD
ENDBRANCH  25  43
ENDBRANCH   3  22
BRANCH   4  45
ATOM     45  O   LIG A   1      -7.421   2.559 132.733  0.00  0.00    -0.506 OA
ATOM     46  H   LIG A   1      -8.281   2.952 132.967  0.00  0.00    +0.292 HD
ENDBRANCH   4  45
TORSDOF 9
ENDMDL
