MODEL 1
REMARK VINA RESULT:      -7.0      0.000      0.000
REMARK  Name = NuBBE_141
REMARK  8 active torsions:
REMARK  status: ('A' for Active; 'I' for Inactive)
REMARK    1  A    between atoms: O_1  and  C_2
REMARK    2  A    between atoms: C_6  and  O_7
REMARK    3  A    between atoms: C_9  and  O_10
REMARK    4  A    between atoms: C_14  and  C_16
REMARK    5  A    between atoms: C_18  and  O_19
REMARK    6  A    between atoms: C_20  and  O_21
REMARK    7  A    between atoms: O_21  and  C_22
REMARK    8  A    between atoms: C_23  and  O_24
REMARK                            x       y       z     vdW  Elec       q    Type
REMARK                         _______ _______ _______ _____ _____    ______ ____
ROOT
ATOM      1  C   LIG A   1      -8.198   5.424 132.186  0.00  0.00    +0.164 C 
ATOM      2  C   LIG A   1      -9.676   5.775 132.376  0.00  0.00    +0.078 C 
ATOM      3  C   LIG A   1     -10.216   6.594 131.230  0.00  0.00    +0.038 A 
ATOM      4  C   LIG A   1     -11.592   6.804 131.045  0.00  0.00    +0.127 A 
ATOM      5  C   LIG A   1     -12.072   7.551 129.970  0.00  0.00    +0.091 A 
ATOM      6  C   LIG A   1     -11.176   8.102 129.065  0.00  0.00    +0.124 A 
ATOM      7  C   LIG A   1      -9.808   7.923 129.229  0.00  0.00    +0.091 A 
ATOM      8  C   LIG A   1      -9.334   7.188 130.315  0.00  0.00    +0.132 A 
ATOM      9  O   LIG A   1      -7.971   7.055 130.376  0.00  0.00    -0.481 OA
ATOM     10  C   LIG A   1      -7.456   6.667 131.662  0.00  0.00    +0.233 C 
ENDROOT
BRANCH  10  11
ATOM     11  C   LIG A   1      -5.956   6.440 131.551  0.00  0.00    +0.002 A 
ATOM     12  C   LIG A   1      -5.259   5.637 132.472  0.00  0.00    +0.056 A 
ATOM     13  C   LIG A   1      -3.875   5.442 132.365  0.00  0.00    +0.163 A 
ATOM     14  C   LIG A   1      -3.154   6.053 131.338  0.00  0.00    +0.203 A 
ATOM     15  C   LIG A   1      -3.858   6.839 130.417  0.00  0.00    +0.163 A 
ATOM     16  C   LIG A   1      -5.232   7.046 130.515  0.00  0.00    +0.056 A 
BRANCH  13  17
ATOM     17  O   LIG A   1      -3.260   4.623 133.272  0.00  0.00    -0.503 OA
ATOM     18  H   LIG A   1      -2.302   4.774 133.234  0.00  0.00    +0.292 HD
ENDBRANCH  13  17
BRANCH  14  19
ATOM     19  O   LIG A   1      -1.811   5.950 131.075  0.00  0.00    -0.488 OA
ATOM     20  C   LIG A   1      -0.946   6.720 131.903  0.00  0.00    +0.277 C 
ENDBRANCH  14  19
BRANCH  15  21
ATOM     21  O   LIG A   1      -3.194   7.443 129.381  0.00  0.00    -0.503 OA
ATOM     22  H   LIG A   1      -2.792   6.703 128.883  0.00  0.00    +0.292 HD
ENDBRANCH  15  21
ENDBRANCH  10  11
BRANCH   1  23
ATOM     23  O   LIG A   1      -8.107   4.314 131.277  0.00  0.00    -0.388 OA
ATOM     24  H   LIG A   1      -7.208   3.948 131.366  0.00  0.00    +0.210 HD
ENDBRANCH   1  23
BRANCH   4  25
ATOM     25  O   LIG A   1     -12.546   6.299 131.884  0.00  0.00    -0.506 OA
ATOM     26  H   LIG A   1     -12.405   5.351 132.024  0.00  0.00    +0.292 HD
ENDBRANCH   4  25
BRANCH   6  27
ATOM     27  O   LIG A   1     -11.599   8.831 127.995  0.00  0.00    -0.506 OA
ATOM     28  H   LIG A   1     -12.469   9.213 128.203  0.00  0.00    +0.292 HD
ENDBRANCH   6  27
TORSDOF 7
ENDMDL
MODEL 2
REMARK VINA RESULT:      -6.9      1.525      7.251
REMARK  Name = NuBBE_141
REMARK  8 active torsions:
REMARK  status: ('A' for Active; 'I' for Inactive)
REMARK    1  A    between atoms: O_1  and  C_2
REMARK    2  A    between atoms: C_6  and  O_7
REMARK    3  A    between atoms: C_9  and  O_10
REMARK    4  A    between atoms: C_14  and  C_16
REMARK    5  A    between atoms: C_18  and  O_19
REMARK    6  A    between atoms: C_20  and  O_21
REMARK    7  A    between atoms: O_21  and  C_22
REMARK    8  A    between atoms: C_23  and  O_24
REMARK                            x       y       z     vdW  Elec       q    Type
REMARK                         _______ _______ _______ _____ _____    ______ ____
ROOT
ATOM      1  C   LIG A   1      -9.134   5.347 132.961  0.00  0.00    +0.164 C 
ATOM      2  C   LIG A   1      -7.973   4.475 133.445  0.00  0.00    +0.078 C 
ATOM      3  C   LIG A   1      -6.633   5.052 133.064  0.00  0.00    +0.038 A 
ATOM      4  C   LIG A   1      -5.433   4.584 133.621  0.00  0.00    +0.127 A 
ATOM      5  C   LIG A   1      -4.204   5.142 133.267  0.00  0.00    +0.091 A 
ATOM      6  C   LIG A   1      -4.164   6.177 132.345  0.00  0.00    +0.124 A 
ATOM      7  C   LIG A   1      -5.333   6.653 131.766  0.00  0.00    +0.091 A 
ATOM      8  C   LIG A   1      -6.557   6.080 132.113  0.00  0.00    +0.132 A 
ATOM      9  O   LIG A   1      -7.652   6.633 131.500  0.00  0.00    -0.481 OA
ATOM     10  C   LIG A   1      -8.837   5.818 131.526  0.00  0.00    +0.233 C 
ENDROOT
BRANCH  10  11
ATOM     11  C   LIG A   1      -9.994   6.601 130.924  0.00  0.00    +0.002 A 
ATOM     12  C   LIG A   1     -11.281   6.574 131.492  0.00  0.00    +0.056 A 
ATOM     13  C   LIG A   1     -12.342   7.294 130.923  0.00  0.00    +0.163 A 
ATOM     14  C   LIG A   1     -12.141   8.050 129.768  0.00  0.00    +0.203 A 
ATOM     15  C   LIG A   1     -10.854   8.082 129.217  0.00  0.00    +0.163 A 
ATOM     16  C   LIG A   1      -9.793   7.368 129.768  0.00  0.00    +0.056 A 
BRANCH  13  17
ATOM     17  O   LIG A   1     -13.561   7.254 131.541  0.00  0.00    -0.503 OA
ATOM     18  H   LIG A   1     -13.772   6.333 131.764  0.00  0.00    +0.292 HD
ENDBRANCH  13  17
BRANCH  14  19
ATOM     19  O   LIG A   1     -13.056   8.826 129.100  0.00  0.00    -0.488 OA
ATOM     20  C   LIG A   1     -13.264  10.137 129.613  0.00  0.00    +0.277 C 
ENDBRANCH  14  19
BRANCH  15  21
ATOM     21  O   LIG A   1     -10.607   8.828 128.093  0.00  0.00    -0.503 OA
ATOM     22  H   LIG A   1      -9.687   9.141 128.204  0.00  0.00    +0.292 HD
ENDBRANCH  15  21
ENDBRANCH  10  11
BRANCH   1  23
ATOM     23  O   LIG A   1      -9.287   6.448 133.873  0.00  0.00    -0.388 OA
ATOM     24  H   LIG A   1      -9.004   7.251 133.399  0.00  0.00    +0.210 HD
ENDBRANCH   1  23
BRANCH   4  25
ATOM     25  O   LIG A   1      -5.377   3.571 134.537  0.00  0.00    -0.506 OA
ATOM     26  H   LIG A   1      -5.985   2.859 134.290  0.00  0.00    +0.292 HD
ENDBRANCH   4  25
BRANCH   6  27
ATOM     27  O   LIG A   1      -2.989   6.760 131.976  0.00  0.00    -0.506 OA
ATOM     28  H   LIG A   1      -3.178   7.456 131.324  0.00  0.00    +0.292 HD
ENDBRANCH   6  27
TORSDOF 7
ENDMDL
MODEL 3
REMARK VINA RESULT:      -6.8      3.333      7.403
REMARK  Name = NuBBE_141
REMARK  8 active torsions:
REMARK  status: ('A' for Active; 'I' for Inactive)
REMARK    1  A    between atoms: O_1  and  C_2
REMARK    2  A    between atoms: C_6  and  O_7
REMARK    3  A    between atoms: C_9  and  O_10
REMARK    4  A    between atoms: C_14  and  C_16
REMARK    5  A    between atoms: C_18  and  O_19
REMARK    6  A    between atoms: C_20  and  O_21
REMARK    7  A    between atoms: O_21  and  C_22
REMARK    8  A    between atoms: C_23  and  O_24
REMARK                            x       y       z     vdW  Elec       q    Type
REMARK                         _______ _______ _______ _____ _____    ______ ____
ROOT
ATOM      1  C   LIG A   1      -8.872   4.415 131.343  0.00  0.00    +0.164 C 
ATOM      2  C   LIG A   1      -7.623   3.763 131.943  0.00  0.00    +0.078 C 
ATOM      3  C   LIG A   1      -7.328   4.273 133.331  0.00  0.00    +0.038 A 
ATOM      4  C   LIG A   1      -6.408   3.638 134.180  0.00  0.00    +0.127 A 
ATOM      5  C   LIG A   1      -6.161   4.117 135.467  0.00  0.00    +0.091 A 
ATOM      6  C   LIG A   1      -6.832   5.244 135.918  0.00  0.00    +0.124 A 
ATOM      7  C   LIG A   1      -7.739   5.901 135.097  0.00  0.00    +0.091 A 
ATOM      8  C   LIG A   1      -7.970   5.427 133.805  0.00  0.00    +0.132 A 
ATOM      9  O   LIG A   1      -8.895   6.136 133.083  0.00  0.00    -0.481 OA
ATOM     10  C   LIG A   1      -8.847   5.921 131.661  0.00  0.00    +0.233 C 
ENDROOT
BRANCH  10  11
ATOM     11  C   LIG A   1      -9.998   6.669 131.006  0.00  0.00    +0.002 A 
ATOM     12  C   LIG A   1     -11.298   6.648 131.545  0.00  0.00    +0.056 A 
ATOM     13  C   LIG A   1     -12.352   7.335 130.928  0.00  0.00    +0.163 A 
ATOM     14  C   LIG A   1     -12.134   8.051 129.751  0.00  0.00    +0.203 A 
ATOM     15  C   LIG A   1     -10.835   8.078 129.228  0.00  0.00    +0.163 A 
ATOM     16  C   LIG A   1      -9.779   7.396 129.828  0.00  0.00    +0.056 A 
BRANCH  13  17
ATOM     17  O   LIG A   1     -13.585   7.303 131.520  0.00  0.00    -0.503 OA
ATOM     18  H   LIG A   1     -13.513   6.847 132.374  0.00  0.00    +0.292 HD
ENDBRANCH  13  17
BRANCH  14  19
ATOM     19  O   LIG A   1     -13.042   8.792 129.036  0.00  0.00    -0.488 OA
ATOM     20  C   LIG A   1     -13.269  10.121 129.492  0.00  0.00    +0.277 C 
ENDBRANCH  14  19
BRANCH  15  21
ATOM     21  O   LIG A   1     -10.570   8.786 128.084  0.00  0.00    -0.503 OA
ATOM     22  H   LIG A   1      -9.882   8.263 127.626  0.00  0.00    +0.292 HD
ENDBRANCH  15  21
ENDBRANCH  10  11
BRANCH   1  23
ATOM     23  O   LIG A   1     -10.032   3.764 131.890  0.00  0.00    -0.388 OA
ATOM     24  H   LIG A   1      -9.935   3.776 132.859  0.00  0.00    +0.210 HD
ENDBRANCH   1  23
BRANCH   4  25
ATOM     25  O   LIG A   1      -5.703   2.524 133.820  0.00  0.00    -0.506 OA
ATOM     26  H   LIG A   1      -5.252   2.147 134.590  0.00  0.00    +0.292 HD
ENDBRANCH   4  25
BRANCH   6  27
ATOM     27  O   LIG A   1      -6.630   5.742 137.170  0.00  0.00    -0.506 OA
ATOM     28  H   LIG A   1      -6.237   5.045 137.722  0.00  0.00    +0.292 HD
ENDBRANCH   6  27
TORSDOF 7
ENDMDL
MODEL 4
REMARK VINA RESULT:      -6.7      7.892      8.771
REMARK  Name = NuBBE_141
REMARK  8 active torsions:
REMARK  status: ('A' for Active; 'I' for Inactive)
REMARK    1  A    between atoms: O_1  and  C_2
REMARK    2  A    between atoms: C_6  and  O_7
REMARK    3  A    between atoms: C_9  and  O_10
REMARK    4  A    between atoms: C_14  and  C_16
REMARK    5  A    between atoms: C_18  and  O_19
REMARK    6  A    between atoms: C_20  and  O_21
REMARK    7  A    between atoms: O_21  and  C_22
REMARK    8  A    between atoms: C_23  and  O_24
REMARK                            x       y       z     vdW  Elec       q    Type
REMARK                         _______ _______ _______ _____ _____    ______ ____
ROOT
ATOM      1  C   LIG A   1      -7.996   2.168 123.796  0.00  0.00    +0.164 C 
ATOM      2  C   LIG A   1      -8.702   2.777 122.582  0.00  0.00    +0.078 C 
ATOM      3  C   LIG A   1      -7.736   3.467 121.652  0.00  0.00    +0.038 A 
ATOM      4  C   LIG A   1      -8.100   3.860 120.354  0.00  0.00    +0.127 A 
ATOM      5  C   LIG A   1      -7.187   4.483 119.503  0.00  0.00    +0.091 A 
ATOM      6  C   LIG A   1      -5.894   4.724 119.946  0.00  0.00    +0.124 A 
ATOM      7  C   LIG A   1      -5.508   4.359 121.229  0.00  0.00    +0.091 A 
ATOM      8  C   LIG A   1      -6.430   3.750 122.080  0.00  0.00    +0.132 A 
ATOM      9  O   LIG A   1      -5.945   3.414 123.317  0.00  0.00    -0.481 OA
ATOM     10  C   LIG A   1      -6.951   3.171 124.317  0.00  0.00    +0.233 C 
ENDROOT
BRANCH  10  11
ATOM     11  C   LIG A   1      -6.277   2.692 125.595  0.00  0.00    +0.002 A 
ATOM     12  C   LIG A   1      -7.017   2.149 126.662  0.00  0.00    +0.056 A 
ATOM     13  C   LIG A   1      -6.386   1.719 127.838  0.00  0.00    +0.163 A 
ATOM     14  C   LIG A   1      -5.003   1.830 127.978  0.00  0.00    +0.203 A 
ATOM     15  C   LIG A   1      -4.273   2.360 126.905  0.00  0.00    +0.163 A 
ATOM     16  C   LIG A   1      -4.887   2.796 125.734  0.00  0.00    +0.056 A 
BRANCH  13  17
ATOM     17  O   LIG A   1      -7.156   1.169 128.826  0.00  0.00    -0.503 OA
ATOM     18  H   LIG A   1      -8.033   0.963 128.464  0.00  0.00    +0.292 HD
ENDBRANCH  13  17
BRANCH  14  19
ATOM     19  O   LIG A   1      -4.230   1.440 129.043  0.00  0.00    -0.488 OA
ATOM     20  C   LIG A   1      -4.220   2.311 130.168  0.00  0.00    +0.277 C 
ENDBRANCH  14  19
BRANCH  15  21
ATOM     21  O   LIG A   1      -2.909   2.470 126.991  0.00  0.00    -0.503 OA
ATOM     22  H   LIG A   1      -2.733   3.424 126.870  0.00  0.00    +0.292 HD
ENDBRANCH  15  21
ENDBRANCH  10  11
BRANCH   1  23
ATOM     23  O   LIG A   1      -7.402   0.921 123.399  0.00  0.00    -0.388 OA
ATOM     24  H   LIG A   1      -6.547   0.854 123.862  0.00  0.00    +0.210 HD
ENDBRANCH   1  23
BRANCH   4  25
ATOM     25  O   LIG A   1      -9.348   3.662 119.834  0.00  0.00    -0.506 OA
ATOM     26  H   LIG A   1     -10.024   3.805 120.514  0.00  0.00    +0.292 HD
ENDBRANCH   4  25
BRANCH   6  27
ATOM     27  O   LIG A   1      -4.966   5.320 119.147  0.00  0.00    -0.506 OA
ATOM     28  H   LIG A   1      -4.089   4.966 119.371  0.00  0.00    +0.292 HD
ENDBRANCH   6  27
TORSDOF 7
ENDMDL
MODEL 5
REMARK VINA RESULT:      -6.6      2.396      7.316
REMARK  Name = NuBBE_141
REMARK  8 active torsions:
REMARK  status: ('A' for Active; 'I' for Inactive)
REMARK    1  A    between atoms: O_1  and  C_2
REMARK    2  A    between atoms: C_6  and  O_7
REMARK    3  A    between atoms: C_9  and  O_10
REMARK    4  A    between atoms: C_14  and  C_16
REMARK    5  A    between atoms: C_18  and  O_19
REMARK    6  A    between atoms: C_20  and  O_21
REMARK    7  A    between atoms: O_21  and  C_22
REMARK    8  A    between atoms: C_23  and  O_24
REMARK                            x       y       z     vdW  Elec       q    Type
REMARK                         _______ _______ _______ _____ _____    ______ ____
ROOT
ATOM      1  C   LIG A   1      -7.621   6.457 131.386  0.00  0.00    +0.164 C 
ATOM      2  C   LIG A   1      -6.488   5.496 131.758  0.00  0.00    +0.078 C 
ATOM      3  C   LIG A   1      -6.091   4.613 130.602  0.00  0.00    +0.038 A 
ATOM      4  C   LIG A   1      -4.913   3.851 130.614  0.00  0.00    +0.127 A 
ATOM      5  C   LIG A   1      -4.555   3.052 129.528  0.00  0.00    +0.091 A 
ATOM      6  C   LIG A   1      -5.379   3.006 128.413  0.00  0.00    +0.124 A 
ATOM      7  C   LIG A   1      -6.558   3.739 128.375  0.00  0.00    +0.091 A 
ATOM      8  C   LIG A   1      -6.918   4.523 129.472  0.00  0.00    +0.132 A 
ATOM      9  O   LIG A   1      -8.090   5.219 129.328  0.00  0.00    -0.481 OA
ATOM     10  C   LIG A   1      -8.669   5.693 130.557  0.00  0.00    +0.233 C 
ENDROOT
BRANCH  10  11
ATOM     11  C   LIG A   1      -9.887   6.546 130.238  0.00  0.00    +0.002 A 
ATOM     12  C   LIG A   1     -11.025   6.549 131.065  0.00  0.00    +0.056 A 
ATOM     13  C   LIG A   1     -12.146   7.333 130.757  0.00  0.00    +0.163 A 
ATOM     14  C   LIG A   1     -12.158   8.125 129.609  0.00  0.00    +0.203 A 
ATOM     15  C   LIG A   1     -11.016   8.127 128.798  0.00  0.00    +0.163 A 
ATOM     16  C   LIG A   1      -9.898   7.349 129.090  0.00  0.00    +0.056 A 
BRANCH  13  17
ATOM     17  O   LIG A   1     -13.208   7.318 131.619  0.00  0.00    -0.503 OA
ATOM     18  H   LIG A   1     -13.130   6.546 132.202  0.00  0.00    +0.292 HD
ENDBRANCH  13  17
BRANCH  14  19
ATOM     19  O   LIG A   1     -13.155   8.963 129.175  0.00  0.00    -0.488 OA
ATOM     20  C   LIG A   1     -13.214  10.244 129.792  0.00  0.00    +0.277 C 
ENDBRANCH  14  19
BRANCH  15  21
ATOM     21  O   LIG A   1     -10.976   8.905 127.670  0.00  0.00    -0.503 OA
ATOM     22  H   LIG A   1     -11.069   9.821 128.002  0.00  0.00    +0.292 HD
ENDBRANCH  15  21
ENDBRANCH  10  11
BRANCH   1  23
ATOM     23  O   LIG A   1      -7.058   7.565 130.662  0.00  0.00    -0.388 OA
ATOM     24  H   LIG A   1      -7.029   8.321 131.276  0.00  0.00    +0.210 HD
ENDBRANCH   1  23
BRANCH   4  25
ATOM     25  O   LIG A   1      -4.042   3.837 131.668  0.00  0.00    -0.506 OA
ATOM     26  H   LIG A   1      -4.451   4.235 132.450  0.00  0.00    +0.292 HD
ENDBRANCH   4  25
BRANCH   6  27
ATOM     27  O   LIG A   1      -5.066   2.248 127.325  0.00  0.00    -0.506 OA
ATOM     28  H   LIG A   1      -5.305   2.742 126.522  0.00  0.00    +0.292 HD
ENDBRANCH   6  27
TORSDOF 7
ENDMDL
MODEL 6
REMARK VINA RESULT:      -6.5      3.433      3.582
REMARK  Name = NuBBE_141
REMARK  8 active torsions:
REMARK  status: ('A' for Active; 'I' for Inactive)
REMARK    1  A    between atoms: O_1  and  C_2
REMARK    2  A    between atoms: C_6  and  O_7
REMARK    3  A    between atoms: C_9  and  O_10
REMARK    4  A    between atoms: C_14  and  C_16
REMARK    5  A    between atoms: C_18  and  O_19
REMARK    6  A    between atoms: C_20  and  O_21
REMARK    7  A    between atoms: O_21  and  C_22
REMARK    8  A    between atoms: C_23  and  O_24
REMARK                            x       y       z     vdW  Elec       q    Type
REMARK                         _______ _______ _______ _____ _____    ______ ____
ROOT
ATOM      1  C   LIG A   1      -9.010   3.881 130.414  0.00  0.00    +0.164 C 
ATOM      2  C   LIG A   1     -10.024   4.669 131.248  0.00  0.00    +0.078 C 
ATOM      3  C   LIG A   1     -10.548   5.876 130.510  0.00  0.00    +0.038 A 
ATOM      4  C   LIG A   1     -11.672   6.591 130.951  0.00  0.00    +0.127 A 
ATOM      5  C   LIG A   1     -12.151   7.695 130.246  0.00  0.00    +0.091 A 
ATOM      6  C   LIG A   1     -11.504   8.099 129.086  0.00  0.00    +0.124 A 
ATOM      7  C   LIG A   1     -10.382   7.419 128.631  0.00  0.00    +0.091 A 
ATOM      8  C   LIG A   1      -9.899   6.325 129.350  0.00  0.00    +0.132 A 
ATOM      9  O   LIG A   1      -8.799   5.714 128.808  0.00  0.00    -0.481 OA
ATOM     10  C   LIG A   1      -8.064   4.873 129.714  0.00  0.00    +0.233 C 
ENDROOT
BRANCH  10  11
ATOM     11  C   LIG A   1      -6.951   4.169 128.951  0.00  0.00    +0.002 A 
ATOM     12  C   LIG A   1      -5.925   3.473 129.615  0.00  0.00    +0.056 A 
ATOM     13  C   LIG A   1      -4.900   2.836 128.901  0.00  0.00    +0.163 A 
ATOM     14  C   LIG A   1      -4.873   2.887 127.508  0.00  0.00    +0.203 A 
ATOM     15  C   LIG A   1      -5.907   3.571 126.855  0.00  0.00    +0.163 A 
ATOM     16  C   LIG A   1      -6.928   4.213 127.551  0.00  0.00    +0.056 A 
BRANCH  13  17
ATOM     17  O   LIG A   1      -3.949   2.147 129.603  0.00  0.00    -0.503 OA
ATOM     18  H   LIG A   1      -3.080   2.309 129.201  0.00  0.00    +0.292 HD
ENDBRANCH  13  17
BRANCH  14  19
ATOM     19  O   LIG A   1      -3.964   2.304 126.661  0.00  0.00    -0.488 OA
ATOM     20  C   LIG A   1      -2.714   2.970 126.523  0.00  0.00    +0.277 C 
ENDBRANCH  14  19
BRANCH  15  21
ATOM     21  O   LIG A   1      -5.931   3.631 125.485  0.00  0.00    -0.503 OA
ATOM     22  H   LIG A   1      -4.990   3.693 125.226  0.00  0.00    +0.292 HD
ENDBRANCH  15  21
ENDBRANCH  10  11
BRANCH   1  23
ATOM     23  O   LIG A   1      -9.730   3.063 129.476  0.00  0.00    -0.388 OA
ATOM     24  H   LIG A   1      -9.969   3.636 128.725  0.00  0.00    +0.210 HD
ENDBRANCH   1  23
BRANCH   4  25
ATOM     25  O   LIG A   1     -12.371   6.265 132.080  0.00  0.00    -0.506 OA
ATOM     26  H   LIG A   1     -13.072   6.914 132.242  0.00  0.00    +0.292 HD
ENDBRANCH   4  25
BRANCH   6  27
ATOM     27  O   LIG A   1     -11.942   9.165 128.359  0.00  0.00    -0.506 OA
ATOM     28  H   LIG A   1     -12.300   9.831 128.970  0.00  0.00    +0.292 HD
ENDBRANCH   6  27
TORSDOF 7
ENDMDL
MODEL 7
REMARK VINA RESULT:      -6.4      9.542     10.661
REMARK  Name = NuBBE_141
REMARK  8 active torsions:
REMARK  status: ('A' for Active; 'I' for Inactive)
REMARK    1  A    between atoms: O_1  and  C_2
REMARK    2  A    between atoms: C_6  and  O_7
REMARK    3  A    between atoms: C_9  and  O_10
REMARK    4  A    between atoms: C_14  and  C_16
REMARK    5  A    between atoms: C_18  and  O_19
REMARK    6  A    between atoms: C_20  and  O_21
REMARK    7  A    between atoms: O_21  and  C_22
REMARK    8  A    between atoms: C_23  and  O_24
REMARK                            x       y       z     vdW  Elec       q    Type
REMARK                         _______ _______ _______ _____ _____    ______ ____
ROOT
ATOM      1  C   LIG A   1      -5.593  -0.972 126.942  0.00  0.00    +0.164 C 
ATOM      2  C   LIG A   1      -5.690  -0.791 125.425  0.00  0.00    +0.078 C 
ATOM      3  C   LIG A   1      -6.880  -1.512 124.843  0.00  0.00    +0.038 A 
ATOM      4  C   LIG A   1      -7.331  -1.276 123.535  0.00  0.00    +0.127 A 
ATOM      5  C   LIG A   1      -8.443  -1.942 123.021  0.00  0.00    +0.091 A 
ATOM      6  C   LIG A   1      -9.119  -2.858 123.813  0.00  0.00    +0.124 A 
ATOM      7  C   LIG A   1      -8.690  -3.123 125.108  0.00  0.00    +0.091 A 
ATOM      8  C   LIG A   1      -7.567  -2.465 125.611  0.00  0.00    +0.132 A 
ATOM      9  O   LIG A   1      -7.237  -2.784 126.902  0.00  0.00    -0.481 OA
ATOM     10  C   LIG A   1      -5.894  -2.442 127.287  0.00  0.00    +0.233 C 
ENDROOT
BRANCH  10  11
ATOM     11  C   LIG A   1      -5.709  -2.737 128.768  0.00  0.00    +0.002 A 
ATOM     12  C   LIG A   1      -4.445  -3.035 129.310  0.00  0.00    +0.056 A 
ATOM     13  C   LIG A   1      -4.288  -3.313 130.676  0.00  0.00    +0.163 A 
ATOM     14  C   LIG A   1      -5.392  -3.310 131.528  0.00  0.00    +0.203 A 
ATOM     15  C   LIG A   1      -6.644  -3.000 130.981  0.00  0.00    +0.163 A 
ATOM     16  C   LIG A   1      -6.816  -2.726 129.627  0.00  0.00    +0.056 A 
BRANCH  13  17
ATOM     17  O   LIG A   1      -3.029  -3.562 131.149  0.00  0.00    -0.503 OA
ATOM     18  H   LIG A   1      -2.451  -2.817 130.914  0.00  0.00    +0.292 HD
ENDBRANCH  13  17
BRANCH  14  19
ATOM     19  O   LIG A   1      -5.412  -3.536 132.882  0.00  0.00    -0.488 OA
ATOM     20  C   LIG A   1      -5.389  -4.898 133.293  0.00  0.00    +0.277 C 
ENDBRANCH  14  19
BRANCH  15  21
ATOM     21  O   LIG A   1      -7.754  -2.966 131.786  0.00  0.00    -0.503 OA
ATOM     22  H   LIG A   1      -7.460  -2.493 132.589  0.00  0.00    +0.292 HD
ENDBRANCH  15  21
ENDBRANCH  10  11
BRANCH   1  23
ATOM     23  O   LIG A   1      -6.517  -0.067 127.568  0.00  0.00    -0.388 OA
ATOM     24  H   LIG A   1      -6.513  -0.271 128.521  0.00  0.00    +0.210 HD
ENDBRANCH   1  23
BRANCH   4  25
ATOM     25  O   LIG A   1      -6.729  -0.392 122.684  0.00  0.00    -0.506 OA
ATOM     26  H   LIG A   1      -6.049  -0.838 122.158  0.00  0.00    +0.292 HD
ENDBRANCH   4  25
BRANCH   6  27
ATOM     27  O   LIG A   1     -10.216  -3.525 123.357  0.00  0.00    -0.506 OA
ATOM     28  H   LIG A   1      -9.923  -4.339 122.914  0.00  0.00    +0.292 HD
ENDBRANCH   6  27
TORSDOF 7
ENDMDL
MODEL 8
REMARK VINA RESULT:      -6.4      8.162      9.203
REMARK  Name = NuBBE_141
REMARK  8 active torsions:
REMARK  status: ('A' for Active; 'I' for Inactive)
REMARK    1  A    between atoms: O_1  and  C_2
REMARK    2  A    between atoms: C_6  and  O_7
REMARK    3  A    between atoms: C_9  and  O_10
REMARK    4  A    between atoms: C_14  and  C_16
REMARK    5  A    between atoms: C_18  and  O_19
REMARK    6  A    between atoms: C_20  and  O_21
REMARK    7  A    between atoms: O_21  and  C_22
REMARK    8  A    between atoms: C_23  and  O_24
REMARK                            x       y       z     vdW  Elec       q    Type
REMARK                         _______ _______ _______ _____ _____    ______ ____
ROOT
ATOM      1  C   LIG A   1      -7.876   0.784 126.174  0.00  0.00    +0.164 C 
ATOM      2  C   LIG A   1      -8.739  -0.318 125.553  0.00  0.00    +0.078 C 
ATOM      3  C   LIG A   1      -7.915  -1.501 125.110  0.00  0.00    +0.038 A 
ATOM      4  C   LIG A   1      -8.498  -2.730 124.765  0.00  0.00    +0.127 A 
ATOM      5  C   LIG A   1      -7.717  -3.818 124.373  0.00  0.00    +0.091 A 
ATOM      6  C   LIG A   1      -6.337  -3.684 124.318  0.00  0.00    +0.124 A 
ATOM      7  C   LIG A   1      -5.731  -2.477 124.640  0.00  0.00    +0.091 A 
ATOM      8  C   LIG A   1      -6.519  -1.388 125.017  0.00  0.00    +0.132 A 
ATOM      9  O   LIG A   1      -5.824  -0.250 125.331  0.00  0.00    -0.481 OA
ATOM     10  C   LIG A   1      -6.605   0.959 125.323  0.00  0.00    +0.233 C 
ENDROOT
BRANCH  10  11
ATOM     11  C   LIG A   1      -5.741   2.114 125.806  0.00  0.00    +0.002 A 
ATOM     12  C   LIG A   1      -6.131   3.454 125.628  0.00  0.00    +0.056 A 
ATOM     13  C   LIG A   1      -5.322   4.511 126.070  0.00  0.00    +0.163 A 
ATOM     14  C   LIG A   1      -4.101   4.252 126.692  0.00  0.00    +0.203 A 
ATOM     15  C   LIG A   1      -3.727   2.914 126.877  0.00  0.00    +0.163 A 
ATOM     16  C   LIG A   1      -4.517   1.855 126.438  0.00  0.00    +0.056 A 
BRANCH  13  17
ATOM     17  O   LIG A   1      -5.773   5.791 125.898  0.00  0.00    -0.503 OA
ATOM     18  H   LIG A   1      -5.012   6.395 125.888  0.00  0.00    +0.292 HD
ENDBRANCH  13  17
BRANCH  14  19
ATOM     19  O   LIG A   1      -3.206   5.160 127.201  0.00  0.00    -0.488 OA
ATOM     20  C   LIG A   1      -3.561   5.769 128.437  0.00  0.00    +0.277 C 
ENDBRANCH  14  19
BRANCH  15  21
ATOM     21  O   LIG A   1      -2.543   2.613 127.500  0.00  0.00    -0.503 OA
ATOM     22  H   LIG A   1      -2.396   1.667 127.301  0.00  0.00    +0.292 HD
ENDBRANCH  15  21
ENDBRANCH  10  11
BRANCH   1  23
ATOM     23  O   LIG A   1      -7.575   0.415 127.531  0.00  0.00    -0.388 OA
ATOM     24  H   LIG A   1      -6.620   0.561 127.659  0.00  0.00    +0.210 HD
ENDBRANCH   1  23
BRANCH   4  25
ATOM     25  O   LIG A   1      -9.846  -2.953 124.791  0.00  0.00    -0.506 OA
ATOM     26  H   LIG A   1     -10.073  -3.566 125.505  0.00  0.00    +0.292 HD
ENDBRANCH   4  25
BRANCH   6  27
ATOM     27  O   LIG A   1      -5.534  -4.721 123.950  0.00  0.00    -0.506 OA
ATOM     28  H   LIG A   1      -5.894  -5.122 123.141  0.00  0.00    +0.292 HD
ENDBRANCH   6  27
TORSDOF 7
ENDMDL
MODEL 9
REMARK VINA RESULT:      -6.4      9.482     10.594
REMARK  Name = NuBBE_141
REMARK  8 active torsions:
REMARK  status: ('A' for Active; 'I' for Inactive)
REMARK    1  A    between atoms: O_1  and  C_2
REMARK    2  A    between atoms: C_6  and  O_7
REMARK    3  A    between atoms: C_9  and  O_10
REMARK    4  A    between atoms: C_14  and  C_16
REMARK    5  A    between atoms: C_18  and  O_19
REMARK    6  A    between atoms: C_20  and  O_21
REMARK    7  A    between atoms: O_21  and  C_22
REMARK    8  A    between atoms: C_23  and  O_24
REMARK                            x       y       z     vdW  Elec       q    Type
REMARK                         _______ _______ _______ _____ _____    ______ ____
ROOT
ATOM      1  C   LIG A   1      -5.654  -0.906 127.066  0.00  0.00    +0.164 C 
ATOM      2  C   LIG A   1      -5.749  -0.695 125.553  0.00  0.00    +0.078 C 
ATOM      3  C   LIG A   1      -6.912  -1.439 124.948  0.00  0.00    +0.038 A 
ATOM      4  C   LIG A   1      -7.362  -1.189 123.642  0.00  0.00    +0.127 A 
ATOM      5  C   LIG A   1      -8.450  -1.877 123.106  0.00  0.00    +0.091 A 
ATOM      6  C   LIG A   1      -9.102  -2.831 123.874  0.00  0.00    +0.124 A 
ATOM      7  C   LIG A   1      -8.672  -3.111 125.165  0.00  0.00    +0.091 A 
ATOM      8  C   LIG A   1      -7.573  -2.430 125.690  0.00  0.00    +0.132 A 
ATOM      9  O   LIG A   1      -7.242  -2.767 126.976  0.00  0.00    -0.481 OA
ATOM     10  C   LIG A   1      -5.912  -2.392 127.377  0.00  0.00    +0.233 C 
ENDROOT
BRANCH  10  11
ATOM     11  C   LIG A   1      -5.726  -2.714 128.852  0.00  0.00    +0.002 A 
ATOM     12  C   LIG A   1      -6.810  -2.722 129.750  0.00  0.00    +0.056 A 
ATOM     13  C   LIG A   1      -6.626  -3.012 131.109  0.00  0.00    +0.163 A 
ATOM     14  C   LIG A   1      -5.353  -3.294 131.604  0.00  0.00    +0.203 A 
ATOM     15  C   LIG A   1      -4.282  -3.298 130.701  0.00  0.00    +0.163 A 
ATOM     16  C   LIG A   1      -4.449  -3.006 129.349  0.00  0.00    +0.056 A 
BRANCH  13  17
ATOM     17  O   LIG A   1      -7.724  -3.037 131.924  0.00  0.00    -0.503 OA
ATOM     18  H   LIG A   1      -7.499  -2.616 132.770  0.00  0.00    +0.292 HD
ENDBRANCH  13  17
BRANCH  14  19
ATOM     19  O   LIG A   1      -5.002  -3.619 132.891  0.00  0.00    -0.488 OA
ATOM     20  C   LIG A   1      -5.277  -4.954 133.300  0.00  0.00    +0.277 C 
ENDBRANCH  14  19
BRANCH  15  21
ATOM     21  O   LIG A   1      -3.015  -3.588 131.140  0.00  0.00    -0.503 OA
ATOM     22  H   LIG A   1      -2.582  -2.715 131.230  0.00  0.00    +0.292 HD
ENDBRANCH  15  21
ENDBRANCH  10  11
BRANCH   1  23
ATOM     23  O   LIG A   1      -6.611  -0.044 127.706  0.00  0.00    -0.388 OA
ATOM     24  H   LIG A   1      -6.223   0.849 127.720  0.00  0.00    +0.210 HD
ENDBRANCH   1  23
BRANCH   4  25
ATOM     25  O   LIG A   1      -6.783  -0.267 122.815  0.00  0.00    -0.506 OA
ATOM     26  H   LIG A   1      -6.930  -0.506 121.888  0.00  0.00    +0.292 HD
ENDBRANCH   4  25
BRANCH   6  27
ATOM     27  O   LIG A   1     -10.175  -3.521 123.396  0.00  0.00    -0.506 OA
ATOM     28  H   LIG A   1     -10.937  -2.920 123.353  0.00  0.00    +0.292 HD
ENDBRANCH   6  27
TORSDOF 7
ENDMDL
