MODEL 1
REMARK VINA RESULT:      -7.4      0.000      0.000
REMARK  Name = NuBBE_67
REMARK  7 active torsions:
REMARK  status: ('A' for Active; 'I' for Inactive)
REMARK    1  A    between atoms: O_1  and  C_2
REMARK    2  A    between atoms: C_3  and  O_22
REMARK    3  A    between atoms: C_5  and  C_6
REMARK    4  A    between atoms: C_10  and  O_18
REMARK    5  A    between atoms: C_12  and  O_16
REMARK    6  A    between atoms: O_16  and  C_17
REMARK    7  A    between atoms: O_22  and  C_23
REMARK                            x       y       z     vdW  Elec       q    Type
REMARK                         _______ _______ _______ _____ _____    ______ ____
ROOT
ATOM      1  C   LIG A   1      -7.118   2.793 123.550  0.00  0.00    +0.211 C 
ATOM      2  C   LIG A   1      -6.087   2.856 124.669  0.00  0.00    +0.129 C 
ATOM      3  C   LIG A   1      -6.620   2.099 125.848  0.00  0.00    +0.174 C 
ATOM      4  C   LIG A   1      -7.443   0.915 125.559  0.00  0.00    +0.101 A 
ATOM      5  C   LIG A   1      -7.847   0.047 126.574  0.00  0.00    +0.134 A 
ATOM      6  C   LIG A   1      -8.571  -1.102 126.269  0.00  0.00    +0.092 A 
ATOM      7  C   LIG A   1      -8.890  -1.399 124.944  0.00  0.00    +0.127 A 
ATOM      8  C   LIG A   1      -8.488  -0.527 123.925  0.00  0.00    +0.092 A 
ATOM      9  C   LIG A   1      -7.778   0.636 124.234  0.00  0.00    +0.139 A 
ATOM     10  O   LIG A   1      -7.415   1.433 123.183  0.00  0.00    -0.483 OA
ATOM     11  O   LIG A   1      -6.337   2.381 127.011  0.00  0.00    -0.292 OA
ENDROOT
BRANCH   1  15
ATOM     12  C   LIG A   1      -5.651   4.859 120.062  0.00  0.00    +0.159 A 
ATOM     13  C   LIG A   1      -6.914   4.263 120.015  0.00  0.00    +0.162 A 
ATOM     14  C   LIG A   1      -7.380   3.588 121.142  0.00  0.00    +0.056 A 
ATOM     15  C   LIG A   1      -6.605   3.522 122.318  0.00  0.00    -0.003 A 
ATOM     16  C   LIG A   1      -5.333   4.120 122.328  0.00  0.00    +0.011 A 
ATOM     17  C   LIG A   1      -4.858   4.790 121.201  0.00  0.00    +0.049 A 
BRANCH  12  18
ATOM     18  O   LIG A   1      -5.165   5.533 118.975  0.00  0.00    -0.503 OA
ATOM     19  H   LIG A   1      -4.230   5.715 119.190  0.00  0.00    +0.292 HD
ENDBRANCH  12  18
BRANCH  13  20
ATOM     20  O   LIG A   1      -7.590   4.413 118.830  0.00  0.00    -0.491 OA
ATOM     21  C   LIG A   1      -9.008   4.287 118.892  0.00  0.00    +0.277 C 
ENDBRANCH  13  20
ENDBRANCH   1  15
BRANCH   7  22
ATOM     22  O   LIG A   1      -9.584  -2.508 124.532  0.00  0.00    -0.495 OA
ATOM     23  C   LIG A   1      -9.185  -3.061 123.280  0.00  0.00    +0.277 C 
ENDBRANCH   7  22
BRANCH   5  24
ATOM     24  O   LIG A   1      -7.556   0.249 127.895  0.00  0.00    -0.506 OA
ATOM     25  H   LIG A   1      -7.334  -0.622 128.298  0.00  0.00    +0.292 HD
ENDBRANCH   5  24
TORSDOF 5
ENDMDL
MODEL 2
REMARK VINA RESULT:      -7.4      6.839      8.615
REMARK  Name = NuBBE_67
REMARK  7 active torsions:
REMARK  status: ('A' for Active; 'I' for Inactive)
REMARK    1  A    between atoms: O_1  and  C_2
REMARK    2  A    between atoms: C_3  and  O_22
REMARK    3  A    between atoms: C_5  and  C_6
REMARK    4  A    between atoms: C_10  and  O_18
REMARK    5  A    between atoms: C_12  and  O_16
REMARK    6  A    between atoms: O_16  and  C_17
REMARK    7  A    between atoms: O_22  and  C_23
REMARK                            x       y       z     vdW  Elec       q    Type
REMARK                         _______ _______ _______ _____ _____    ______ ____
ROOT
ATOM      1  C   LIG A   1     -10.762   5.064 130.898  0.00  0.00    +0.211 C 
ATOM      2  C   LIG A   1      -9.926   5.357 132.136  0.00  0.00    +0.129 C 
ATOM      3  C   LIG A   1      -9.372   4.063 132.652  0.00  0.00    +0.174 C 
ATOM      4  C   LIG A   1      -9.021   3.046 131.649  0.00  0.00    +0.101 A 
ATOM      5  C   LIG A   1      -8.345   1.878 132.005  0.00  0.00    +0.134 A 
ATOM      6  C   LIG A   1      -7.965   0.961 131.030  0.00  0.00    +0.092 A 
ATOM      7  C   LIG A   1      -8.250   1.206 129.686  0.00  0.00    +0.127 A 
ATOM      8  C   LIG A   1      -8.931   2.376 129.328  0.00  0.00    +0.092 A 
ATOM      9  C   LIG A   1      -9.328   3.288 130.310  0.00  0.00    +0.139 A 
ATOM     10  O   LIG A   1      -9.982   4.409 129.880  0.00  0.00    -0.483 OA
ATOM     11  O   LIG A   1      -9.137   3.858 133.841  0.00  0.00    -0.292 OA
ENDROOT
BRANCH   1  15
ATOM     12  C   LIG A   1     -12.347   8.729 129.271  0.00  0.00    +0.159 A 
ATOM     13  C   LIG A   1     -11.357   8.045 128.560  0.00  0.00    +0.162 A 
ATOM     14  C   LIG A   1     -10.840   6.865 129.095  0.00  0.00    +0.056 A 
ATOM     15  C   LIG A   1     -11.319   6.356 130.320  0.00  0.00    -0.003 A 
ATOM     16  C   LIG A   1     -12.306   7.074 131.015  0.00  0.00    +0.011 A 
ATOM     17  C   LIG A   1     -12.821   8.259 130.489  0.00  0.00    +0.049 A 
BRANCH  12  18
ATOM     18  O   LIG A   1     -12.878   9.887 128.772  0.00  0.00    -0.503 OA
ATOM     19  H   LIG A   1     -12.105  10.424 128.510  0.00  0.00    +0.292 HD
ENDBRANCH  12  18
BRANCH  13  20
ATOM     20  O   LIG A   1     -10.986   8.618 127.370  0.00  0.00    -0.491 OA
ATOM     21  C   LIG A   1     -10.962   7.757 126.235  0.00  0.00    +0.277 C 
ENDBRANCH  13  20
ENDBRANCH   1  15
BRANCH   7  22
ATOM     22  O   LIG A   1      -7.910   0.380 128.647  0.00  0.00    -0.495 OA
ATOM     23  C   LIG A   1      -8.249   0.849 127.344  0.00  0.00    +0.277 C 
ENDBRANCH   7  22
BRANCH   5  24
ATOM     24  O   LIG A   1      -8.005   1.571 133.294  0.00  0.00    -0.506 OA
ATOM     25  H   LIG A   1      -7.913   2.414 133.797  0.00  0.00    +0.292 HD
ENDBRANCH   5  24
TORSDOF 5
ENDMDL
MODEL 3
REMARK VINA RESULT:      -7.3      2.391      3.788
REMARK  Name = NuBBE_67
REMARK  7 active torsions:
REMARK  status: ('A' for Active; 'I' for Inactive)
REMARK    1  A    between atoms: O_1  and  C_2
REMARK    2  A    between atoms: C_3  and  O_22
REMARK    3  A    between atoms: C_5  and  C_6
REMARK    4  A    between atoms: C_10  and  O_18
REMARK    5  A    between atoms: C_12  and  O_16
REMARK    6  A    between atoms: O_16  and  C_17
REMARK    7  A    between atoms: O_22  and  C_23
REMARK                            x       y       z     vdW  Elec       q    Type
REMARK                         _______ _______ _______ _____ _____    ______ ____
ROOT
ATOM      1  C   LIG A   1      -6.569   3.046 123.044  0.00  0.00    +0.211 C 
ATOM      2  C   LIG A   1      -7.978   3.293 123.565  0.00  0.00    +0.129 C 
ATOM      3  C   LIG A   1      -8.124   2.596 124.884  0.00  0.00    +0.174 C 
ATOM      4  C   LIG A   1      -6.931   2.544 125.743  0.00  0.00    +0.101 A 
ATOM      5  C   LIG A   1      -7.001   2.071 127.054  0.00  0.00    +0.134 A 
ATOM      6  C   LIG A   1      -5.873   2.092 127.869  0.00  0.00    +0.092 A 
ATOM      7  C   LIG A   1      -4.665   2.596 127.384  0.00  0.00    +0.127 A 
ATOM      8  C   LIG A   1      -4.594   3.068 126.068  0.00  0.00    +0.092 A 
ATOM      9  C   LIG A   1      -5.723   3.028 125.244  0.00  0.00    +0.139 A 
ATOM     10  O   LIG A   1      -5.574   3.514 123.974  0.00  0.00    -0.483 OA
ATOM     11  O   LIG A   1      -9.194   2.148 125.293  0.00  0.00    -0.292 OA
ENDROOT
BRANCH   1  15
ATOM     12  C   LIG A   1      -5.973   5.082 119.291  0.00  0.00    +0.159 A 
ATOM     13  C   LIG A   1      -7.177   4.410 119.513  0.00  0.00    +0.162 A 
ATOM     14  C   LIG A   1      -7.362   3.744 120.724  0.00  0.00    +0.056 A 
ATOM     15  C   LIG A   1      -6.363   3.764 121.719  0.00  0.00    -0.003 A 
ATOM     16  C   LIG A   1      -5.158   4.438 121.459  0.00  0.00    +0.011 A 
ATOM     17  C   LIG A   1      -4.964   5.099 120.246  0.00  0.00    +0.049 A 
BRANCH  12  18
ATOM     18  O   LIG A   1      -5.761   5.749 118.114  0.00  0.00    -0.503 OA
ATOM     19  H   LIG A   1      -5.552   6.665 118.380  0.00  0.00    +0.292 HD
ENDBRANCH  12  18
BRANCH  13  20
ATOM     20  O   LIG A   1      -8.086   4.479 118.487  0.00  0.00    -0.491 OA
ATOM     21  C   LIG A   1      -9.456   4.326 118.846  0.00  0.00    +0.277 C 
ENDBRANCH  13  20
ENDBRANCH   1  15
BRANCH   7  22
ATOM     22  O   LIG A   1      -3.501   2.676 128.103  0.00  0.00    -0.495 OA
ATOM     23  C   LIG A   1      -2.470   3.476 127.529  0.00  0.00    +0.277 C 
ENDBRANCH   7  22
BRANCH   5  24
ATOM     24  O   LIG A   1      -8.149   1.584 127.617  0.00  0.00    -0.506 OA
ATOM     25  H   LIG A   1      -8.487   0.856 127.045  0.00  0.00    +0.292 HD
ENDBRANCH   5  24
TORSDOF 5
ENDMDL
MODEL 4
REMARK VINA RESULT:      -7.2      2.169      4.249
REMARK  Name = NuBBE_67
REMARK  7 active torsions:
REMARK  status: ('A' for Active; 'I' for Inactive)
REMARK    1  A    between atoms: O_1  and  C_2
REMARK    2  A    between atoms: C_3  and  O_22
REMARK    3  A    between atoms: C_5  and  C_6
REMARK    4  A    between atoms: C_10  and  O_18
REMARK    5  A    between atoms: C_12  and  O_16
REMARK    6  A    between atoms: O_16  and  C_17
REMARK    7  A    between atoms: O_22  and  C_23
REMARK                            x       y       z     vdW  Elec       q    Type
REMARK                         _______ _______ _______ _____ _____    ______ ____
ROOT
ATOM      1  C   LIG A   1      -7.503   0.849 124.562  0.00  0.00    +0.211 C 
ATOM      2  C   LIG A   1      -8.769   0.689 123.731  0.00  0.00    +0.129 C 
ATOM      3  C   LIG A   1      -9.136  -0.764 123.701  0.00  0.00    +0.174 C 
ATOM      4  C   LIG A   1      -8.849  -1.545 124.914  0.00  0.00    +0.101 A 
ATOM      5  C   LIG A   1      -9.301  -2.858 125.055  0.00  0.00    +0.134 A 
ATOM      6  C   LIG A   1      -9.073  -3.556 126.238  0.00  0.00    +0.092 A 
ATOM      7  C   LIG A   1      -8.398  -2.944 127.295  0.00  0.00    +0.127 A 
ATOM      8  C   LIG A   1      -7.942  -1.628 127.153  0.00  0.00    +0.092 A 
ATOM      9  C   LIG A   1      -8.154  -0.935 125.958  0.00  0.00    +0.139 A 
ATOM     10  O   LIG A   1      -7.685   0.348 125.900  0.00  0.00    -0.483 OA
ATOM     11  O   LIG A   1      -9.721  -1.290 122.757  0.00  0.00    -0.292 OA
ENDROOT
BRANCH   1  15
ATOM     12  C   LIG A   1      -6.392   5.007 124.817  0.00  0.00    +0.159 A 
ATOM     13  C   LIG A   1      -5.944   4.252 123.730  0.00  0.00    +0.162 A 
ATOM     14  C   LIG A   1      -6.298   2.905 123.657  0.00  0.00    +0.056 A 
ATOM     15  C   LIG A   1      -7.110   2.316 124.648  0.00  0.00    -0.003 A 
ATOM     16  C   LIG A   1      -7.533   3.100 125.734  0.00  0.00    +0.011 A 
ATOM     17  C   LIG A   1      -7.176   4.446 125.817  0.00  0.00    +0.049 A 
BRANCH  12  18
ATOM     18  O   LIG A   1      -6.067   6.333 124.917  0.00  0.00    -0.503 OA
ATOM     19  H   LIG A   1      -6.142   6.538 125.869  0.00  0.00    +0.292 HD
ENDBRANCH  12  18
BRANCH  13  20
ATOM     20  O   LIG A   1      -5.183   4.934 122.815  0.00  0.00    -0.491 OA
ATOM     21  C   LIG A   1      -5.096   4.361 121.513  0.00  0.00    +0.277 C 
ENDBRANCH  13  20
ENDBRANCH   1  15
BRANCH   7  22
ATOM     22  O   LIG A   1      -8.134  -3.532 128.504  0.00  0.00    -0.495 OA
ATOM     23  C   LIG A   1      -7.801  -2.644 129.568  0.00  0.00    +0.277 C 
ENDBRANCH   7  22
BRANCH   5  24
ATOM     24  O   LIG A   1      -9.991  -3.524 124.079  0.00  0.00    -0.506 OA
ATOM     25  H   LIG A   1     -10.842  -3.050 123.927  0.00  0.00    +0.292 HD
ENDBRANCH   5  24
TORSDOF 5
ENDMDL
MODEL 5
REMARK VINA RESULT:      -7.2      8.612     10.386
REMARK  Name = NuBBE_67
REMARK  7 active torsions:
REMARK  status: ('A' for Active; 'I' for Inactive)
REMARK    1  A    between atoms: O_1  and  C_2
REMARK    2  A    between atoms: C_3  and  O_22
REMARK    3  A    between atoms: C_5  and  C_6
REMARK    4  A    between atoms: C_10  and  O_18
REMARK    5  A    between atoms: C_12  and  O_16
REMARK    6  A    between atoms: O_16  and  C_17
REMARK    7  A    between atoms: O_22  and  C_23
REMARK                            x       y       z     vdW  Elec       q    Type
REMARK                         _______ _______ _______ _____ _____    ______ ____
ROOT
ATOM      1  C   LIG A   1      -8.752   6.190 131.225  0.00  0.00    +0.211 C 
ATOM      2  C   LIG A   1      -8.904   6.111 132.738  0.00  0.00    +0.129 C 
ATOM      3  C   LIG A   1      -7.624   5.587 133.317  0.00  0.00    +0.174 C 
ATOM      4  C   LIG A   1      -6.380   5.981 132.639  0.00  0.00    +0.101 A 
ATOM      5  C   LIG A   1      -5.130   5.689 133.188  0.00  0.00    +0.134 A 
ATOM      6  C   LIG A   1      -3.968   6.129 132.562  0.00  0.00    +0.092 A 
ATOM      7  C   LIG A   1      -4.043   6.872 131.383  0.00  0.00    +0.127 A 
ATOM      8  C   LIG A   1      -5.296   7.162 130.829  0.00  0.00    +0.092 A 
ATOM      9  C   LIG A   1      -6.462   6.704 131.449  0.00  0.00    +0.139 A 
ATOM     10  O   LIG A   1      -7.647   7.034 130.851  0.00  0.00    -0.483 OA
ATOM     11  O   LIG A   1      -7.575   4.924 134.351  0.00  0.00    -0.292 OA
ENDROOT
BRANCH   1  15
ATOM     12  C   LIG A   1     -12.349   7.774 129.453  0.00  0.00    +0.159 A 
ATOM     13  C   LIG A   1     -11.141   7.901 128.762  0.00  0.00    +0.162 A 
ATOM     14  C   LIG A   1      -9.979   7.396 129.344  0.00  0.00    +0.056 A 
ATOM     15  C   LIG A   1     -10.019   6.750 130.596  0.00  0.00    -0.003 A 
ATOM     16  C   LIG A   1     -11.247   6.650 131.271  0.00  0.00    +0.011 A 
ATOM     17  C   LIG A   1     -12.412   7.161 130.698  0.00  0.00    +0.049 A 
BRANCH  12  18
ATOM     18  O   LIG A   1     -13.509   8.256 128.909  0.00  0.00    -0.503 OA
ATOM     19  H   LIG A   1     -14.211   7.677 129.265  0.00  0.00    +0.292 HD
ENDBRANCH  12  18
BRANCH  13  20
ATOM     20  O   LIG A   1     -11.225   8.524 127.542  0.00  0.00    -0.491 OA
ATOM     21  C   LIG A   1     -10.960   7.713 126.401  0.00  0.00    +0.277 C 
ENDBRANCH  13  20
ENDBRANCH   1  15
BRANCH   7  22
ATOM     22  O   LIG A   1      -2.966   7.364 130.694  0.00  0.00    -0.495 OA
ATOM     23  C   LIG A   1      -2.211   6.407 129.954  0.00  0.00    +0.277 C 
ENDBRANCH   7  22
BRANCH   5  24
ATOM     24  O   LIG A   1      -4.967   4.989 134.352  0.00  0.00    -0.506 OA
ATOM     25  H   LIG A   1      -5.000   5.627 135.102  0.00  0.00    +0.292 HD
ENDBRANCH   5  24
TORSDOF 5
ENDMDL
MODEL 6
REMARK VINA RESULT:      -7.0      6.923      9.533
REMARK  Name = NuBBE_67
REMARK  7 active torsions:
REMARK  status: ('A' for Active; 'I' for Inactive)
REMARK    1  A    between atoms: O_1  and  C_2
REMARK    2  A    between atoms: C_3  and  O_22
REMARK    3  A    between atoms: C_5  and  C_6
REMARK    4  A    between atoms: C_10  and  O_18
REMARK    5  A    between atoms: C_12  and  O_16
REMARK    6  A    between atoms: O_16  and  C_17
REMARK    7  A    between atoms: O_22  and  C_23
REMARK                            x       y       z     vdW  Elec       q    Type
REMARK                         _______ _______ _______ _____ _____    ______ ____
ROOT
ATOM      1  C   LIG A   1      -6.632   5.720 130.861  0.00  0.00    +0.211 C 
ATOM      2  C   LIG A   1      -5.952   7.053 131.141  0.00  0.00    +0.129 C 
ATOM      3  C   LIG A   1      -4.484   6.901 130.878  0.00  0.00    +0.174 C 
ATOM      4  C   LIG A   1      -4.097   5.998 129.783  0.00  0.00    +0.101 A 
ATOM      5  C   LIG A   1      -2.775   5.914 129.345  0.00  0.00    +0.134 A 
ATOM      6  C   LIG A   1      -2.443   5.102 128.264  0.00  0.00    +0.092 A 
ATOM      7  C   LIG A   1      -3.433   4.372 127.604  0.00  0.00    +0.127 A 
ATOM      8  C   LIG A   1      -4.760   4.454 128.045  0.00  0.00    +0.092 A 
ATOM      9  C   LIG A   1      -5.088   5.255 129.142  0.00  0.00    +0.139 A 
ATOM     10  O   LIG A   1      -6.406   5.287 129.507  0.00  0.00    -0.483 OA
ATOM     11  O   LIG A   1      -3.624   7.543 131.475  0.00  0.00    -0.292 OA
ENDROOT
BRANCH   1  15
ATOM     12  C   LIG A   1     -10.882   6.052 131.507  0.00  0.00    +0.159 A 
ATOM     13  C   LIG A   1     -10.403   5.928 130.200  0.00  0.00    +0.162 A 
ATOM     14  C   LIG A   1      -9.027   5.831 129.995  0.00  0.00    +0.056 A 
ATOM     15  C   LIG A   1      -8.132   5.835 131.085  0.00  0.00    -0.003 A 
ATOM     16  C   LIG A   1      -8.645   5.974 132.385  0.00  0.00    +0.011 A 
ATOM     17  C   LIG A   1     -10.020   6.080 132.596  0.00  0.00    +0.049 A 
BRANCH  12  18
ATOM     18  O   LIG A   1     -12.227   6.145 131.743  0.00  0.00    -0.503 OA
ATOM     19  H   LIG A   1     -12.559   5.229 131.665  0.00  0.00    +0.292 HD
ENDBRANCH  12  18
BRANCH  13  20
ATOM     20  O   LIG A   1     -11.365   5.909 129.222  0.00  0.00    -0.491 OA
ATOM     21  C   LIG A   1     -11.458   7.073 128.405  0.00  0.00    +0.277 C 
ENDBRANCH  13  20
ENDBRANCH   1  15
BRANCH   7  22
ATOM     22  O   LIG A   1      -3.219   3.555 126.524  0.00  0.00    -0.495 OA
ATOM     23  C   LIG A   1      -1.890   3.063 126.371  0.00  0.00    +0.277 C 
ENDBRANCH   7  22
BRANCH   5  24
ATOM     24  O   LIG A   1      -1.748   6.613 129.918  0.00  0.00    -0.506 OA
ATOM     25  H   LIG A   1      -0.908   6.341 129.479  0.00  0.00    +0.292 HD
ENDBRANCH   5  24
TORSDOF 5
ENDMDL
MODEL 7
REMARK VINA RESULT:      -6.9      8.093     10.299
REMARK  Name = NuBBE_67
REMARK  7 active torsions:
REMARK  status: ('A' for Active; 'I' for Inactive)
REMARK    1  A    between atoms: O_1  and  C_2
REMARK    2  A    between atoms: C_3  and  O_22
REMARK    3  A    between atoms: C_5  and  C_6
REMARK    4  A    between atoms: C_10  and  O_18
REMARK    5  A    between atoms: C_12  and  O_16
REMARK    6  A    between atoms: O_16  and  C_17
REMARK    7  A    between atoms: O_22  and  C_23
REMARK                            x       y       z     vdW  Elec       q    Type
REMARK                         _______ _______ _______ _____ _____    ______ ____
ROOT
ATOM      1  C   LIG A   1      -9.802   5.568 130.941  0.00  0.00    +0.211 C 
ATOM      2  C   LIG A   1     -10.442   4.187 130.895  0.00  0.00    +0.129 C 
ATOM      3  C   LIG A   1      -9.508   3.211 131.544  0.00  0.00    +0.174 C 
ATOM      4  C   LIG A   1      -8.712   3.707 132.677  0.00  0.00    +0.101 A 
ATOM      5  C   LIG A   1      -7.941   2.843 133.456  0.00  0.00    +0.134 A 
ATOM      6  C   LIG A   1      -7.247   3.324 134.562  0.00  0.00    +0.092 A 
ATOM      7  C   LIG A   1      -7.325   4.675 134.906  0.00  0.00    +0.127 A 
ATOM      8  C   LIG A   1      -8.095   5.543 134.123  0.00  0.00    +0.092 A 
ATOM      9  C   LIG A   1      -8.776   5.061 133.001  0.00  0.00    +0.139 A 
ATOM     10  O   LIG A   1      -9.513   5.970 132.293  0.00  0.00    -0.483 OA
ATOM     11  O   LIG A   1      -9.444   2.026 131.222  0.00  0.00    -0.292 OA
ENDROOT
BRANCH   1  15
ATOM     12  C   LIG A   1     -12.440   8.497 129.195  0.00  0.00    +0.159 A 
ATOM     13  C   LIG A   1     -11.330   8.066 128.465  0.00  0.00    +0.162 A 
ATOM     14  C   LIG A   1     -10.473   7.126 129.038  0.00  0.00    +0.056 A 
ATOM     15  C   LIG A   1     -10.731   6.601 130.321  0.00  0.00    -0.003 A 
ATOM     16  C   LIG A   1     -11.849   7.065 131.034  0.00  0.00    +0.011 A 
ATOM     17  C   LIG A   1     -12.705   8.011 130.469  0.00  0.00    +0.049 A 
BRANCH  12  18
ATOM     18  O   LIG A   1     -13.303   9.416 128.660  0.00  0.00    -0.503 OA
ATOM     19  H   LIG A   1     -12.737  10.014 128.135  0.00  0.00    +0.292 HD
ENDBRANCH  12  18
BRANCH  13  20
ATOM     20  O   LIG A   1     -11.193   8.625 127.219  0.00  0.00    -0.491 OA
ATOM     21  C   LIG A   1     -10.886   7.727 126.156  0.00  0.00    +0.277 C 
ENDBRANCH  13  20
ENDBRANCH   1  15
BRANCH   7  22
ATOM     22  O   LIG A   1      -6.696   5.250 135.980  0.00  0.00    -0.495 OA
ATOM     23  C   LIG A   1      -7.392   6.325 136.605  0.00  0.00    +0.277 C 
ENDBRANCH   7  22
BRANCH   5  24
ATOM     24  O   LIG A   1      -7.829   1.503 133.204  0.00  0.00    -0.506 OA
ATOM     25  H   LIG A   1      -8.686   1.074 133.436  0.00  0.00    +0.292 HD
ENDBRANCH   5  24
TORSDOF 5
ENDMDL
MODEL 8
REMARK VINA RESULT:      -6.8      2.641      4.556
REMARK  Name = NuBBE_67
REMARK  7 active torsions:
REMARK  status: ('A' for Active; 'I' for Inactive)
REMARK    1  A    between atoms: O_1  and  C_2
REMARK    2  A    between atoms: C_3  and  O_22
REMARK    3  A    between atoms: C_5  and  C_6
REMARK    4  A    between atoms: C_10  and  O_18
REMARK    5  A    between atoms: C_12  and  O_16
REMARK    6  A    between atoms: O_16  and  C_17
REMARK    7  A    between atoms: O_22  and  C_23
REMARK                            x       y       z     vdW  Elec       q    Type
REMARK                         _______ _______ _______ _____ _____    ______ ____
ROOT
ATOM      1  C   LIG A   1      -7.063  -0.140 125.442  0.00  0.00    +0.211 C 
ATOM      2  C   LIG A   1      -8.565  -0.377 125.364  0.00  0.00    +0.129 C 
ATOM      3  C   LIG A   1      -8.871  -1.695 126.011  0.00  0.00    +0.174 C 
ATOM      4  C   LIG A   1      -8.040  -2.077 127.163  0.00  0.00    +0.101 A 
ATOM      5  C   LIG A   1      -8.345  -3.196 127.938  0.00  0.00    +0.134 A 
ATOM      6  C   LIG A   1      -7.583  -3.501 129.062  0.00  0.00    +0.092 A 
ATOM      7  C   LIG A   1      -6.511  -2.684 129.427  0.00  0.00    +0.127 A 
ATOM      8  C   LIG A   1      -6.202  -1.563 128.647  0.00  0.00    +0.092 A 
ATOM      9  C   LIG A   1      -6.957  -1.269 127.508  0.00  0.00    +0.139 A 
ATOM     10  O   LIG A   1      -6.597  -0.153 126.804  0.00  0.00    -0.483 OA
ATOM     11  O   LIG A   1      -9.812  -2.408 125.670  0.00  0.00    -0.292 OA
ENDROOT
BRANCH   1  15
ATOM     12  C   LIG A   1      -6.049   3.673 123.704  0.00  0.00    +0.159 A 
ATOM     13  C   LIG A   1      -6.831   2.780 122.967  0.00  0.00    +0.162 A 
ATOM     14  C   LIG A   1      -7.148   1.543 123.529  0.00  0.00    +0.056 A 
ATOM     15  C   LIG A   1      -6.708   1.205 124.825  0.00  0.00    -0.003 A 
ATOM     16  C   LIG A   1      -5.913   2.120 125.535  0.00  0.00    +0.011 A 
ATOM     17  C   LIG A   1      -5.587   3.355 124.975  0.00  0.00    +0.049 A 
BRANCH  12  18
ATOM     18  O   LIG A   1      -5.724   4.896 123.183  0.00  0.00    -0.503 OA
ATOM     19  H   LIG A   1      -4.959   4.724 122.600  0.00  0.00    +0.292 HD
ENDBRANCH  12  18
BRANCH  13  20
ATOM     20  O   LIG A   1      -7.223   3.225 121.730  0.00  0.00    -0.491 OA
ATOM     21  C   LIG A   1      -8.627   3.349 121.520  0.00  0.00    +0.277 C 
ENDBRANCH  13  20
ENDBRANCH   1  15
BRANCH   7  22
ATOM     22  O   LIG A   1      -5.707  -2.884 130.518  0.00  0.00    -0.495 OA
ATOM     23  C   LIG A   1      -6.274  -3.656 131.575  0.00  0.00    +0.277 C 
ENDBRANCH   7  22
BRANCH   5  24
ATOM     24  O   LIG A   1      -9.391  -4.035 127.667  0.00  0.00    -0.506 OA
ATOM     25  H   LIG A   1      -9.298  -4.836 128.233  0.00  0.00    +0.292 HD
ENDBRANCH   5  24
TORSDOF 5
ENDMDL
MODEL 9
REMARK VINA RESULT:      -6.7      3.470      8.517
REMARK  Name = NuBBE_67
REMARK  7 active torsions:
REMARK  status: ('A' for Active; 'I' for Inactive)
REMARK    1  A    between atoms: O_1  and  C_2
REMARK    2  A    between atoms: C_3  and  O_22
REMARK    3  A    between atoms: C_5  and  C_6
REMARK    4  A    between atoms: C_10  and  O_18
REMARK    5  A    between atoms: C_12  and  O_16
REMARK    6  A    between atoms: O_16  and  C_17
REMARK    7  A    between atoms: O_22  and  C_23
REMARK                            x       y       z     vdW  Elec       q    Type
REMARK                         _______ _______ _______ _____ _____    ______ ____
ROOT
ATOM      1  C   LIG A   1      -8.231  -1.669 126.972  0.00  0.00    +0.211 C 
ATOM      2  C   LIG A   1      -8.139  -2.542 125.728  0.00  0.00    +0.129 C 
ATOM      3  C   LIG A   1      -8.937  -1.896 124.636  0.00  0.00    +0.174 C 
ATOM      4  C   LIG A   1      -8.950  -0.426 124.605  0.00  0.00    +0.101 A 
ATOM      5  C   LIG A   1      -9.519   0.273 123.539  0.00  0.00    +0.134 A 
ATOM      6  C   LIG A   1      -9.461   1.663 123.499  0.00  0.00    +0.092 A 
ATOM      7  C   LIG A   1      -8.827   2.369 124.523  0.00  0.00    +0.127 A 
ATOM      8  C   LIG A   1      -8.259   1.669 125.594  0.00  0.00    +0.092 A 
ATOM      9  C   LIG A   1      -8.334   0.274 125.642  0.00  0.00    +0.139 A 
ATOM     10  O   LIG A   1      -7.749  -0.337 126.717  0.00  0.00    -0.483 OA
ATOM     11  O   LIG A   1      -9.500  -2.533 123.748  0.00  0.00    -0.292 OA
ENDROOT
BRANCH   1  15
ATOM     12  C   LIG A   1      -5.905  -3.380 130.175  0.00  0.00    +0.159 A 
ATOM     13  C   LIG A   1      -5.244  -2.717 129.137  0.00  0.00    +0.162 A 
ATOM     14  C   LIG A   1      -6.000  -2.174 128.098  0.00  0.00    +0.056 A 
ATOM     15  C   LIG A   1      -7.406  -2.270 128.100  0.00  0.00    -0.003 A 
ATOM     16  C   LIG A   1      -8.039  -2.954 129.152  0.00  0.00    +0.011 A 
ATOM     17  C   LIG A   1      -7.289  -3.506 130.190  0.00  0.00    +0.049 A 
BRANCH  12  18
ATOM     18  O   LIG A   1      -5.194  -3.920 131.211  0.00  0.00    -0.503 OA
ATOM     19  H   LIG A   1      -5.803  -4.564 131.623  0.00  0.00    +0.292 HD
ENDBRANCH  12  18
BRANCH  13  20
ATOM     20  O   LIG A   1      -3.878  -2.662 129.251  0.00  0.00    -0.491 OA
ATOM     21  C   LIG A   1      -3.158  -3.791 128.763  0.00  0.00    +0.277 C 
ENDBRANCH  13  20
ENDBRANCH   1  15
BRANCH   7  22
ATOM     22  O   LIG A   1      -8.701   3.732 124.576  0.00  0.00    -0.495 OA
ATOM     23  C   LIG A   1      -7.661   4.228 125.415  0.00  0.00    +0.277 C 
ENDBRANCH   7  22
BRANCH   5  24
ATOM     24  O   LIG A   1     -10.137  -0.341 122.484  0.00  0.00    -0.506 OA
ATOM     25  H   LIG A   1     -10.731   0.317 122.051  0.00  0.00    +0.292 HD
ENDBRANCH   5  24
TORSDOF 5
ENDMDL
