MODEL 1
REMARK VINA RESULT:      -6.9      0.000      0.000
REMARK  Name = NuBBE_2259
REMARK  7 active torsions:
REMARK  status: ('A' for Active; 'I' for Inactive)
REMARK    1  A    between atoms: C_1  and  C_2
REMARK    2  A    between atoms: C_7  and  O_16
REMARK    3  A    between atoms: C_9  and  C_12
REMARK    4  A    between atoms: C_12  and  C_13
REMARK    5  A    between atoms: C_12  and  C_14
REMARK    6  A    between atoms: C_12  and  O_15
REMARK    7  A    between atoms: C_17  and  C_20
REMARK                            x       y       z     vdW  Elec       q    Type
REMARK                         _______ _______ _______ _____ _____    ______ ____
ROOT
ATOM      1  C   LIG A   1      -5.225  -1.158 126.178  0.00  0.00    +0.044 C 
ATOM      2  C   LIG A   1      -6.408  -1.618 125.365  0.00  0.00    -0.047 A 
ATOM      3  C   LIG A   1      -7.209  -0.717 124.620  0.00  0.00    -0.033 A 
ATOM      4  C   LIG A   1      -8.329  -1.204 123.911  0.00  0.00    +0.026 A 
ATOM      5  C   LIG A   1      -9.201  -0.226 123.190  0.00  0.00    +0.192 C 
ATOM      6  O   LIG A   1     -10.173  -0.587 122.522  0.00  0.00    -0.289 OA
ATOM      7  C   LIG A   1      -8.905   1.267 123.312  0.00  0.00    +0.191 C 
ATOM      8  C   LIG A   1      -7.414   1.572 123.455  0.00  0.00    +0.061 C 
ATOM      9  C   LIG A   1      -6.885   0.761 124.653  0.00  0.00    +0.045 C 
ATOM     10  C   LIG A   1      -8.615  -2.591 123.897  0.00  0.00    -0.040 A 
ATOM     11  C   LIG A   1      -7.783  -3.465 124.611  0.00  0.00    +0.004 A 
ATOM     12  C   LIG A   1      -6.698  -2.985 125.336  0.00  0.00    +0.004 A 
ATOM     13  C   LIG A   1      -9.780  -3.193 123.154  0.00  0.00    +0.044 C 
ENDROOT
BRANCH   8  14
ATOM     14  C   LIG A   1      -7.092   3.097 123.630  0.00  0.00    +0.066 C 
ATOM     15  C   LIG A   1      -6.318   3.364 124.934  0.00  0.00    +0.041 C 
ATOM     16  C   LIG A   1      -6.283   3.701 122.473  0.00  0.00    +0.041 C 
BRANCH  14  17
ATOM     17  O   LIG A   1      -8.330   3.814 123.722  0.00  0.00    -0.389 OA
ATOM     18  H   LIG A   1      -8.200   4.558 124.337  0.00  0.00    +0.210 HD
ENDBRANCH  14  17
ENDBRANCH   8  14
BRANCH   7  19
ATOM     19  O   LIG A   1      -9.422   1.850 122.108  0.00  0.00    -0.384 OA
ATOM     20  H   LIG A   1      -9.555   2.800 122.309  0.00  0.00    +0.210 HD
ENDBRANCH   7  19
TORSDOF 3
ENDMDL
MODEL 2
REMARK VINA RESULT:      -6.7      7.818     10.162
REMARK  Name = NuBBE_2259
REMARK  7 active torsions:
REMARK  status: ('A' for Active; 'I' for Inactive)
REMARK    1  A    between atoms: C_1  and  C_2
REMARK    2  A    between atoms: C_7  and  O_16
REMARK    3  A    between atoms: C_9  and  C_12
REMARK    4  A    between atoms: C_12  and  C_13
REMARK    5  A    between atoms: C_12  and  C_14
REMARK    6  A    between atoms: C_12  and  O_15
REMARK    7  A    between atoms: C_17  and  C_20
REMARK                            x       y       z     vdW  Elec       q    Type
REMARK                         _______ _______ _______ _____ _____    ______ ____
ROOT
ATOM      1  C   LIG A   1     -12.856   7.930 131.842  0.00  0.00    +0.044 C 
ATOM      2  C   LIG A   1     -12.341   7.846 130.429  0.00  0.00    -0.047 A 
ATOM      3  C   LIG A   1     -11.317   6.943 130.049  0.00  0.00    -0.033 A 
ATOM      4  C   LIG A   1     -10.849   6.940 128.717  0.00  0.00    +0.026 A 
ATOM      5  C   LIG A   1      -9.720   6.029 128.356  0.00  0.00    +0.192 C 
ATOM      6  O   LIG A   1      -9.287   5.950 127.204  0.00  0.00    -0.289 OA
ATOM      7  C   LIG A   1      -9.054   5.197 129.451  0.00  0.00    +0.191 C 
ATOM      8  C   LIG A   1     -10.026   4.770 130.552  0.00  0.00    +0.061 C 
ATOM      9  C   LIG A   1     -10.699   6.043 131.098  0.00  0.00    +0.045 C 
ATOM     10  C   LIG A   1     -11.439   7.793 127.753  0.00  0.00    -0.040 A 
ATOM     11  C   LIG A   1     -12.478   8.649 128.146  0.00  0.00    +0.004 A 
ATOM     12  C   LIG A   1     -12.919   8.677 129.464  0.00  0.00    +0.004 A 
ATOM     13  C   LIG A   1     -11.010   7.841 126.309  0.00  0.00    +0.044 C 
ENDROOT
BRANCH   8  14
ATOM     14  C   LIG A   1      -9.353   3.955 131.711  0.00  0.00    +0.066 C 
ATOM     15  C   LIG A   1      -9.528   4.659 133.069  0.00  0.00    +0.041 C 
ATOM     16  C   LIG A   1      -9.882   2.521 131.854  0.00  0.00    +0.041 C 
BRANCH  14  17
ATOM     17  O   LIG A   1      -7.945   3.881 131.453  0.00  0.00    -0.389 OA
ATOM     18  H   LIG A   1      -7.577   3.169 132.007  0.00  0.00    +0.210 HD
ENDBRANCH  14  17
ENDBRANCH   8  14
BRANCH   7  19
ATOM     19  O   LIG A   1      -8.525   4.047 128.776  0.00  0.00    -0.384 OA
ATOM     20  H   LIG A   1      -7.768   3.745 129.322  0.00  0.00    +0.210 HD
ENDBRANCH   7  19
TORSDOF 3
ENDMDL
MODEL 3
REMARK VINA RESULT:      -6.7      1.679      1.786
REMARK  Name = NuBBE_2259
REMARK  7 active torsions:
REMARK  status: ('A' for Active; 'I' for Inactive)
REMARK    1  A    between atoms: C_1  and  C_2
REMARK    2  A    between atoms: C_7  and  O_16
REMARK    3  A    between atoms: C_9  and  C_12
REMARK    4  A    between atoms: C_12  and  C_13
REMARK    5  A    between atoms: C_12  and  C_14
REMARK    6  A    between atoms: C_12  and  O_15
REMARK    7  A    between atoms: C_17  and  C_20
REMARK                            x       y       z     vdW  Elec       q    Type
REMARK                         _______ _______ _______ _____ _____    ______ ____
ROOT
ATOM      1  C   LIG A   1      -7.490  -1.183 128.556  0.00  0.00    +0.044 C 
ATOM      2  C   LIG A   1      -8.018  -1.669 127.231  0.00  0.00    -0.047 A 
ATOM      3  C   LIG A   1      -8.328  -0.783 126.170  0.00  0.00    -0.033 A 
ATOM      4  C   LIG A   1      -8.859  -1.295 124.965  0.00  0.00    +0.026 A 
ATOM      5  C   LIG A   1      -9.245  -0.336 123.886  0.00  0.00    +0.192 C 
ATOM      6  O   LIG A   1      -9.681  -0.718 122.797  0.00  0.00    -0.289 OA
ATOM      7  C   LIG A   1      -9.136   1.165 124.150  0.00  0.00    +0.191 C 
ATOM      8  C   LIG A   1      -7.978   1.526 125.080  0.00  0.00    +0.061 C 
ATOM      9  C   LIG A   1      -8.146   0.706 126.373  0.00  0.00    +0.045 C 
ATOM     10  C   LIG A   1      -9.025  -2.692 124.799  0.00  0.00    -0.040 A 
ATOM     11  C   LIG A   1      -8.673  -3.550 125.851  0.00  0.00    +0.004 A 
ATOM     12  C   LIG A   1      -8.180  -3.046 127.049  0.00  0.00    +0.004 A 
ATOM     13  C   LIG A   1      -9.569  -3.321 123.542  0.00  0.00    +0.044 C 
ENDROOT
BRANCH   8  14
ATOM     14  C   LIG A   1      -7.876   3.058 125.402  0.00  0.00    +0.066 C 
ATOM     15  C   LIG A   1      -7.692   3.306 126.910  0.00  0.00    +0.041 C 
ATOM     16  C   LIG A   1      -6.735   3.775 124.666  0.00  0.00    +0.041 C 
BRANCH  14  17
ATOM     17  O   LIG A   1      -9.108   3.683 125.020  0.00  0.00    -0.389 OA
ATOM     18  H   LIG A   1      -8.906   4.350 124.338  0.00  0.00    +0.210 HD
ENDBRANCH  14  17
ENDBRANCH   8  14
BRANCH   7  19
ATOM     19  O   LIG A   1      -8.943   1.758 122.857  0.00  0.00    -0.384 OA
ATOM     20  H   LIG A   1      -8.644   2.675 123.029  0.00  0.00    +0.210 HD
ENDBRANCH   7  19
TORSDOF 3
ENDMDL
MODEL 4
REMARK VINA RESULT:      -6.5      2.457      3.424
REMARK  Name = NuBBE_2259
REMARK  7 active torsions:
REMARK  status: ('A' for Active; 'I' for Inactive)
REMARK    1  A    between atoms: C_1  and  C_2
REMARK    2  A    between atoms: C_7  and  O_16
REMARK    3  A    between atoms: C_9  and  C_12
REMARK    4  A    between atoms: C_12  and  C_13
REMARK    5  A    between atoms: C_12  and  C_14
REMARK    6  A    between atoms: C_12  and  O_15
REMARK    7  A    between atoms: C_17  and  C_20
REMARK                            x       y       z     vdW  Elec       q    Type
REMARK                         _______ _______ _______ _____ _____    ______ ____
ROOT
ATOM      1  C   LIG A   1      -8.624  -2.452 122.844  0.00  0.00    +0.044 C 
ATOM      2  C   LIG A   1      -8.522  -2.433 124.347  0.00  0.00    -0.047 A 
ATOM      3  C   LIG A   1      -8.369  -1.229 125.079  0.00  0.00    -0.033 A 
ATOM      4  C   LIG A   1      -8.238  -1.280 126.485  0.00  0.00    +0.026 A 
ATOM      5  C   LIG A   1      -8.006  -0.005 127.230  0.00  0.00    +0.192 C 
ATOM      6  O   LIG A   1      -7.919   0.026 128.460  0.00  0.00    -0.289 OA
ATOM      7  C   LIG A   1      -7.831   1.294 126.446  0.00  0.00    +0.191 C 
ATOM      8  C   LIG A   1      -8.653   1.330 125.157  0.00  0.00    +0.061 C 
ATOM      9  C   LIG A   1      -8.281   0.084 124.333  0.00  0.00    +0.045 C 
ATOM     10  C   LIG A   1      -8.320  -2.521 127.163  0.00  0.00    -0.040 A 
ATOM     11  C   LIG A   1      -8.512  -3.693 126.417  0.00  0.00    +0.004 A 
ATOM     12  C   LIG A   1      -8.609  -3.650 125.031  0.00  0.00    +0.004 A 
ATOM     13  C   LIG A   1      -8.207  -2.661 128.659  0.00  0.00    +0.044 C 
ENDROOT
BRANCH   8  14
ATOM     14  C   LIG A   1      -8.451   2.637 124.313  0.00  0.00    +0.066 C 
ATOM     15  C   LIG A   1      -6.963   3.017 124.210  0.00  0.00    +0.041 C 
ATOM     16  C   LIG A   1      -9.013   2.551 122.887  0.00  0.00    +0.041 C 
BRANCH  14  17
ATOM     17  O   LIG A   1      -9.115   3.716 124.984  0.00  0.00    -0.389 OA
ATOM     18  H   LIG A   1      -9.945   3.899 124.508  0.00  0.00    +0.210 HD
ENDBRANCH  14  17
ENDBRANCH   8  14
BRANCH   7  19
ATOM     19  O   LIG A   1      -8.259   2.331 127.342  0.00  0.00    -0.384 OA
ATOM     20  H   LIG A   1      -8.451   1.883 128.192  0.00  0.00    +0.210 HD
ENDBRANCH   7  19
TORSDOF 3
ENDMDL
MODEL 5
REMARK VINA RESULT:      -6.4      2.924      5.189
REMARK  Name = NuBBE_2259
REMARK  7 active torsions:
REMARK  status: ('A' for Active; 'I' for Inactive)
REMARK    1  A    between atoms: C_1  and  C_2
REMARK    2  A    between atoms: C_7  and  O_16
REMARK    3  A    between atoms: C_9  and  C_12
REMARK    4  A    between atoms: C_12  and  C_13
REMARK    5  A    between atoms: C_12  and  C_14
REMARK    6  A    between atoms: C_12  and  O_15
REMARK    7  A    between atoms: C_17  and  C_20
REMARK                            x       y       z     vdW  Elec       q    Type
REMARK                         _______ _______ _______ _____ _____    ______ ____
ROOT
ATOM      1  C   LIG A   1      -9.511  -4.283 128.079  0.00  0.00    +0.044 C 
ATOM      2  C   LIG A   1      -8.393  -3.293 128.278  0.00  0.00    -0.047 A 
ATOM      3  C   LIG A   1      -7.854  -2.535 127.209  0.00  0.00    -0.033 A 
ATOM      4  C   LIG A   1      -6.779  -1.652 127.452  0.00  0.00    +0.026 A 
ATOM      5  C   LIG A   1      -6.181  -0.915 126.297  0.00  0.00    +0.192 C 
ATOM      6  O   LIG A   1      -5.264  -0.103 126.444  0.00  0.00    -0.289 OA
ATOM      7  C   LIG A   1      -6.690  -1.203 124.886  0.00  0.00    +0.191 C 
ATOM      8  C   LIG A   1      -8.177  -1.557 124.847  0.00  0.00    +0.061 C 
ATOM      9  C   LIG A   1      -8.401  -2.736 125.812  0.00  0.00    +0.045 C 
ATOM     10  C   LIG A   1      -6.281  -1.482 128.767  0.00  0.00    -0.040 A 
ATOM     11  C   LIG A   1      -6.858  -2.216 129.814  0.00  0.00    +0.004 A 
ATOM     12  C   LIG A   1      -7.896  -3.109 129.572  0.00  0.00    +0.004 A 
ATOM     13  C   LIG A   1      -5.149  -0.550 129.115  0.00  0.00    +0.044 C 
ENDROOT
BRANCH   8  14
ATOM     14  C   LIG A   1      -8.709  -1.902 123.412  0.00  0.00    +0.066 C 
ATOM     15  C   LIG A   1      -9.510  -3.217 123.410  0.00  0.00    +0.041 C 
ATOM     16  C   LIG A   1      -9.598  -0.811 122.798  0.00  0.00    +0.041 C 
BRANCH  14  17
ATOM     17  O   LIG A   1      -7.584  -2.093 122.546  0.00  0.00    -0.389 OA
ATOM     18  H   LIG A   1      -7.485  -1.291 122.002  0.00  0.00    +0.210 HD
ENDBRANCH  14  17
ENDBRANCH   8  14
BRANCH   7  19
ATOM     19  O   LIG A   1      -6.442   0.002 124.147  0.00  0.00    -0.384 OA
ATOM     20  H   LIG A   1      -6.567  -0.236 123.204  0.00  0.00    +0.210 HD
ENDBRANCH   7  19
TORSDOF 3
ENDMDL
MODEL 6
REMARK VINA RESULT:      -6.1      7.307      9.285
REMARK  Name = NuBBE_2259
REMARK  7 active torsions:
REMARK  status: ('A' for Active; 'I' for Inactive)
REMARK    1  A    between atoms: C_1  and  C_2
REMARK    2  A    between atoms: C_7  and  O_16
REMARK    3  A    between atoms: C_9  and  C_12
REMARK    4  A    between atoms: C_12  and  C_13
REMARK    5  A    between atoms: C_12  and  C_14
REMARK    6  A    between atoms: C_12  and  O_15
REMARK    7  A    between atoms: C_17  and  C_20
REMARK                            x       y       z     vdW  Elec       q    Type
REMARK                         _______ _______ _______ _____ _____    ______ ____
ROOT
ATOM      1  C   LIG A   1      -7.824   4.273 127.686  0.00  0.00    +0.044 C 
ATOM      2  C   LIG A   1      -8.222   4.386 129.135  0.00  0.00    -0.047 A 
ATOM      3  C   LIG A   1      -9.222   5.288 129.576  0.00  0.00    -0.033 A 
ATOM      4  C   LIG A   1      -9.522   5.377 130.953  0.00  0.00    +0.026 A 
ATOM      5  C   LIG A   1     -10.529   6.386 131.404  0.00  0.00    +0.192 C 
ATOM      6  O   LIG A   1     -10.864   6.492 132.586  0.00  0.00    -0.289 OA
ATOM      7  C   LIG A   1     -11.136   7.342 130.378  0.00  0.00    +0.191 C 
ATOM      8  C   LIG A   1     -11.286   6.716 128.992  0.00  0.00    +0.061 C 
ATOM      9  C   LIG A   1      -9.903   6.188 128.567  0.00  0.00    +0.045 C 
ATOM     10  C   LIG A   1      -8.869   4.528 131.880  0.00  0.00    -0.040 A 
ATOM     11  C   LIG A   1      -7.912   3.617 131.412  0.00  0.00    +0.004 A 
ATOM     12  C   LIG A   1      -7.591   3.549 130.061  0.00  0.00    +0.004 A 
ATOM     13  C   LIG A   1      -9.142   4.548 133.362  0.00  0.00    +0.044 C 
ENDROOT
BRANCH   8  14
ATOM     14  C   LIG A   1     -11.863   7.697 127.912  0.00  0.00    +0.066 C 
ATOM     15  C   LIG A   1     -11.036   7.655 126.614  0.00  0.00    +0.041 C 
ATOM     16  C   LIG A   1     -13.328   7.426 127.543  0.00  0.00    +0.041 C 
BRANCH  14  17
ATOM     17  O   LIG A   1     -11.777   9.033 128.422  0.00  0.00    -0.389 OA
ATOM     18  H   LIG A   1     -10.889   9.151 128.803  0.00  0.00    +0.210 HD
ENDBRANCH  14  17
ENDBRANCH   8  14
BRANCH   7  19
ATOM     19  O   LIG A   1     -12.421   7.694 130.910  0.00  0.00    -0.384 OA
ATOM     20  H   LIG A   1     -13.068   7.141 130.425  0.00  0.00    +0.210 HD
ENDBRANCH   7  19
TORSDOF 3
ENDMDL
MODEL 7
REMARK VINA RESULT:      -6.0      9.436     11.179
REMARK  Name = NuBBE_2259
REMARK  7 active torsions:
REMARK  status: ('A' for Active; 'I' for Inactive)
REMARK    1  A    between atoms: C_1  and  C_2
REMARK    2  A    between atoms: C_7  and  O_16
REMARK    3  A    between atoms: C_9  and  C_12
REMARK    4  A    between atoms: C_12  and  C_13
REMARK    5  A    between atoms: C_12  and  C_14
REMARK    6  A    between atoms: C_12  and  O_15
REMARK    7  A    between atoms: C_17  and  C_20
REMARK                            x       y       z     vdW  Elec       q    Type
REMARK                         _______ _______ _______ _____ _____    ______ ____
ROOT
ATOM      1  C   LIG A   1      -4.956   7.544 130.344  0.00  0.00    +0.044 C 
ATOM      2  C   LIG A   1      -5.048   6.774 131.636  0.00  0.00    -0.047 A 
ATOM      3  C   LIG A   1      -6.285   6.332 132.167  0.00  0.00    -0.033 A 
ATOM      4  C   LIG A   1      -6.310   5.649 133.403  0.00  0.00    +0.026 A 
ATOM      5  C   LIG A   1      -7.632   5.255 133.978  0.00  0.00    +0.192 C 
ATOM      6  O   LIG A   1      -7.723   4.626 135.035  0.00  0.00    -0.289 OA
ATOM      7  C   LIG A   1      -8.912   5.677 133.259  0.00  0.00    +0.191 C 
ATOM      8  C   LIG A   1      -8.754   5.732 131.740  0.00  0.00    +0.061 C 
ATOM      9  C   LIG A   1      -7.565   6.660 131.429  0.00  0.00    +0.045 C 
ATOM     10  C   LIG A   1      -5.099   5.356 134.078  0.00  0.00    -0.040 A 
ATOM     11  C   LIG A   1      -3.886   5.770 133.511  0.00  0.00    +0.004 A 
ATOM     12  C   LIG A   1      -3.861   6.471 132.310  0.00  0.00    +0.004 A 
ATOM     13  C   LIG A   1      -5.036   4.620 135.391  0.00  0.00    +0.044 C 
ENDROOT
BRANCH   8  14
ATOM     14  C   LIG A   1     -10.044   6.208 130.985  0.00  0.00    +0.066 C 
ATOM     15  C   LIG A   1      -9.722   7.310 129.959  0.00  0.00    +0.041 C 
ATOM     16  C   LIG A   1     -10.787   5.085 130.249  0.00  0.00    +0.041 C 
BRANCH  14  17
ATOM     17  O   LIG A   1     -10.946   6.777 131.944  0.00  0.00    -0.389 OA
ATOM     18  H   LIG A   1     -11.851   6.675 131.600  0.00  0.00    +0.210 HD
ENDBRANCH  14  17
ENDBRANCH   8  14
BRANCH   7  19
ATOM     19  O   LIG A   1      -9.888   4.690 133.626  0.00  0.00    -0.384 OA
ATOM     20  H   LIG A   1     -10.691   5.193 133.877  0.00  0.00    +0.210 HD
ENDBRANCH   7  19
TORSDOF 3
ENDMDL
MODEL 8
REMARK VINA RESULT:      -5.9      3.611      6.113
REMARK  Name = NuBBE_2259
REMARK  7 active torsions:
REMARK  status: ('A' for Active; 'I' for Inactive)
REMARK    1  A    between atoms: C_1  and  C_2
REMARK    2  A    between atoms: C_7  and  O_16
REMARK    3  A    between atoms: C_9  and  C_12
REMARK    4  A    between atoms: C_12  and  C_13
REMARK    5  A    between atoms: C_12  and  C_14
REMARK    6  A    between atoms: C_12  and  O_15
REMARK    7  A    between atoms: C_17  and  C_20
REMARK                            x       y       z     vdW  Elec       q    Type
REMARK                         _______ _______ _______ _____ _____    ______ ____
ROOT
ATOM      1  C   LIG A   1      -2.414   3.463 126.229  0.00  0.00    +0.044 C 
ATOM      2  C   LIG A   1      -3.572   3.780 127.139  0.00  0.00    -0.047 A 
ATOM      3  C   LIG A   1      -4.902   3.888 126.662  0.00  0.00    -0.033 A 
ATOM      4  C   LIG A   1      -5.939   4.228 127.559  0.00  0.00    +0.026 A 
ATOM      5  C   LIG A   1      -7.322   4.406 127.021  0.00  0.00    +0.192 C 
ATOM      6  O   LIG A   1      -8.279   4.667 127.753  0.00  0.00    -0.289 OA
ATOM      7  C   LIG A   1      -7.555   4.300 125.515  0.00  0.00    +0.191 C 
ATOM      8  C   LIG A   1      -6.619   3.301 124.834  0.00  0.00    +0.061 C 
ATOM      9  C   LIG A   1      -5.175   3.700 125.185  0.00  0.00    +0.045 C 
ATOM     10  C   LIG A   1      -5.660   4.402 128.936  0.00  0.00    -0.040 A 
ATOM     11  C   LIG A   1      -4.341   4.252 129.389  0.00  0.00    +0.004 A 
ATOM     12  C   LIG A   1      -3.313   3.948 128.503  0.00  0.00    +0.004 A 
ATOM     13  C   LIG A   1      -6.709   4.750 129.960  0.00  0.00    +0.044 C 
ENDROOT
BRANCH   8  14
ATOM     14  C   LIG A   1      -6.810   3.211 123.279  0.00  0.00    +0.066 C 
ATOM     15  C   LIG A   1      -5.695   3.965 122.531  0.00  0.00    +0.041 C 
ATOM     16  C   LIG A   1      -6.850   1.775 122.737  0.00  0.00    +0.041 C 
BRANCH  14  17
ATOM     17  O   LIG A   1      -8.049   3.845 122.938  0.00  0.00    -0.389 OA
ATOM     18  H   LIG A   1      -8.020   4.067 121.990  0.00  0.00    +0.210 HD
ENDBRANCH  14  17
ENDBRANCH   8  14
BRANCH   7  19
ATOM     19  O   LIG A   1      -8.921   3.882 125.377  0.00  0.00    -0.384 OA
ATOM     20  H   LIG A   1      -8.893   2.904 125.314  0.00  0.00    +0.210 HD
ENDBRANCH   7  19
TORSDOF 3
ENDMDL
MODEL 9
REMARK VINA RESULT:      -5.9      2.173      5.673
REMARK  Name = NuBBE_2259
REMARK  7 active torsions:
REMARK  status: ('A' for Active; 'I' for Inactive)
REMARK    1  A    between atoms: C_1  and  C_2
REMARK    2  A    between atoms: C_7  and  O_16
REMARK    3  A    between atoms: C_9  and  C_12
REMARK    4  A    between atoms: C_12  and  C_13
REMARK    5  A    between atoms: C_12  and  C_14
REMARK    6  A    between atoms: C_12  and  O_15
REMARK    7  A    between atoms: C_17  and  C_20
REMARK                            x       y       z     vdW  Elec       q    Type
REMARK                         _______ _______ _______ _____ _____    ______ ____
ROOT
ATOM      1  C   LIG A   1      -7.214   3.465 121.636  0.00  0.00    +0.044 C 
ATOM      2  C   LIG A   1      -6.562   3.291 122.983  0.00  0.00    -0.047 A 
ATOM      3  C   LIG A   1      -6.847   2.186 123.823  0.00  0.00    -0.033 A 
ATOM      4  C   LIG A   1      -6.234   2.100 125.093  0.00  0.00    +0.026 A 
ATOM      5  C   LIG A   1      -6.602   0.963 125.991  0.00  0.00    +0.192 C 
ATOM      6  O   LIG A   1      -6.078   0.808 127.097  0.00  0.00    -0.289 OA
ATOM      7  C   LIG A   1      -7.687  -0.016 125.547  0.00  0.00    +0.191 C 
ATOM      8  C   LIG A   1      -7.716  -0.231 124.033  0.00  0.00    +0.061 C 
ATOM      9  C   LIG A   1      -7.854   1.151 123.369  0.00  0.00    +0.045 C 
ATOM     10  C   LIG A   1      -5.296   3.081 125.499  0.00  0.00    -0.040 A 
ATOM     11  C   LIG A   1      -5.004   4.143 124.631  0.00  0.00    +0.004 A 
ATOM     12  C   LIG A   1      -5.629   4.248 123.394  0.00  0.00    +0.004 A 
ATOM     13  C   LIG A   1      -4.587   3.055 126.828  0.00  0.00    +0.044 C 
ENDROOT
BRANCH   8  14
ATOM     14  C   LIG A   1      -8.853  -1.197 123.551  0.00  0.00    +0.066 C 
ATOM     15  C   LIG A   1      -9.780  -0.511 122.531  0.00  0.00    +0.041 C 
ATOM     16  C   LIG A   1      -8.340  -2.498 122.917  0.00  0.00    +0.041 C 
BRANCH  14  17
ATOM     17  O   LIG A   1      -9.660  -1.548 124.683  0.00  0.00    -0.389 OA
ATOM     18  H   LIG A   1      -9.236  -1.177 125.478  0.00  0.00    +0.210 HD
ENDBRANCH  14  17
ENDBRANCH   8  14
BRANCH   7  19
ATOM     19  O   LIG A   1      -7.380  -1.245 126.221  0.00  0.00    -0.384 OA
ATOM     20  H   LIG A   1      -7.291  -1.012 127.169  0.00  0.00    +0.210 HD
ENDBRANCH   7  19
TORSDOF 3
ENDMDL
