MODEL 1
REMARK VINA RESULT:      -7.3      0.000      0.000
REMARK  Name = NuBBE_2081
REMARK  9 active torsions:
REMARK  status: ('A' for Active; 'I' for Inactive)
REMARK    1  A    between atoms: O_1  and  C_2
REMARK    2  A    between atoms: C_3  and  C_4
REMARK    3  A    between atoms: C_4  and  C_5
REMARK    4  A    between atoms: C_5  and  C_6
REMARK    5  A    between atoms: C_6  and  C_7
REMARK    6  A    between atoms: C_15  and  O_16
REMARK    7  A    between atoms: O_16  and  C_17
REMARK    8  A    between atoms: C_20  and  O_21
REMARK    9  A    between atoms: O_21  and  C_22
REMARK                            x       y       z     vdW  Elec       q    Type
REMARK                         _______ _______ _______ _____ _____    ______ ____
ROOT
ATOM      1  C   LIG A   1      -9.809   0.885 122.147  0.00  0.00    +0.010 C 
ENDROOT
BRANCH   1   2
ATOM      2  C   LIG A   1      -9.990  -0.385 123.018  0.00  0.00    +0.039 C 
BRANCH   2   4
ATOM      3  C   LIG A   1      -8.857  -2.285 124.475  0.00  0.00    +0.123 A 
ATOM      4  C   LIG A   1      -8.772  -1.119 123.671  0.00  0.00    -0.006 A 
ATOM      5  C   LIG A   1      -7.498  -0.879 123.104  0.00  0.00    +0.011 A 
ATOM      6  C   LIG A   1      -6.417  -1.780 123.297  0.00  0.00    +0.046 A 
ATOM      7  C   LIG A   1      -6.592  -2.981 123.989  0.00  0.00    +0.124 A 
ATOM      8  C   LIG A   1      -7.828  -3.229 124.547  0.00  0.00    +0.091 A 
BRANCH   3   9
ATOM      9  O   LIG A   1     -10.025  -2.767 124.990  0.00  0.00    -0.506 OA
ATOM     10  H   LIG A   1     -10.213  -3.595 124.491  0.00  0.00    +0.292 HD
ENDBRANCH   3   9
BRANCH   7  11
ATOM     11  O   LIG A   1      -5.547  -3.865 124.048  0.00  0.00    -0.495 OA
ATOM     12  C   LIG A   1      -4.361  -3.467 123.343  0.00  0.00    +0.277 C 
ENDBRANCH   7  11
ENDBRANCH   2   4
ENDBRANCH   1   2
BRANCH   1  13
ATOM     13  C   LIG A   1      -9.296   2.244 122.734  0.00  0.00    +0.039 C 
BRANCH  13  14
ATOM     14  C   LIG A   1      -8.157   3.041 122.099  0.00  0.00    -0.002 A 
ATOM     15  C   LIG A   1      -8.389   3.509 120.805  0.00  0.00    +0.056 A 
ATOM     16  C   LIG A   1      -7.361   4.173 120.149  0.00  0.00    +0.167 A 
ATOM     17  O   LIG A   1      -7.411   4.680 118.894  0.00  0.00    -0.453 OA
ATOM     18  C   LIG A   1      -6.080   5.246 118.777  0.00  0.00    +0.466 C 
ATOM     19  O   LIG A   1      -5.285   5.038 119.971  0.00  0.00    -0.453 OA
ATOM     20  C   LIG A   1      -6.129   4.375 120.748  0.00  0.00    +0.170 A 
ATOM     21  C   LIG A   1      -5.841   3.936 121.959  0.00  0.00    +0.095 A 
ATOM     22  C   LIG A   1      -6.837   3.244 122.644  0.00  0.00    +0.127 A 
BRANCH  22  23
ATOM     23  O   LIG A   1      -6.330   2.850 123.843  0.00  0.00    -0.495 OA
ATOM     24  C   LIG A   1      -5.529   3.910 124.274  0.00  0.00    +0.277 C 
ENDBRANCH  22  23
ENDBRANCH  13  14
ENDBRANCH   1  13
TORSDOF 7
ENDMDL
MODEL 2
REMARK VINA RESULT:      -7.2      1.791      2.417
REMARK  Name = NuBBE_2081
REMARK  9 active torsions:
REMARK  status: ('A' for Active; 'I' for Inactive)
REMARK    1  A    between atoms: O_1  and  C_2
REMARK    2  A    between atoms: C_3  and  C_4
REMARK    3  A    between atoms: C_4  and  C_5
REMARK    4  A    between atoms: C_5  and  C_6
REMARK    5  A    between atoms: C_6  and  C_7
REMARK    6  A    between atoms: C_15  and  O_16
REMARK    7  A    between atoms: O_16  and  C_17
REMARK    8  A    between atoms: C_20  and  O_21
REMARK    9  A    between atoms: O_21  and  C_22
REMARK                            x       y       z     vdW  Elec       q    Type
REMARK                         _______ _______ _______ _____ _____    ______ ____
ROOT
ATOM      1  C   LIG A   1      -9.843   0.500 122.921  0.00  0.00    +0.010 C 
ENDROOT
BRANCH   1   2
ATOM      2  C   LIG A   1      -8.757  -0.606 122.859  0.00  0.00    +0.039 C 
BRANCH   2   4
ATOM      3  C   LIG A   1      -8.044  -0.989 125.381  0.00  0.00    +0.123 A 
ATOM      4  C   LIG A   1      -8.405  -1.488 124.102  0.00  0.00    -0.006 A 
ATOM      5  C   LIG A   1      -8.870  -2.824 124.095  0.00  0.00    +0.011 A 
ATOM      6  C   LIG A   1      -9.006  -3.570 125.296  0.00  0.00    +0.046 A 
ATOM      7  C   LIG A   1      -8.761  -2.986 126.541  0.00  0.00    +0.124 A 
ATOM      8  C   LIG A   1      -8.308  -1.684 126.565  0.00  0.00    +0.091 A 
BRANCH   3   9
ATOM      9  O   LIG A   1      -7.712   0.313 125.620  0.00  0.00    -0.506 OA
ATOM     10  H   LIG A   1      -8.150   0.547 126.471  0.00  0.00    +0.292 HD
ENDBRANCH   3   9
BRANCH   7  11
ATOM     11  O   LIG A   1      -9.017  -3.716 127.672  0.00  0.00    -0.495 OA
ATOM     12  C   LIG A   1      -8.294  -3.312 128.845  0.00  0.00    +0.277 C 
ENDBRANCH   7  11
ENDBRANCH   2   4
ENDBRANCH   1   2
BRANCH   1  13
ATOM     13  C   LIG A   1      -9.498   2.004 123.192  0.00  0.00    +0.039 C 
BRANCH  13  14
ATOM     14  C   LIG A   1      -8.398   2.749 122.438  0.00  0.00    -0.002 A 
ATOM     15  C   LIG A   1      -8.760   3.278 121.198  0.00  0.00    +0.056 A 
ATOM     16  C   LIG A   1      -7.780   3.898 120.434  0.00  0.00    +0.167 A 
ATOM     17  O   LIG A   1      -7.954   4.454 119.211  0.00  0.00    -0.453 OA
ATOM     18  C   LIG A   1      -6.614   4.936 118.938  0.00  0.00    +0.466 C 
ATOM     19  O   LIG A   1      -5.689   4.633 120.013  0.00  0.00    -0.453 OA
ATOM     20  C   LIG A   1      -6.471   3.998 120.873  0.00  0.00    +0.170 A 
ATOM     21  C   LIG A   1      -6.062   3.497 122.024  0.00  0.00    +0.095 A 
ATOM     22  C   LIG A   1      -7.008   2.846 122.813  0.00  0.00    +0.127 A 
BRANCH  22  23
ATOM     23  O   LIG A   1      -6.381   2.376 123.924  0.00  0.00    -0.495 OA
ATOM     24  C   LIG A   1      -5.804   3.496 124.527  0.00  0.00    +0.277 C 
ENDBRANCH  22  23
ENDBRANCH  13  14
ENDBRANCH   1  13
TORSDOF 7
ENDMDL
MODEL 3
REMARK VINA RESULT:      -7.2     10.208     12.567
REMARK  Name = NuBBE_2081
REMARK  9 active torsions:
REMARK  status: ('A' for Active; 'I' for Inactive)
REMARK    1  A    between atoms: O_1  and  C_2
REMARK    2  A    between atoms: C_3  and  C_4
REMARK    3  A    between atoms: C_4  and  C_5
REMARK    4  A    between atoms: C_5  and  C_6
REMARK    5  A    between atoms: C_6  and  C_7
REMARK    6  A    between atoms: C_15  and  O_16
REMARK    7  A    between atoms: O_16  and  C_17
REMARK    8  A    between atoms: C_20  and  O_21
REMARK    9  A    between atoms: O_21  and  C_22
REMARK                            x       y       z     vdW  Elec       q    Type
REMARK                         _______ _______ _______ _____ _____    ______ ____
ROOT
ATOM      1  C   LIG A   1      -7.798   6.844 131.039  0.00  0.00    +0.010 C 
ENDROOT
BRANCH   1   2
ATOM      2  C   LIG A   1      -9.256   6.396 131.320  0.00  0.00    +0.039 C 
BRANCH   2   4
ATOM      3  C   LIG A   1     -11.810   6.924 130.856  0.00  0.00    +0.123 A 
ATOM      4  C   LIG A   1     -10.454   6.883 130.439  0.00  0.00    -0.006 A 
ATOM      5  C   LIG A   1     -10.145   7.716 129.337  0.00  0.00    +0.011 A 
ATOM      6  C   LIG A   1     -11.122   8.558 128.745  0.00  0.00    +0.046 A 
ATOM      7  C   LIG A   1     -12.410   8.658 129.279  0.00  0.00    +0.124 A 
ATOM      8  C   LIG A   1     -12.726   7.854 130.354  0.00  0.00    +0.091 A 
BRANCH   3   9
ATOM      9  O   LIG A   1     -12.275   6.310 131.982  0.00  0.00    -0.506 OA
ATOM     10  H   LIG A   1     -12.434   5.372 131.726  0.00  0.00    +0.292 HD
ENDBRANCH   3   9
BRANCH   7  11
ATOM     11  O   LIG A   1     -13.278   9.570 128.739  0.00  0.00    -0.495 OA
ATOM     12  C   LIG A   1     -13.524  10.737 129.538  0.00  0.00    +0.277 C 
ENDBRANCH   7  11
ENDBRANCH   2   4
ENDBRANCH   1   2
BRANCH   1  13
ATOM     13  C   LIG A   1      -6.560   5.948 131.385  0.00  0.00    +0.039 C 
BRANCH  13  14
ATOM     14  C   LIG A   1      -5.188   6.529 131.722  0.00  0.00    -0.002 A 
ATOM     15  C   LIG A   1      -4.714   6.265 133.008  0.00  0.00    +0.056 A 
ATOM     16  C   LIG A   1      -3.507   6.833 133.396  0.00  0.00    +0.167 A 
ATOM     17  O   LIG A   1      -2.910   6.691 134.603  0.00  0.00    -0.453 OA
ATOM     18  C   LIG A   1      -1.711   7.483 134.408  0.00  0.00    +0.466 C 
ATOM     19  O   LIG A   1      -1.652   8.079 133.087  0.00  0.00    -0.453 OA
ATOM     20  C   LIG A   1      -2.778   7.644 132.542  0.00  0.00    +0.170 A 
ATOM     21  C   LIG A   1      -3.185   7.949 131.324  0.00  0.00    +0.095 A 
ATOM     22  C   LIG A   1      -4.402   7.419 130.902  0.00  0.00    +0.127 A 
BRANCH  22  23
ATOM     23  O   LIG A   1      -4.653   7.881 129.648  0.00  0.00    -0.495 OA
ATOM     24  C   LIG A   1      -3.642   7.347 128.846  0.00  0.00    +0.277 C 
ENDBRANCH  22  23
ENDBRANCH  13  14
ENDBRANCH   1  13
TORSDOF 7
ENDMDL
MODEL 4
REMARK VINA RESULT:      -7.0      9.510     11.379
REMARK  Name = NuBBE_2081
REMARK  9 active torsions:
REMARK  status: ('A' for Active; 'I' for Inactive)
REMARK    1  A    between atoms: O_1  and  C_2
REMARK    2  A    between atoms: C_3  and  C_4
REMARK    3  A    between atoms: C_4  and  C_5
REMARK    4  A    between atoms: C_5  and  C_6
REMARK    5  A    between atoms: C_6  and  C_7
REMARK    6  A    between atoms: C_15  and  O_16
REMARK    7  A    between atoms: O_16  and  C_17
REMARK    8  A    between atoms: C_20  and  O_21
REMARK    9  A    between atoms: O_21  and  C_22
REMARK                            x       y       z     vdW  Elec       q    Type
REMARK                         _______ _______ _______ _____ _____    ______ ____
ROOT
ATOM      1  C   LIG A   1      -8.001   6.950 131.210  0.00  0.00    +0.010 C 
ENDROOT
BRANCH   1   2
ATOM      2  C   LIG A   1      -9.375   6.234 131.153  0.00  0.00    +0.039 C 
BRANCH   2   4
ATOM      3  C   LIG A   1     -11.907   6.952 130.848  0.00  0.00    +0.123 A 
ATOM      4  C   LIG A   1     -10.583   6.827 130.353  0.00  0.00    -0.006 A 
ATOM      5  C   LIG A   1     -10.277   7.664 129.254  0.00  0.00    +0.011 A 
ATOM      6  C   LIG A   1     -11.223   8.588 128.738  0.00  0.00    +0.046 A 
ATOM      7  C   LIG A   1     -12.468   8.763 129.348  0.00  0.00    +0.124 A 
ATOM      8  C   LIG A   1     -12.781   7.956 130.420  0.00  0.00    +0.091 A 
BRANCH   3   9
ATOM      9  O   LIG A   1     -12.351   6.343 131.985  0.00  0.00    -0.506 OA
ATOM     10  H   LIG A   1     -12.007   5.420 131.944  0.00  0.00    +0.292 HD
ENDBRANCH   3   9
BRANCH   7  11
ATOM     11  O   LIG A   1     -13.298   9.748 128.878  0.00  0.00    -0.495 OA
ATOM     12  C   LIG A   1     -13.521  10.847 129.775  0.00  0.00    +0.277 C 
ENDBRANCH   7  11
ENDBRANCH   2   4
ENDBRANCH   1   2
BRANCH   1  13
ATOM     13  C   LIG A   1      -6.734   6.292 131.856  0.00  0.00    +0.039 C 
BRANCH  13  14
ATOM     14  C   LIG A   1      -5.455   6.013 131.068  0.00  0.00    -0.002 A 
ATOM     15  C   LIG A   1      -4.984   7.063 130.278  0.00  0.00    +0.056 A 
ATOM     16  C   LIG A   1      -3.869   6.841 129.481  0.00  0.00    +0.167 A 
ATOM     17  O   LIG A   1      -3.289   7.741 128.651  0.00  0.00    -0.453 OA
ATOM     18  C   LIG A   1      -2.195   6.952 128.117  0.00  0.00    +0.466 C 
ATOM     19  O   LIG A   1      -2.179   5.602 128.646  0.00  0.00    -0.453 OA
ATOM     20  C   LIG A   1      -3.227   5.615 129.455  0.00  0.00    +0.170 A 
ATOM     21  C   LIG A   1      -3.638   4.577 130.160  0.00  0.00    +0.095 A 
ATOM     22  C   LIG A   1      -4.768   4.750 130.958  0.00  0.00    +0.127 A 
BRANCH  22  23
ATOM     23  O   LIG A   1      -5.043   3.564 131.563  0.00  0.00    -0.495 OA
ATOM     24  C   LIG A   1      -3.919   3.274 132.340  0.00  0.00    +0.277 C 
ENDBRANCH  22  23
ENDBRANCH  13  14
ENDBRANCH   1  13
TORSDOF 7
ENDMDL
MODEL 5
REMARK VINA RESULT:      -7.0      9.990     12.081
REMARK  Name = NuBBE_2081
REMARK  9 active torsions:
REMARK  status: ('A' for Active; 'I' for Inactive)
REMARK    1  A    between atoms: O_1  and  C_2
REMARK    2  A    between atoms: C_3  and  C_4
REMARK    3  A    between atoms: C_4  and  C_5
REMARK    4  A    between atoms: C_5  and  C_6
REMARK    5  A    between atoms: C_6  and  C_7
REMARK    6  A    between atoms: C_15  and  O_16
REMARK    7  A    between atoms: O_16  and  C_17
REMARK    8  A    between atoms: C_20  and  O_21
REMARK    9  A    between atoms: O_21  and  C_22
REMARK                            x       y       z     vdW  Elec       q    Type
REMARK                         _______ _______ _______ _____ _____    ______ ____
ROOT
ATOM      1  C   LIG A   1      -9.743   4.686 131.604  0.00  0.00    +0.010 C 
ENDROOT
BRANCH   1   2
ATOM      2  C   LIG A   1     -10.739   5.143 130.506  0.00  0.00    +0.039 C 
BRANCH   2   4
ATOM      3  C   LIG A   1     -10.719   7.465 129.232  0.00  0.00    +0.123 A 
ATOM      4  C   LIG A   1     -11.127   6.647 130.317  0.00  0.00    -0.006 A 
ATOM      5  C   LIG A   1     -12.271   7.107 131.012  0.00  0.00    +0.011 A 
ATOM      6  C   LIG A   1     -12.970   8.274 130.603  0.00  0.00    +0.046 A 
ATOM      7  C   LIG A   1     -12.601   8.968 129.448  0.00  0.00    +0.124 A 
ATOM      8  C   LIG A   1     -11.490   8.531 128.759  0.00  0.00    +0.091 A 
BRANCH   3   9
ATOM      9  O   LIG A   1      -9.735   7.121 128.353  0.00  0.00    -0.506 OA
ATOM     10  H   LIG A   1      -9.479   7.958 127.899  0.00  0.00    +0.292 HD
ENDBRANCH   3   9
BRANCH   7  11
ATOM     11  O   LIG A   1     -13.379  10.019 129.036  0.00  0.00    -0.495 OA
ATOM     12  C   LIG A   1     -13.536  11.082 129.989  0.00  0.00    +0.277 C 
ENDBRANCH   7  11
ENDBRANCH   2   4
ENDBRANCH   1   2
BRANCH   1  13
ATOM     13  C   LIG A   1      -9.013   5.697 132.553  0.00  0.00    +0.039 C 
BRANCH  13  14
ATOM     14  C   LIG A   1      -7.533   6.048 132.406  0.00  0.00    -0.002 A 
ATOM     15  C   LIG A   1      -7.187   6.756 131.254  0.00  0.00    +0.056 A 
ATOM     16  C   LIG A   1      -5.845   7.034 131.029  0.00  0.00    +0.167 A 
ATOM     17  O   LIG A   1      -5.335   7.698 129.964  0.00  0.00    -0.453 OA
ATOM     18  C   LIG A   1      -3.921   7.685 130.288  0.00  0.00    +0.466 C 
ATOM     19  O   LIG A   1      -3.646   6.997 131.534  0.00  0.00    -0.453 OA
ATOM     20  C   LIG A   1      -4.861   6.628 131.914  0.00  0.00    +0.170 A 
ATOM     21  C   LIG A   1      -5.123   5.935 133.007  0.00  0.00    +0.095 A 
ATOM     22  C   LIG A   1      -6.455   5.615 133.260  0.00  0.00    +0.127 A 
BRANCH  22  23
ATOM     23  O   LIG A   1      -6.503   4.876 134.400  0.00  0.00    -0.495 OA
ATOM     24  C   LIG A   1      -5.880   3.666 134.085  0.00  0.00    +0.277 C 
ENDBRANCH  22  23
ENDBRANCH  13  14
ENDBRANCH   1  13
TORSDOF 7
ENDMDL
MODEL 6
REMARK VINA RESULT:      -6.9      8.022     10.072
REMARK  Name = NuBBE_2081
REMARK  9 active torsions:
REMARK  status: ('A' for Active; 'I' for Inactive)
REMARK    1  A    between atoms: O_1  and  C_2
REMARK    2  A    between atoms: C_3  and  C_4
REMARK    3  A    between atoms: C_4  and  C_5
REMARK    4  A    between atoms: C_5  and  C_6
REMARK    5  A    between atoms: C_6  and  C_7
REMARK    6  A    between atoms: C_15  and  O_16
REMARK    7  A    between atoms: O_16  and  C_17
REMARK    8  A    between atoms: C_20  and  O_21
REMARK    9  A    between atoms: O_21  and  C_22
REMARK                            x       y       z     vdW  Elec       q    Type
REMARK                         _______ _______ _______ _____ _____    ______ ____
ROOT
ATOM      1  C   LIG A   1      -8.745   3.540 134.149  0.00  0.00    +0.010 C 
ENDROOT
BRANCH   1   2
ATOM      2  C   LIG A   1      -8.077   2.509 133.203  0.00  0.00    +0.039 C 
BRANCH   2   4
ATOM      3  C   LIG A   1      -9.374   2.789 130.911  0.00  0.00    +0.123 A 
ATOM      4  C   LIG A   1      -8.171   2.634 131.646  0.00  0.00    -0.006 A 
ATOM      5  C   LIG A   1      -7.000   3.039 130.962  0.00  0.00    +0.011 A 
ATOM      6  C   LIG A   1      -7.057   3.603 129.660  0.00  0.00    +0.046 A 
ATOM      7  C   LIG A   1      -8.281   3.855 129.035  0.00  0.00    +0.124 A 
ATOM      8  C   LIG A   1      -9.431   3.467 129.689  0.00  0.00    +0.091 A 
BRANCH   3   9
ATOM      9  O   LIG A   1     -10.616   2.595 131.441  0.00  0.00    -0.506 OA
ATOM     10  H   LIG A   1     -10.639   1.652 131.726  0.00  0.00    +0.292 HD
ENDBRANCH   3   9
BRANCH   7  11
ATOM     11  O   LIG A   1      -8.282   4.504 127.828  0.00  0.00    -0.495 OA
ATOM     12  C   LIG A   1      -7.380   3.978 126.843  0.00  0.00    +0.277 C 
ENDBRANCH   7  11
ENDBRANCH   2   4
ENDBRANCH   1   2
BRANCH   1  13
ATOM     13  C   LIG A   1      -8.445   5.076 134.069  0.00  0.00    +0.039 C 
BRANCH  13  14
ATOM     14  C   LIG A   1      -8.644   5.892 132.793  0.00  0.00    -0.002 A 
ATOM     15  C   LIG A   1      -9.962   6.019 132.351  0.00  0.00    +0.056 A 
ATOM     16  C   LIG A   1     -10.195   6.684 131.154  0.00  0.00    +0.167 A 
ATOM     17  O   LIG A   1     -11.403   6.889 130.577  0.00  0.00    -0.453 OA
ATOM     18  C   LIG A   1     -11.016   7.627 129.390  0.00  0.00    +0.466 C 
ATOM     19  O   LIG A   1      -9.581   7.820 129.304  0.00  0.00    -0.453 OA
ATOM     20  C   LIG A   1      -9.159   7.213 130.404  0.00  0.00    +0.170 A 
ATOM     21  C   LIG A   1      -7.891   7.104 130.756  0.00  0.00    +0.095 A 
ATOM     22  C   LIG A   1      -7.611   6.424 131.939  0.00  0.00    +0.127 A 
BRANCH  22  23
ATOM     23  O   LIG A   1      -6.261   6.391 132.098  0.00  0.00    -0.495 OA
ATOM     24  C   LIG A   1      -5.736   6.949 130.930  0.00  0.00    +0.277 C 
ENDBRANCH  22  23
ENDBRANCH  13  14
ENDBRANCH   1  13
TORSDOF 7
ENDMDL
MODEL 7
REMARK VINA RESULT:      -6.8      2.314      7.993
REMARK  Name = NuBBE_2081
REMARK  9 active torsions:
REMARK  status: ('A' for Active; 'I' for Inactive)
REMARK    1  A    between atoms: O_1  and  C_2
REMARK    2  A    between atoms: C_3  and  C_4
REMARK    3  A    between atoms: C_4  and  C_5
REMARK    4  A    between atoms: C_5  and  C_6
REMARK    5  A    between atoms: C_6  and  C_7
REMARK    6  A    between atoms: C_15  and  O_16
REMARK    7  A    between atoms: O_16  and  C_17
REMARK    8  A    between atoms: C_20  and  O_21
REMARK    9  A    between atoms: O_21  and  C_22
REMARK                            x       y       z     vdW  Elec       q    Type
REMARK                         _______ _______ _______ _____ _____    ______ ____
ROOT
ATOM      1  C   LIG A   1      -6.609   1.968 124.973  0.00  0.00    +0.010 C 
ENDROOT
BRANCH   1   2
ATOM      2  C   LIG A   1      -6.439   3.259 124.131  0.00  0.00    +0.039 C 
BRANCH   2   4
ATOM      3  C   LIG A   1      -7.820   3.265 121.870  0.00  0.00    +0.123 A 
ATOM      4  C   LIG A   1      -6.587   3.254 122.573  0.00  0.00    -0.006 A 
ATOM      5  C   LIG A   1      -5.469   3.686 121.820  0.00  0.00    +0.011 A 
ATOM      6  C   LIG A   1      -5.605   4.140 120.482  0.00  0.00    +0.046 A 
ATOM      7  C   LIG A   1      -6.862   4.254 119.882  0.00  0.00    +0.124 A 
ATOM      8  C   LIG A   1      -7.961   3.839 120.603  0.00  0.00    +0.091 A 
BRANCH   3   9
ATOM      9  O   LIG A   1      -9.028   3.025 122.456  0.00  0.00    -0.506 OA
ATOM     10  H   LIG A   1      -8.919   2.182 122.955  0.00  0.00    +0.292 HD
ENDBRANCH   3   9
BRANCH   7  11
ATOM     11  O   LIG A   1      -6.946   4.805 118.630  0.00  0.00    -0.495 OA
ATOM     12  C   LIG A   1      -6.011   5.860 118.355  0.00  0.00    +0.277 C 
ENDBRANCH   7  11
ENDBRANCH   2   4
ENDBRANCH   1   2
BRANCH   1  13
ATOM     13  C   LIG A   1      -7.984   1.541 125.593  0.00  0.00    +0.039 C 
BRANCH  13  14
ATOM     14  C   LIG A   1      -8.287   0.106 126.022  0.00  0.00    -0.002 A 
ATOM     15  C   LIG A   1      -7.773  -0.281 127.260  0.00  0.00    +0.056 A 
ATOM     16  C   LIG A   1      -7.952  -1.597 127.666  0.00  0.00    +0.167 A 
ATOM     17  O   LIG A   1      -7.512  -2.140 128.827  0.00  0.00    -0.453 OA
ATOM     18  C   LIG A   1      -7.997  -3.500 128.690  0.00  0.00    +0.466 C 
ATOM     19  O   LIG A   1      -8.699  -3.713 127.439  0.00  0.00    -0.453 OA
ATOM     20  C   LIG A   1      -8.619  -2.517 126.876  0.00  0.00    +0.170 A 
ATOM     21  C   LIG A   1      -9.106  -2.218 125.686  0.00  0.00    +0.095 A 
ATOM     22  C   LIG A   1      -8.930  -0.914 125.230  0.00  0.00    +0.127 A 
BRANCH  22  23
ATOM     23  O   LIG A   1      -9.464  -0.827 123.982  0.00  0.00    -0.495 OA
ATOM     24  C   LIG A   1      -8.506  -1.378 123.128  0.00  0.00    +0.277 C 
ENDBRANCH  22  23
ENDBRANCH  13  14
ENDBRANCH   1  13
TORSDOF 7
ENDMDL
MODEL 8
REMARK VINA RESULT:      -6.8      8.519     10.876
REMARK  Name = NuBBE_2081
REMARK  9 active torsions:
REMARK  status: ('A' for Active; 'I' for Inactive)
REMARK    1  A    between atoms: O_1  and  C_2
REMARK    2  A    between atoms: C_3  and  C_4
REMARK    3  A    between atoms: C_4  and  C_5
REMARK    4  A    between atoms: C_5  and  C_6
REMARK    5  A    between atoms: C_6  and  C_7
REMARK    6  A    between atoms: C_15  and  O_16
REMARK    7  A    between atoms: O_16  and  C_17
REMARK    8  A    between atoms: C_20  and  O_21
REMARK    9  A    between atoms: O_21  and  C_22
REMARK                            x       y       z     vdW  Elec       q    Type
REMARK                         _______ _______ _______ _____ _____    ______ ____
ROOT
ATOM      1  C   LIG A   1      -5.034   6.124 132.587  0.00  0.00    +0.010 C 
ENDROOT
BRANCH   1   2
ATOM      2  C   LIG A   1      -5.676   5.743 133.946  0.00  0.00    +0.039 C 
BRANCH   2   4
ATOM      3  C   LIG A   1      -8.158   4.861 134.222  0.00  0.00    +0.123 A 
ATOM      4  C   LIG A   1      -6.767   4.628 134.060  0.00  0.00    -0.006 A 
ATOM      5  C   LIG A   1      -6.433   3.347 133.559  0.00  0.00    +0.011 A 
ATOM      6  C   LIG A   1      -7.433   2.404 133.203  0.00  0.00    +0.046 A 
ATOM      7  C   LIG A   1      -8.790   2.734 133.259  0.00  0.00    +0.124 A 
ATOM      8  C   LIG A   1      -9.132   3.978 133.743  0.00  0.00    +0.091 A 
BRANCH   3   9
ATOM      9  O   LIG A   1      -8.689   6.073 134.552  0.00  0.00    -0.506 OA
ATOM     10  H   LIG A   1      -8.299   6.716 133.915  0.00  0.00    +0.292 HD
ENDBRANCH   3   9
BRANCH   7  11
ATOM     11  O   LIG A   1      -9.707   1.827 132.797  0.00  0.00    -0.495 OA
ATOM     12  C   LIG A   1      -9.239   0.949 131.761  0.00  0.00    +0.277 C 
ENDBRANCH   7  11
ENDBRANCH   2   4
ENDBRANCH   1   2
BRANCH   1  13
ATOM     13  C   LIG A   1      -5.861   6.743 131.409  0.00  0.00    +0.039 C 
BRANCH  13  14
ATOM     14  C   LIG A   1      -7.151   6.114 130.885  0.00  0.00    -0.002 A 
ATOM     15  C   LIG A   1      -8.320   6.840 131.116  0.00  0.00    +0.056 A 
ATOM     16  C   LIG A   1      -9.531   6.280 130.731  0.00  0.00    +0.167 A 
ATOM     17  O   LIG A   1     -10.755   6.839 130.889  0.00  0.00    -0.453 OA
ATOM     18  C   LIG A   1     -11.599   5.817 130.300  0.00  0.00    +0.466 C 
ATOM     19  O   LIG A   1     -10.837   4.678 129.826  0.00  0.00    -0.453 OA
ATOM     20  C   LIG A   1      -9.598   5.034 130.132  0.00  0.00    +0.170 A 
ATOM     21  C   LIG A   1      -8.531   4.289 129.908  0.00  0.00    +0.095 A 
ATOM     22  C   LIG A   1      -7.297   4.804 130.300  0.00  0.00    +0.127 A 
BRANCH  22  23
ATOM     23  O   LIG A   1      -6.344   3.875 130.019  0.00  0.00    -0.495 OA
ATOM     24  C   LIG A   1      -6.040   4.052 128.667  0.00  0.00    +0.277 C 
ENDBRANCH  22  23
ENDBRANCH  13  14
ENDBRANCH   1  13
TORSDOF 7
ENDMDL
MODEL 9
REMARK VINA RESULT:      -6.8      4.714      6.987
REMARK  Name = NuBBE_2081
REMARK  9 active torsions:
REMARK  status: ('A' for Active; 'I' for Inactive)
REMARK    1  A    between atoms: O_1  and  C_2
REMARK    2  A    between atoms: C_3  and  C_4
REMARK    3  A    between atoms: C_4  and  C_5
REMARK    4  A    between atoms: C_5  and  C_6
REMARK    5  A    between atoms: C_6  and  C_7
REMARK    6  A    between atoms: C_15  and  O_16
REMARK    7  A    between atoms: O_16  and  C_17
REMARK    8  A    between atoms: C_20  and  O_21
REMARK    9  A    between atoms: O_21  and  C_22
REMARK                            x       y       z     vdW  Elec       q    Type
REMARK                         _______ _______ _______ _____ _____    ______ ____
ROOT
ATOM      1  C   LIG A   1      -8.636  -3.638 128.037  0.00  0.00    +0.010 C 
ENDROOT
BRANCH   1   2
ATOM      2  C   LIG A   1      -7.677  -2.784 128.908  0.00  0.00    +0.039 C 
BRANCH   2   4
ATOM      3  C   LIG A   1      -5.040  -2.790 129.152  0.00  0.00    +0.123 A 
ATOM      4  C   LIG A   1      -6.315  -3.346 129.433  0.00  0.00    -0.006 A 
ATOM      5  C   LIG A   1      -6.362  -4.181 130.574  0.00  0.00    +0.011 A 
ATOM      6  C   LIG A   1      -5.219  -4.389 131.390  0.00  0.00    +0.046 A 
ATOM      7  C   LIG A   1      -4.022  -3.712 131.143  0.00  0.00    +0.124 A 
ATOM      8  C   LIG A   1      -3.961  -2.894 130.035  0.00  0.00    +0.091 A 
BRANCH   3   9
ATOM      9  O   LIG A   1      -4.819  -1.851 128.188  0.00  0.00    -0.506 OA
ATOM     10  H   LIG A   1      -4.109  -1.268 128.544  0.00  0.00    +0.292 HD
ENDBRANCH   3   9
BRANCH   7  11
ATOM     11  O   LIG A   1      -2.986  -3.863 132.028  0.00  0.00    -0.495 OA
ATOM     12  C   LIG A   1      -3.291  -4.610 133.215  0.00  0.00    +0.277 C 
ENDBRANCH   7  11
ENDBRANCH   2   4
ENDBRANCH   1   2
BRANCH   1  13
ATOM     13  C   LIG A   1      -8.603  -3.609 126.471  0.00  0.00    +0.039 C 
BRANCH  13  14
ATOM     14  C   LIG A   1      -8.193  -2.370 125.676  0.00  0.00    -0.002 A 
ATOM     15  C   LIG A   1      -9.238  -1.562 125.226  0.00  0.00    +0.056 A 
ATOM     16  C   LIG A   1      -8.929  -0.465 124.432  0.00  0.00    +0.167 A 
ATOM     17  O   LIG A   1      -9.815   0.413 123.904  0.00  0.00    -0.453 OA
ATOM     18  C   LIG A   1      -8.919   1.315 123.205  0.00  0.00    +0.466 C 
ATOM     19  O   LIG A   1      -7.529   0.924 123.335  0.00  0.00    -0.453 OA
ATOM     20  C   LIG A   1      -7.623  -0.165 124.084  0.00  0.00    +0.170 A 
ATOM     21  C   LIG A   1      -6.594  -0.904 124.458  0.00  0.00    +0.095 A 
ATOM     22  C   LIG A   1      -6.862  -2.027 125.238  0.00  0.00    +0.127 A 
BRANCH  22  23
ATOM     23  O   LIG A   1      -5.685  -2.664 125.480  0.00  0.00    -0.495 OA
ATOM     24  C   LIG A   1      -5.243  -3.113 124.233  0.00  0.00    +0.277 C 
ENDBRANCH  22  23
ENDBRANCH  13  14
ENDBRANCH   1  13
TORSDOF 7
ENDMDL
