MODEL 1
REMARK VINA RESULT:      -7.9      0.000      0.000
REMARK  Name = NuBBE_986
REMARK  12 active torsions:
REMARK  status: ('A' for Active; 'I' for Inactive)
REMARK    1  A    between atoms: O_1  and  C_2
REMARK    2  A    between atoms: C_11  and  O_30
REMARK    3  A    between atoms: C_13  and  C_29
REMARK    4  A    between atoms: C_17  and  C_19
REMARK    5  A    between atoms: C_19  and  C_21
REMARK    6  A    between atoms: C_19  and  C_28
REMARK    7  A    between atoms: C_21  and  C_22
REMARK    8  A    between atoms: C_22  and  C_23
REMARK    9  A    between atoms: C_23  and  C_24
REMARK   10  A    between atoms: C_24  and  C_25
REMARK   11  A    between atoms: C_24  and  C_26
REMARK   12  A    between atoms: C_31  and  C_32
REMARK                            x       y       z     vdW  Elec       q    Type
REMARK                         _______ _______ _______ _____ _____    ______ ____
ROOT
ATOM      1  C   LIG A   1      -5.361  -4.575 132.550  0.00  0.00    +0.119 C 
ATOM      2  C   LIG A   1      -5.254  -4.646 131.021  0.00  0.00    +0.062 C 
ATOM      3  C   LIG A   1      -6.022  -3.491 130.416  0.00  0.00    -0.065 C 
ATOM      4  C   LIG A   1      -7.157  -3.747 129.755  0.00  0.00    -0.027 C 
ATOM      5  C   LIG A   1      -8.148  -2.709 129.382  0.00  0.00    +0.031 C 
ATOM      6  C   LIG A   1      -7.588  -1.298 129.220  0.00  0.00    +0.001 C 
ATOM      7  C   LIG A   1      -6.434  -0.905 130.186  0.00  0.00    +0.005 C 
ATOM      8  C   LIG A   1      -5.613   0.282 129.611  0.00  0.00    +0.036 C 
ATOM      9  C   LIG A   1      -6.446   1.237 128.753  0.00  0.00    +0.121 C 
ATOM     10  C   LIG A   1      -7.140   0.567 127.506  0.00  0.00    +0.000 C 
ATOM     11  C   LIG A   1      -7.319  -0.956 127.740  0.00  0.00    +0.001 C 
ATOM     12  C   LIG A   1      -6.097  -1.647 127.122  0.00  0.00    +0.005 C 
ATOM     13  C   LIG A   1      -5.349  -0.588 126.321  0.00  0.00    +0.005 C 
ATOM     14  C   LIG A   1      -6.292   0.623 126.183  0.00  0.00    +0.001 C 
ATOM     15  C   LIG A   1      -8.518   1.246 127.396  0.00  0.00    +0.014 C 
ATOM     16  C   LIG A   1      -5.559  -2.089 130.813  0.00  0.00    -0.008 C 
ATOM     17  C   LIG A   1      -4.051  -1.919 130.487  0.00  0.00    +0.016 C 
ATOM     18  C   LIG A   1      -5.721  -2.047 132.369  0.00  0.00    +0.013 C 
ATOM     19  C   LIG A   1      -5.010  -3.191 133.108  0.00  0.00    +0.032 C 
ENDROOT
BRANCH   1  20
ATOM     20  O   LIG A   1      -4.513  -5.556 133.144  0.00  0.00    -0.392 OA
ATOM     21  H   LIG A   1      -3.642  -5.149 133.286  0.00  0.00    +0.210 HD
ENDBRANCH   1  20
BRANCH  14  22
ATOM     22  C   LIG A   1      -6.972   0.628 124.768  0.00  0.00    -0.010 C 
ATOM     23  C   LIG A   1      -7.014   1.989 124.058  0.00  0.00    +0.008 C 
BRANCH  22  24
ATOM     24  C   LIG A   1      -6.492  -0.455 123.766  0.00  0.00    +0.008 C 
BRANCH  24  25
ATOM     25  C   LIG A   1      -7.584  -1.423 123.291  0.00  0.00    +0.030 C 
BRANCH  25  26
ATOM     26  C   LIG A   1      -7.436  -2.806 123.904  0.00  0.00    -0.074 C 
ATOM     27  C   LIG A   1      -6.222  -3.374 124.016  0.00  0.00    +0.008 C 
BRANCH  26  28
ATOM     28  C   LIG A   1      -8.729  -3.498 124.320  0.00  0.00    +0.008 C 
ATOM     29  C   LIG A   1      -9.245  -2.915 125.638  0.00  0.00    +0.012 C 
ATOM     30  C   LIG A   1      -9.835  -3.465 123.258  0.00  0.00    +0.012 C 
ENDBRANCH  26  28
ENDBRANCH  25  26
ENDBRANCH  24  25
ENDBRANCH  22  24
ENDBRANCH  14  22
BRANCH   9  31
ATOM     31  O   LIG A   1      -5.645   2.345 128.349  0.00  0.00    -0.391 OA
ATOM     32  H   LIG A   1      -5.511   2.285 127.388  0.00  0.00    +0.210 HD
ENDBRANCH   9  31
TORSDOF 7
ENDMDL
MODEL 2
REMARK VINA RESULT:      -7.9      5.760      9.913
REMARK  Name = NuBBE_986
REMARK  12 active torsions:
REMARK  status: ('A' for Active; 'I' for Inactive)
REMARK    1  A    between atoms: O_1  and  C_2
REMARK    2  A    between atoms: C_11  and  O_30
REMARK    3  A    between atoms: C_13  and  C_29
REMARK    4  A    between atoms: C_17  and  C_19
REMARK    5  A    between atoms: C_19  and  C_21
REMARK    6  A    between atoms: C_19  and  C_28
REMARK    7  A    between atoms: C_21  and  C_22
REMARK    8  A    between atoms: C_22  and  C_23
REMARK    9  A    between atoms: C_23  and  C_24
REMARK   10  A    between atoms: C_24  and  C_25
REMARK   11  A    between atoms: C_24  and  C_26
REMARK   12  A    between atoms: C_31  and  C_32
REMARK                            x       y       z     vdW  Elec       q    Type
REMARK                         _______ _______ _______ _____ _____    ______ ____
ROOT
ATOM      1  C   LIG A   1     -12.055   7.987 129.896  0.00  0.00    +0.119 C 
ATOM      2  C   LIG A   1     -10.937   7.293 129.107  0.00  0.00    +0.062 C 
ATOM      3  C   LIG A   1      -9.908   6.753 130.075  0.00  0.00    -0.065 C 
ATOM      4  C   LIG A   1      -8.702   7.330 130.124  0.00  0.00    -0.027 C 
ATOM      5  C   LIG A   1      -7.722   7.106 131.214  0.00  0.00    +0.031 C 
ATOM      6  C   LIG A   1      -7.850   5.772 131.944  0.00  0.00    +0.001 C 
ATOM      7  C   LIG A   1      -9.295   5.227 132.127  0.00  0.00    +0.005 C 
ATOM      8  C   LIG A   1      -9.280   3.694 132.378  0.00  0.00    +0.036 C 
ATOM      9  C   LIG A   1      -8.026   3.212 133.112  0.00  0.00    +0.121 C 
ATOM     10  C   LIG A   1      -6.669   3.527 132.375  0.00  0.00    +0.000 C 
ATOM     11  C   LIG A   1      -6.843   4.731 131.413  0.00  0.00    +0.001 C 
ATOM     12  C   LIG A   1      -7.173   4.150 130.031  0.00  0.00    +0.005 C 
ATOM     13  C   LIG A   1      -6.946   2.645 130.119  0.00  0.00    +0.005 C 
ATOM     14  C   LIG A   1      -6.166   2.383 131.422  0.00  0.00    +0.001 C 
ATOM     15  C   LIG A   1      -5.676   3.892 133.496  0.00  0.00    +0.014 C 
ATOM     16  C   LIG A   1     -10.410   5.730 131.095  0.00  0.00    -0.008 C 
ATOM     17  C   LIG A   1     -11.088   4.541 130.361  0.00  0.00    +0.016 C 
ATOM     18  C   LIG A   1     -11.517   6.489 131.901  0.00  0.00    +0.013 C 
ATOM     19  C   LIG A   1     -12.614   7.117 131.028  0.00  0.00    +0.032 C 
ENDROOT
BRANCH   1  20
ATOM     20  O   LIG A   1     -13.114   8.361 129.018  0.00  0.00    -0.392 OA
ATOM     21  H   LIG A   1     -12.792   8.264 128.105  0.00  0.00    +0.210 HD
ENDBRANCH   1  20
BRANCH  14  22
ATOM     22  C   LIG A   1      -4.640   2.177 131.115  0.00  0.00    -0.010 C 
ATOM     23  C   LIG A   1      -4.207   0.729 130.846  0.00  0.00    +0.008 C 
BRANCH  22  24
ATOM     24  C   LIG A   1      -4.021   3.103 130.035  0.00  0.00    +0.008 C 
BRANCH  24  25
ATOM     25  C   LIG A   1      -3.287   4.332 130.584  0.00  0.00    +0.030 C 
BRANCH  25  26
ATOM     26  C   LIG A   1      -3.673   5.609 129.856  0.00  0.00    -0.074 C 
ATOM     27  C   LIG A   1      -4.076   5.566 128.574  0.00  0.00    +0.008 C 
BRANCH  26  28
ATOM     28  C   LIG A   1      -3.525   6.904 130.647  0.00  0.00    +0.008 C 
ATOM     29  C   LIG A   1      -4.347   8.021 130.000  0.00  0.00    +0.012 C 
ATOM     30  C   LIG A   1      -3.878   6.782 132.134  0.00  0.00    +0.012 C 
ENDBRANCH  26  28
ENDBRANCH  25  26
ENDBRANCH  24  25
ENDBRANCH  22  24
ENDBRANCH  14  22
BRANCH   9  31
ATOM     31  O   LIG A   1      -8.137   1.818 133.390  0.00  0.00    -0.391 OA
ATOM     32  H   LIG A   1      -7.246   1.432 133.351  0.00  0.00    +0.210 HD
ENDBRANCH   9  31
TORSDOF 7
ENDMDL
MODEL 3
REMARK VINA RESULT:      -7.9      5.463      9.327
REMARK  Name = NuBBE_986
REMARK  12 active torsions:
REMARK  status: ('A' for Active; 'I' for Inactive)
REMARK    1  A    between atoms: O_1  and  C_2
REMARK    2  A    between atoms: C_11  and  O_30
REMARK    3  A    between atoms: C_13  and  C_29
REMARK    4  A    between atoms: C_17  and  C_19
REMARK    5  A    between atoms: C_19  and  C_21
REMARK    6  A    between atoms: C_19  and  C_28
REMARK    7  A    between atoms: C_21  and  C_22
REMARK    8  A    between atoms: C_22  and  C_23
REMARK    9  A    between atoms: C_23  and  C_24
REMARK   10  A    between atoms: C_24  and  C_25
REMARK   11  A    between atoms: C_24  and  C_26
REMARK   12  A    between atoms: C_31  and  C_32
REMARK                            x       y       z     vdW  Elec       q    Type
REMARK                         _______ _______ _______ _____ _____    ______ ____
ROOT
ATOM      1  C   LIG A   1     -12.062   7.994 129.919  0.00  0.00    +0.119 C 
ATOM      2  C   LIG A   1     -10.961   7.303 129.104  0.00  0.00    +0.062 C 
ATOM      3  C   LIG A   1      -9.931   6.728 130.050  0.00  0.00    -0.065 C 
ATOM      4  C   LIG A   1      -8.717   7.289 130.100  0.00  0.00    -0.027 C 
ATOM      5  C   LIG A   1      -7.730   7.028 131.175  0.00  0.00    +0.031 C 
ATOM      6  C   LIG A   1      -7.868   5.679 131.877  0.00  0.00    +0.001 C 
ATOM      7  C   LIG A   1      -9.319   5.149 132.061  0.00  0.00    +0.005 C 
ATOM      8  C   LIG A   1      -9.321   3.611 132.278  0.00  0.00    +0.036 C 
ATOM      9  C   LIG A   1      -8.067   3.096 132.989  0.00  0.00    +0.121 C 
ATOM     10  C   LIG A   1      -6.713   3.410 132.247  0.00  0.00    +0.000 C 
ATOM     11  C   LIG A   1      -6.880   4.637 131.313  0.00  0.00    +0.001 C 
ATOM     12  C   LIG A   1      -7.231   4.092 129.922  0.00  0.00    +0.005 C 
ATOM     13  C   LIG A   1      -7.022   2.583 129.974  0.00  0.00    +0.005 C 
ATOM     14  C   LIG A   1      -6.234   2.281 131.264  0.00  0.00    +0.001 C 
ATOM     15  C   LIG A   1      -5.705   3.737 133.365  0.00  0.00    +0.014 C 
ATOM     16  C   LIG A   1     -10.437   5.690 131.052  0.00  0.00    -0.008 C 
ATOM     17  C   LIG A   1     -11.136   4.526 130.298  0.00  0.00    +0.016 C 
ATOM     18  C   LIG A   1     -11.525   6.444 131.885  0.00  0.00    +0.013 C 
ATOM     19  C   LIG A   1     -12.622   7.107 131.037  0.00  0.00    +0.032 C 
ENDROOT
BRANCH   1  20
ATOM     20  O   LIG A   1     -13.125   8.401 129.059  0.00  0.00    -0.392 OA
ATOM     21  H   LIG A   1     -13.184   7.756 128.334  0.00  0.00    +0.210 HD
ENDBRANCH   1  20
BRANCH  14  22
ATOM     22  C   LIG A   1      -4.714   2.063 130.938  0.00  0.00    -0.010 C 
ATOM     23  C   LIG A   1      -4.198   0.627 131.112  0.00  0.00    +0.008 C 
BRANCH  22  24
ATOM     24  C   LIG A   1      -4.210   2.624 129.582  0.00  0.00    +0.008 C 
BRANCH  24  25
ATOM     25  C   LIG A   1      -3.481   3.971 129.674  0.00  0.00    +0.030 C 
BRANCH  25  26
ATOM     26  C   LIG A   1      -2.931   4.423 128.331  0.00  0.00    -0.074 C 
ATOM     27  C   LIG A   1      -2.476   5.678 128.169  0.00  0.00    +0.008 C 
BRANCH  26  28
ATOM     28  C   LIG A   1      -2.982   3.396 127.205  0.00  0.00    +0.008 C 
ATOM     29  C   LIG A   1      -3.922   3.871 126.093  0.00  0.00    +0.012 C 
ATOM     30  C   LIG A   1      -1.614   3.030 126.619  0.00  0.00    +0.012 C 
ENDBRANCH  26  28
ENDBRANCH  25  26
ENDBRANCH  24  25
ENDBRANCH  22  24
ENDBRANCH  14  22
BRANCH   9  31
ATOM     31  O   LIG A   1      -8.194   1.698 133.237  0.00  0.00    -0.391 OA
ATOM     32  H   LIG A   1      -9.141   1.480 133.252  0.00  0.00    +0.210 HD
ENDBRANCH   9  31
TORSDOF 7
ENDMDL
MODEL 4
REMARK VINA RESULT:      -7.6      3.989      6.128
REMARK  Name = NuBBE_986
REMARK  12 active torsions:
REMARK  status: ('A' for Active; 'I' for Inactive)
REMARK    1  A    between atoms: O_1  and  C_2
REMARK    2  A    between atoms: C_11  and  O_30
REMARK    3  A    between atoms: C_13  and  C_29
REMARK    4  A    between atoms: C_17  and  C_19
REMARK    5  A    between atoms: C_19  and  C_21
REMARK    6  A    between atoms: C_19  and  C_28
REMARK    7  A    between atoms: C_21  and  C_22
REMARK    8  A    between atoms: C_22  and  C_23
REMARK    9  A    between atoms: C_23  and  C_24
REMARK   10  A    between atoms: C_24  and  C_25
REMARK   11  A    between atoms: C_24  and  C_26
REMARK   12  A    between atoms: C_31  and  C_32
REMARK                            x       y       z     vdW  Elec       q    Type
REMARK                         _______ _______ _______ _____ _____    ______ ____
ROOT
ATOM      1  C   LIG A   1      -2.585   5.766 130.484  0.00  0.00    +0.119 C 
ATOM      2  C   LIG A   1      -3.090   4.327 130.315  0.00  0.00    +0.062 C 
ATOM      3  C   LIG A   1      -4.200   4.308 129.288  0.00  0.00    -0.065 C 
ATOM      4  C   LIG A   1      -5.452   4.069 129.694  0.00  0.00    -0.027 C 
ATOM      5  C   LIG A   1      -6.653   4.317 128.862  0.00  0.00    +0.031 C 
ATOM      6  C   LIG A   1      -6.425   4.270 127.353  0.00  0.00    +0.001 C 
ATOM      7  C   LIG A   1      -5.054   4.808 126.852  0.00  0.00    +0.005 C 
ATOM      8  C   LIG A   1      -4.721   4.243 125.443  0.00  0.00    +0.036 C 
ATOM      9  C   LIG A   1      -5.962   3.975 124.588  0.00  0.00    +0.121 C 
ATOM     10  C   LIG A   1      -6.987   2.955 125.214  0.00  0.00    +0.000 C 
ATOM     11  C   LIG A   1      -6.826   2.905 126.757  0.00  0.00    +0.001 C 
ATOM     12  C   LIG A   1      -5.865   1.750 127.065  0.00  0.00    +0.005 C 
ATOM     13  C   LIG A   1      -5.669   0.980 125.765  0.00  0.00    +0.005 C 
ATOM     14  C   LIG A   1      -6.759   1.460 124.788  0.00  0.00    +0.001 C 
ATOM     15  C   LIG A   1      -8.379   3.506 124.851  0.00  0.00    +0.014 C 
ATOM     16  C   LIG A   1      -3.834   4.801 127.887  0.00  0.00    -0.008 C 
ATOM     17  C   LIG A   1      -2.627   3.991 127.341  0.00  0.00    +0.016 C 
ATOM     18  C   LIG A   1      -3.364   6.278 128.099  0.00  0.00    +0.013 C 
ATOM     19  C   LIG A   1      -2.253   6.442 129.148  0.00  0.00    +0.032 C 
ENDROOT
BRANCH   1  20
ATOM     20  O   LIG A   1      -1.433   5.784 131.324  0.00  0.00    -0.392 OA
ATOM     21  H   LIG A   1      -0.766   6.353 130.903  0.00  0.00    +0.210 HD
ENDBRANCH   1  20
BRANCH  14  22
ATOM     22  C   LIG A   1      -7.941   0.428 124.736  0.00  0.00    -0.010 C 
ATOM     23  C   LIG A   1      -8.162  -0.261 123.382  0.00  0.00    +0.008 C 
BRANCH  22  24
ATOM     24  C   LIG A   1      -7.977  -0.639 125.862  0.00  0.00    +0.008 C 
BRANCH  24  25
ATOM     25  C   LIG A   1      -9.196  -1.570 125.828  0.00  0.00    +0.030 C 
BRANCH  25  26
ATOM     26  C   LIG A   1      -8.815  -3.027 126.035  0.00  0.00    -0.074 C 
ATOM     27  C   LIG A   1      -8.734  -3.540 127.276  0.00  0.00    +0.008 C 
BRANCH  26  28
ATOM     28  C   LIG A   1      -8.492  -3.822 124.775  0.00  0.00    +0.008 C 
ATOM     29  C   LIG A   1      -9.465  -3.457 123.651  0.00  0.00    +0.012 C 
ATOM     30  C   LIG A   1      -7.045  -3.678 124.289  0.00  0.00    +0.012 C 
ENDBRANCH  26  28
ENDBRANCH  25  26
ENDBRANCH  24  25
ENDBRANCH  22  24
ENDBRANCH  14  22
BRANCH   9  31
ATOM     31  O   LIG A   1      -5.567   3.556 123.284  0.00  0.00    -0.391 OA
ATOM     32  H   LIG A   1      -4.619   3.344 123.311  0.00  0.00    +0.210 HD
ENDBRANCH   9  31
TORSDOF 7
ENDMDL
MODEL 5
REMARK VINA RESULT:      -7.5      4.309      6.994
REMARK  Name = NuBBE_986
REMARK  12 active torsions:
REMARK  status: ('A' for Active; 'I' for Inactive)
REMARK    1  A    between atoms: O_1  and  C_2
REMARK    2  A    between atoms: C_11  and  O_30
REMARK    3  A    between atoms: C_13  and  C_29
REMARK    4  A    between atoms: C_17  and  C_19
REMARK    5  A    between atoms: C_19  and  C_21
REMARK    6  A    between atoms: C_19  and  C_28
REMARK    7  A    between atoms: C_21  and  C_22
REMARK    8  A    between atoms: C_22  and  C_23
REMARK    9  A    between atoms: C_23  and  C_24
REMARK   10  A    between atoms: C_24  and  C_25
REMARK   11  A    between atoms: C_24  and  C_26
REMARK   12  A    between atoms: C_31  and  C_32
REMARK                            x       y       z     vdW  Elec       q    Type
REMARK                         _______ _______ _______ _____ _____    ______ ____
ROOT
ATOM      1  C   LIG A   1      -2.306   5.667 130.437  0.00  0.00    +0.119 C 
ATOM      2  C   LIG A   1      -2.963   5.997 129.090  0.00  0.00    +0.062 C 
ATOM      3  C   LIG A   1      -3.401   4.712 128.424  0.00  0.00    -0.065 C 
ATOM      4  C   LIG A   1      -2.751   4.297 127.331  0.00  0.00    -0.027 C 
ATOM      5  C   LIG A   1      -2.872   2.932 126.765  0.00  0.00    +0.031 C 
ATOM      6  C   LIG A   1      -4.181   2.210 127.073  0.00  0.00    +0.001 C 
ATOM      7  C   LIG A   1      -4.804   2.488 128.471  0.00  0.00    +0.005 C 
ATOM      8  C   LIG A   1      -6.322   2.158 128.475  0.00  0.00    +0.036 C 
ATOM      9  C   LIG A   1      -6.698   1.021 127.521  0.00  0.00    +0.121 C 
ATOM     10  C   LIG A   1      -6.332   1.280 126.010  0.00  0.00    +0.000 C 
ATOM     11  C   LIG A   1      -5.181   2.314 125.903  0.00  0.00    +0.001 C 
ATOM     12  C   LIG A   1      -5.836   3.690 125.724  0.00  0.00    +0.005 C 
ATOM     13  C   LIG A   1      -7.319   3.444 125.475  0.00  0.00    +0.005 C 
ATOM     14  C   LIG A   1      -7.481   1.943 125.168  0.00  0.00    +0.001 C 
ATOM     15  C   LIG A   1      -5.863  -0.084 125.468  0.00  0.00    +0.014 C 
ATOM     16  C   LIG A   1      -4.411   3.860 129.195  0.00  0.00    -0.008 C 
ATOM     17  C   LIG A   1      -5.667   4.707 129.535  0.00  0.00    +0.016 C 
ATOM     18  C   LIG A   1      -3.688   3.514 130.539  0.00  0.00    +0.013 C 
ATOM     19  C   LIG A   1      -3.162   4.738 131.306  0.00  0.00    +0.032 C 
ENDROOT
BRANCH   1  20
ATOM     20  O   LIG A   1      -2.032   6.869 131.154  0.00  0.00    -0.392 OA
ATOM     21  H   LIG A   1      -1.817   6.626 132.071  0.00  0.00    +0.210 HD
ENDBRANCH   1  20
BRANCH  14  22
ATOM     22  C   LIG A   1      -7.607   1.711 123.620  0.00  0.00    -0.010 C 
ATOM     23  C   LIG A   1      -8.992   1.993 123.018  0.00  0.00    +0.008 C 
BRANCH  22  24
ATOM     24  C   LIG A   1      -6.521   2.372 122.731  0.00  0.00    +0.008 C 
BRANCH  24  25
ATOM     25  C   LIG A   1      -7.027   3.510 121.835  0.00  0.00    +0.030 C 
BRANCH  25  26
ATOM     26  C   LIG A   1      -5.904   4.175 121.056  0.00  0.00    -0.074 C 
ATOM     27  C   LIG A   1      -4.769   4.541 121.678  0.00  0.00    +0.008 C 
BRANCH  26  28
ATOM     28  C   LIG A   1      -6.174   4.434 119.578  0.00  0.00    +0.008 C 
ATOM     29  C   LIG A   1      -7.672   4.324 119.283  0.00  0.00    +0.012 C 
ATOM     30  C   LIG A   1      -5.630   5.771 119.060  0.00  0.00    +0.012 C 
ENDBRANCH  26  28
ENDBRANCH  25  26
ENDBRANCH  24  25
ENDBRANCH  22  24
ENDBRANCH  14  22
BRANCH   9  31
ATOM     31  O   LIG A   1      -8.084   0.715 127.659  0.00  0.00    -0.391 OA
ATOM     32  H   LIG A   1      -8.522   1.482 128.067  0.00  0.00    +0.210 HD
ENDBRANCH   9  31
TORSDOF 7
ENDMDL
MODEL 6
REMARK VINA RESULT:      -7.5      2.463      7.675
REMARK  Name = NuBBE_986
REMARK  12 active torsions:
REMARK  status: ('A' for Active; 'I' for Inactive)
REMARK    1  A    between atoms: O_1  and  C_2
REMARK    2  A    between atoms: C_11  and  O_30
REMARK    3  A    between atoms: C_13  and  C_29
REMARK    4  A    between atoms: C_17  and  C_19
REMARK    5  A    between atoms: C_19  and  C_21
REMARK    6  A    between atoms: C_19  and  C_28
REMARK    7  A    between atoms: C_21  and  C_22
REMARK    8  A    between atoms: C_22  and  C_23
REMARK    9  A    between atoms: C_23  and  C_24
REMARK   10  A    between atoms: C_24  and  C_25
REMARK   11  A    between atoms: C_24  and  C_26
REMARK   12  A    between atoms: C_31  and  C_32
REMARK                            x       y       z     vdW  Elec       q    Type
REMARK                         _______ _______ _______ _____ _____    ______ ____
ROOT
ATOM      1  C   LIG A   1      -8.261   3.062 123.094  0.00  0.00    +0.119 C 
ATOM      2  C   LIG A   1      -6.983   2.539 123.765  0.00  0.00    +0.062 C 
ATOM      3  C   LIG A   1      -7.360   1.728 124.984  0.00  0.00    -0.065 C 
ATOM      4  C   LIG A   1      -7.084   2.219 126.197  0.00  0.00    -0.027 C 
ATOM      5  C   LIG A   1      -7.658   1.685 127.456  0.00  0.00    +0.031 C 
ATOM      6  C   LIG A   1      -8.074   0.217 127.413  0.00  0.00    +0.001 C 
ATOM      7  C   LIG A   1      -8.654  -0.291 126.062  0.00  0.00    +0.005 C 
ATOM      8  C   LIG A   1      -8.541  -1.837 125.959  0.00  0.00    +0.036 C 
ATOM      9  C   LIG A   1      -8.636  -2.544 127.313  0.00  0.00    +0.121 C 
ATOM     10  C   LIG A   1      -7.538  -2.115 128.359  0.00  0.00    +0.000 C 
ATOM     11  C   LIG A   1      -6.995  -0.701 128.023  0.00  0.00    +0.001 C 
ATOM     12  C   LIG A   1      -5.742  -0.901 127.160  0.00  0.00    +0.005 C 
ATOM     13  C   LIG A   1      -5.410  -2.387 127.201  0.00  0.00    +0.005 C 
ATOM     14  C   LIG A   1      -6.242  -3.004 128.342  0.00  0.00    +0.001 C 
ATOM     15  C   LIG A   1      -8.262  -2.088 129.719  0.00  0.00    +0.014 C 
ATOM     16  C   LIG A   1      -8.244   0.505 124.736  0.00  0.00    -0.008 C 
ATOM     17  C   LIG A   1      -7.572  -0.430 123.694  0.00  0.00    +0.016 C 
ATOM     18  C   LIG A   1      -9.546   1.085 124.090  0.00  0.00    +0.013 C 
ATOM     19  C   LIG A   1      -9.300   1.961 122.852  0.00  0.00    +0.032 C 
ENDROOT
BRANCH   1  20
ATOM     20  O   LIG A   1      -7.940   3.692 121.855  0.00  0.00    -0.392 OA
ATOM     21  H   LIG A   1      -8.754   3.739 121.325  0.00  0.00    +0.210 HD
ENDBRANCH   1  20
BRANCH  14  22
ATOM     22  C   LIG A   1      -5.356  -3.194 129.625  0.00  0.00    -0.010 C 
ATOM     23  C   LIG A   1      -5.715  -4.399 130.505  0.00  0.00    +0.008 C 
BRANCH  22  24
ATOM     24  C   LIG A   1      -3.819  -3.155 129.415  0.00  0.00    +0.008 C 
BRANCH  24  25
ATOM     25  C   LIG A   1      -3.133  -1.876 129.913  0.00  0.00    +0.030 C 
BRANCH  25  26
ATOM     26  C   LIG A   1      -3.606  -1.470 131.299  0.00  0.00    -0.074 C 
ATOM     27  C   LIG A   1      -3.390  -2.275 132.355  0.00  0.00    +0.008 C 
BRANCH  26  28
ATOM     28  C   LIG A   1      -4.363  -0.150 131.390  0.00  0.00    +0.008 C 
ATOM     29  C   LIG A   1      -4.210   0.643 130.090  0.00  0.00    +0.012 C 
ATOM     30  C   LIG A   1      -5.847  -0.295 131.749  0.00  0.00    +0.012 C 
ENDBRANCH  26  28
ENDBRANCH  25  26
ENDBRANCH  24  25
ENDBRANCH  22  24
ENDBRANCH  14  22
BRANCH   9  31
ATOM     31  O   LIG A   1      -8.625  -3.957 127.121  0.00  0.00    -0.391 OA
ATOM     32  H   LIG A   1      -8.787  -4.378 127.982  0.00  0.00    +0.210 HD
ENDBRANCH   9  31
TORSDOF 7
ENDMDL
MODEL 7
REMARK VINA RESULT:      -7.5      6.917     10.148
REMARK  Name = NuBBE_986
REMARK  12 active torsions:
REMARK  status: ('A' for Active; 'I' for Inactive)
REMARK    1  A    between atoms: O_1  and  C_2
REMARK    2  A    between atoms: C_11  and  O_30
REMARK    3  A    between atoms: C_13  and  C_29
REMARK    4  A    between atoms: C_17  and  C_19
REMARK    5  A    between atoms: C_19  and  C_21
REMARK    6  A    between atoms: C_19  and  C_28
REMARK    7  A    between atoms: C_21  and  C_22
REMARK    8  A    between atoms: C_22  and  C_23
REMARK    9  A    between atoms: C_23  and  C_24
REMARK   10  A    between atoms: C_24  and  C_25
REMARK   11  A    between atoms: C_24  and  C_26
REMARK   12  A    between atoms: C_31  and  C_32
REMARK                            x       y       z     vdW  Elec       q    Type
REMARK                         _______ _______ _______ _____ _____    ______ ____
ROOT
ATOM      1  C   LIG A   1      -0.685   8.386 132.973  0.00  0.00    +0.119 C 
ATOM      2  C   LIG A   1      -2.180   8.721 133.056  0.00  0.00    +0.062 C 
ATOM      3  C   LIG A   1      -2.950   7.784 132.152  0.00  0.00    -0.065 C 
ATOM      4  C   LIG A   1      -3.509   8.274 131.040  0.00  0.00    -0.027 C 
ATOM      5  C   LIG A   1      -4.021   7.432 129.932  0.00  0.00    +0.031 C 
ATOM      6  C   LIG A   1      -4.455   6.023 130.328  0.00  0.00    +0.001 C 
ATOM      7  C   LIG A   1      -3.621   5.341 131.451  0.00  0.00    +0.005 C 
ATOM      8  C   LIG A   1      -4.432   4.198 132.123  0.00  0.00    +0.036 C 
ATOM      9  C   LIG A   1      -5.412   3.509 131.171  0.00  0.00    +0.121 C 
ATOM     10  C   LIG A   1      -6.491   4.464 130.531  0.00  0.00    +0.000 C 
ATOM     11  C   LIG A   1      -5.981   5.929 130.527  0.00  0.00    +0.001 C 
ATOM     12  C   LIG A   1      -6.515   6.588 131.806  0.00  0.00    +0.005 C 
ATOM     13  C   LIG A   1      -7.521   5.619 132.415  0.00  0.00    +0.005 C 
ATOM     14  C   LIG A   1      -7.835   4.561 131.340  0.00  0.00    +0.001 C 
ATOM     15  C   LIG A   1      -6.664   3.966 129.084  0.00  0.00    +0.014 C 
ATOM     16  C   LIG A   1      -2.829   6.292 132.464  0.00  0.00    -0.008 C 
ATOM     17  C   LIG A   1      -3.240   6.026 133.938  0.00  0.00    +0.016 C 
ATOM     18  C   LIG A   1      -1.300   5.985 132.331  0.00  0.00    +0.013 C 
ATOM     19  C   LIG A   1      -0.397   6.894 133.179  0.00  0.00    +0.032 C 
ENDROOT
BRANCH   1  20
ATOM     20  O   LIG A   1       0.040   9.147 133.937  0.00  0.00    -0.392 OA
ATOM     21  H   LIG A   1      -0.199   8.815 134.819  0.00  0.00    +0.210 HD
ENDBRANCH   1  20
BRANCH  14  22
ATOM     22  C   LIG A   1      -9.200   4.884 130.635  0.00  0.00    -0.010 C 
ATOM     23  C   LIG A   1     -10.141   3.689 130.432  0.00  0.00    +0.008 C 
BRANCH  22  24
ATOM     24  C   LIG A   1     -10.008   6.078 131.209  0.00  0.00    +0.008 C 
BRANCH  24  25
ATOM     25  C   LIG A   1     -10.270   7.216 130.214  0.00  0.00    +0.030 C 
BRANCH  25  26
ATOM     26  C   LIG A   1     -11.751   7.512 130.050  0.00  0.00    -0.074 C 
ATOM     27  C   LIG A   1     -12.612   7.248 131.050  0.00  0.00    +0.008 C 
BRANCH  26  28
ATOM     28  C   LIG A   1     -12.181   8.063 128.695  0.00  0.00    +0.008 C 
ATOM     29  C   LIG A   1     -13.014   9.334 128.876  0.00  0.00    +0.012 C 
ATOM     30  C   LIG A   1     -11.025   8.322 127.722  0.00  0.00    +0.012 C 
ENDBRANCH  26  28
ENDBRANCH  25  26
ENDBRANCH  24  25
ENDBRANCH  22  24
ENDBRANCH  14  22
BRANCH   9  31
ATOM     31  O   LIG A   1      -6.039   2.414 131.836  0.00  0.00    -0.391 OA
ATOM     32  H   LIG A   1      -6.616   1.964 131.195  0.00  0.00    +0.210 HD
ENDBRANCH   9  31
TORSDOF 7
ENDMDL
MODEL 8
REMARK VINA RESULT:      -7.3      3.438      7.101
REMARK  Name = NuBBE_986
REMARK  12 active torsions:
REMARK  status: ('A' for Active; 'I' for Inactive)
REMARK    1  A    between atoms: O_1  and  C_2
REMARK    2  A    between atoms: C_11  and  O_30
REMARK    3  A    between atoms: C_13  and  C_29
REMARK    4  A    between atoms: C_17  and  C_19
REMARK    5  A    between atoms: C_19  and  C_21
REMARK    6  A    between atoms: C_19  and  C_28
REMARK    7  A    between atoms: C_21  and  C_22
REMARK    8  A    between atoms: C_22  and  C_23
REMARK    9  A    between atoms: C_23  and  C_24
REMARK   10  A    between atoms: C_24  and  C_25
REMARK   11  A    between atoms: C_24  and  C_26
REMARK   12  A    between atoms: C_31  and  C_32
REMARK                            x       y       z     vdW  Elec       q    Type
REMARK                         _______ _______ _______ _____ _____    ______ ____
ROOT
ATOM      1  C   LIG A   1     -10.568   5.072 130.465  0.00  0.00    +0.119 C 
ATOM      2  C   LIG A   1     -10.708   3.543 130.462  0.00  0.00    +0.062 C 
ATOM      3  C   LIG A   1      -9.337   2.919 130.592  0.00  0.00    -0.065 C 
ATOM      4  C   LIG A   1      -8.816   2.279 129.539  0.00  0.00    -0.027 C 
ATOM      5  C   LIG A   1      -7.389   1.892 129.429  0.00  0.00    +0.031 C 
ATOM      6  C   LIG A   1      -6.663   1.687 130.756  0.00  0.00    +0.001 C 
ATOM      7  C   LIG A   1      -7.086   2.628 131.920  0.00  0.00    +0.005 C 
ATOM      8  C   LIG A   1      -6.704   2.012 133.294  0.00  0.00    +0.036 C 
ATOM      9  C   LIG A   1      -5.448   1.140 133.240  0.00  0.00    +0.121 C 
ATOM     10  C   LIG A   1      -5.534  -0.081 132.246  0.00  0.00    +0.000 C 
ATOM     11  C   LIG A   1      -6.588   0.196 131.142  0.00  0.00    +0.001 C 
ATOM     12  C   LIG A   1      -7.908  -0.420 131.625  0.00  0.00    +0.005 C 
ATOM     13  C   LIG A   1      -7.581  -1.257 132.855  0.00  0.00    +0.005 C 
ATOM     14  C   LIG A   1      -6.049  -1.415 132.899  0.00  0.00    +0.001 C 
ATOM     15  C   LIG A   1      -4.133  -0.190 131.616  0.00  0.00    +0.014 C 
ATOM     16  C   LIG A   1      -8.548   3.274 131.854  0.00  0.00    -0.008 C 
ATOM     17  C   LIG A   1      -9.385   2.924 133.114  0.00  0.00    +0.016 C 
ATOM     18  C   LIG A   1      -8.395   4.830 131.797  0.00  0.00    +0.013 C 
ATOM     19  C   LIG A   1      -9.720   5.589 131.633  0.00  0.00    +0.032 C 
ENDROOT
BRANCH   1  20
ATOM     20  O   LIG A   1     -11.857   5.680 130.507  0.00  0.00    -0.392 OA
ATOM     21  H   LIG A   1     -11.815   6.500 129.986  0.00  0.00    +0.210 HD
ENDBRANCH   1  20
BRANCH  14  22
ATOM     22  C   LIG A   1      -5.626  -2.821 132.341  0.00  0.00    -0.010 C 
ATOM     23  C   LIG A   1      -4.952  -3.759 133.353  0.00  0.00    +0.008 C 
BRANCH  22  24
ATOM     24  C   LIG A   1      -6.710  -3.609 131.559  0.00  0.00    +0.008 C 
BRANCH  24  25
ATOM     25  C   LIG A   1      -6.291  -4.059 130.154  0.00  0.00    +0.030 C 
BRANCH  25  26
ATOM     26  C   LIG A   1      -6.420  -2.944 129.128  0.00  0.00    -0.074 C 
ATOM     27  C   LIG A   1      -5.325  -2.324 128.655  0.00  0.00    +0.008 C 
BRANCH  26  28
ATOM     28  C   LIG A   1      -7.841  -2.560 128.730  0.00  0.00    +0.008 C 
ATOM     29  C   LIG A   1      -7.819  -1.403 127.727  0.00  0.00    +0.012 C 
ATOM     30  C   LIG A   1      -8.680  -3.720 128.180  0.00  0.00    +0.012 C 
ENDBRANCH  26  28
ENDBRANCH  25  26
ENDBRANCH  24  25
ENDBRANCH  22  24
ENDBRANCH  14  22
BRANCH   9  31
ATOM     31  O   LIG A   1      -5.112   0.697 134.553  0.00  0.00    -0.391 OA
ATOM     32  H   LIG A   1      -4.166   0.472 134.562  0.00  0.00    +0.210 HD
ENDBRANCH   9  31
TORSDOF 7
ENDMDL
MODEL 9
REMARK VINA RESULT:      -7.2      2.412      4.863
REMARK  Name = NuBBE_986
REMARK  12 active torsions:
REMARK  status: ('A' for Active; 'I' for Inactive)
REMARK    1  A    between atoms: O_1  and  C_2
REMARK    2  A    between atoms: C_11  and  O_30
REMARK    3  A    between atoms: C_13  and  C_29
REMARK    4  A    between atoms: C_17  and  C_19
REMARK    5  A    between atoms: C_19  and  C_21
REMARK    6  A    between atoms: C_19  and  C_28
REMARK    7  A    between atoms: C_21  and  C_22
REMARK    8  A    between atoms: C_22  and  C_23
REMARK    9  A    between atoms: C_23  and  C_24
REMARK   10  A    between atoms: C_24  and  C_25
REMARK   11  A    between atoms: C_24  and  C_26
REMARK   12  A    between atoms: C_31  and  C_32
REMARK                            x       y       z     vdW  Elec       q    Type
REMARK                         _______ _______ _______ _____ _____    ______ ____
ROOT
ATOM      1  C   LIG A   1      -4.188  -4.345 133.794  0.00  0.00    +0.119 C 
ATOM      2  C   LIG A   1      -4.401  -2.893 133.344  0.00  0.00    +0.062 C 
ATOM      3  C   LIG A   1      -4.632  -2.866 131.849  0.00  0.00    -0.065 C 
ATOM      4  C   LIG A   1      -3.686  -2.346 131.059  0.00  0.00    -0.027 C 
ATOM      5  C   LIG A   1      -3.647  -2.527 129.588  0.00  0.00    +0.031 C 
ATOM      6  C   LIG A   1      -4.996  -2.787 128.924  0.00  0.00    +0.001 C 
ATOM      7  C   LIG A   1      -6.011  -3.634 129.746  0.00  0.00    +0.005 C 
ATOM      8  C   LIG A   1      -7.462  -3.393 129.248  0.00  0.00    +0.036 C 
ATOM      9  C   LIG A   1      -7.545  -3.071 127.753  0.00  0.00    +0.121 C 
ATOM     10  C   LIG A   1      -6.735  -1.795 127.308  0.00  0.00    +0.000 C 
ATOM     11  C   LIG A   1      -5.592  -1.502 128.315  0.00  0.00    +0.001 C 
ATOM     12  C   LIG A   1      -6.144  -0.493 129.331  0.00  0.00    +0.005 C 
ATOM     13  C   LIG A   1      -7.485  -0.011 128.790  0.00  0.00    +0.005 C 
ATOM     14  C   LIG A   1      -7.565  -0.461 127.318  0.00  0.00    +0.001 C 
ATOM     15  C   LIG A   1      -6.140  -2.153 125.932  0.00  0.00    +0.014 C 
ATOM     16  C   LIG A   1      -5.839  -3.654 131.337  0.00  0.00    -0.008 C 
ATOM     17  C   LIG A   1      -7.128  -3.174 132.057  0.00  0.00    +0.016 C 
ATOM     18  C   LIG A   1      -5.563  -5.129 131.781  0.00  0.00    +0.013 C 
ATOM     19  C   LIG A   1      -5.279  -5.293 133.282  0.00  0.00    +0.032 C 
ENDROOT
BRANCH   1  20
ATOM     20  O   LIG A   1      -4.130  -4.412 135.217  0.00  0.00    -0.392 OA
ATOM     21  H   LIG A   1      -3.996  -3.509 135.552  0.00  0.00    +0.210 HD
ENDBRANCH   1  20
BRANCH  14  22
ATOM     22  C   LIG A   1      -7.218   0.733 126.360  0.00  0.00    -0.010 C 
ATOM     23  C   LIG A   1      -8.422   1.454 125.736  0.00  0.00    +0.008 C 
BRANCH  22  24
ATOM     24  C   LIG A   1      -6.220   1.789 126.905  0.00  0.00    +0.008 C 
BRANCH  24  25
ATOM     25  C   LIG A   1      -4.785   1.648 126.381  0.00  0.00    +0.030 C 
BRANCH  25  26
ATOM     26  C   LIG A   1      -4.036   2.970 126.385  0.00  0.00    -0.074 C 
ATOM     27  C   LIG A   1      -4.403   3.963 125.555  0.00  0.00    +0.008 C 
BRANCH  26  28
ATOM     28  C   LIG A   1      -2.844   3.064 127.331  0.00  0.00    +0.008 C 
ATOM     29  C   LIG A   1      -1.533   3.002 126.545  0.00  0.00    +0.012 C 
ATOM     30  C   LIG A   1      -2.855   4.297 128.243  0.00  0.00    +0.012 C 
ENDBRANCH  26  28
ENDBRANCH  25  26
ENDBRANCH  24  25
ENDBRANCH  22  24
ENDBRANCH  14  22
BRANCH   9  31
ATOM     31  O   LIG A   1      -8.911  -2.964 127.359  0.00  0.00    -0.391 OA
ATOM     32  H   LIG A   1      -9.383  -3.744 127.694  0.00  0.00    +0.210 HD
ENDBRANCH   9  31
TORSDOF 7
ENDMDL
