MODEL 1
REMARK VINA RESULT:      -7.6      0.000      0.000
REMARK  Name = NuBBE_172
REMARK  23 active torsions:
REMARK  status: ('A' for Active; 'I' for Inactive)
REMARK    1  A    between atoms: C_1  and  C_2
REMARK    2  A    between atoms: C_4  and  O_6
REMARK    3  A    between atoms: O_6  and  C_7
REMARK    4  A    between atoms: C_7  and  O_8
REMARK    5  A    between atoms: O_8  and  C_9
REMARK    6  A    between atoms: C_9  and  C_10
REMARK    7  A    between atoms: C_9  and  C_11
REMARK    8  A    between atoms: C_9  and  C_12
REMARK    9  A    between atoms: C_16  and  C_18
REMARK   10  A    between atoms: C_18  and  C_19
REMARK   11  A    between atoms: C_19  and  C_20
REMARK   12  A    between atoms: C_20  and  C_21
REMARK   13  A    between atoms: C_21  and  C_22
REMARK   14  A    between atoms: C_22  and  C_23
REMARK   15  A    between atoms: C_23  and  C_24
REMARK   16  A    between atoms: C_24  and  C_25
REMARK   17  A    between atoms: C_25  and  C_26
REMARK   18  A    between atoms: C_26  and  C_27
REMARK   19  A    between atoms: C_27  and  C_28
REMARK   20  A    between atoms: C_28  and  C_29
REMARK   21  A    between atoms: C_29  and  C_30
REMARK   22  A    between atoms: C_30  and  C_31
REMARK   23  A    between atoms: C_34  and  C_35
REMARK                            x       y       z     vdW  Elec       q    Type
REMARK                         _______ _______ _______ _____ _____    ______ ____
ROOT
ATOM      1  C   LIG A   1      -5.634   6.572 131.889  0.00  0.00    +0.032 C 
ATOM      2  C   LIG A   1      -6.471   5.295 131.703  0.00  0.00    +0.114 C 
ATOM      3  C   LIG A   1      -5.683   4.101 131.108  0.00  0.00    +0.200 C 
ATOM      4  C   LIG A   1      -6.272   2.811 131.807  0.00  0.00    +0.048 C 
ATOM      5  C   LIG A   1      -7.498   3.094 132.736  0.00  0.00    +0.026 C 
ATOM      6  C   LIG A   1      -8.610   3.901 131.987  0.00  0.00    +0.077 C 
ATOM      7  N   LIG A   1      -7.954   5.210 131.364  0.00  0.00    -0.288 N 
ATOM      8  C   LIG A   1      -8.539   6.435 130.828  0.00  0.00    +0.247 C 
ATOM      9  O   LIG A   1      -7.800   7.324 130.386  0.00  0.00    -0.270 OA
ENDROOT
BRANCH   8  10
ATOM     10  C   LIG A   1     -10.033   6.769 130.692  0.00  0.00    +0.037 A 
ATOM     11  C   LIG A   1     -10.465   7.524 129.623  0.00  0.00    +0.013 A 
ATOM     12  C   LIG A   1     -11.744   8.090 129.506  0.00  0.00    +0.001 A 
ATOM     13  C   LIG A   1     -12.704   7.846 130.467  0.00  0.00    +0.000 A 
ATOM     14  C   LIG A   1     -12.369   6.994 131.517  0.00  0.00    +0.001 A 
ATOM     15  C   LIG A   1     -11.035   6.500 131.659  0.00  0.00    +0.013 A 
ENDBRANCH   8  10
BRANCH   6  16
ATOM     16  C   LIG A   1      -9.315   2.750 131.103  0.00  0.00    +0.022 C 
BRANCH  16  17
ATOM     17  C   LIG A   1      -9.707   1.429 131.925  0.00  0.00    +0.002 C 
BRANCH  17  18
ATOM     18  C   LIG A   1      -8.991   0.076 131.562  0.00  0.00    +0.000 C 
BRANCH  18  19
ATOM     19  C   LIG A   1      -8.168   0.159 130.234  0.00  0.00    -0.000 C 
BRANCH  19  20
ATOM     20  C   LIG A   1      -7.097  -0.953 129.909  0.00  0.00    -0.000 C 
BRANCH  20  21
ATOM     21  C   LIG A   1      -7.479  -2.376 130.331  0.00  0.00    -0.000 C 
BRANCH  21  22
ATOM     22  C   LIG A   1      -7.516  -3.548 129.303  0.00  0.00    -0.000 C 
BRANCH  22  23
ATOM     23  C   LIG A   1      -8.775  -3.598 128.430  0.00  0.00    -0.000 C 
BRANCH  23  24
ATOM     24  C   LIG A   1      -8.435  -3.263 127.007  0.00  0.00    +0.000 C 
BRANCH  24  25
ATOM     25  C   LIG A   1      -8.375  -1.860 126.482  0.00  0.00    +0.000 C 
BRANCH  25  26
ATOM     26  C   LIG A   1      -6.926  -1.462 126.261  0.00  0.00    +0.007 C 
BRANCH  26  27
ATOM     27  C   LIG A   1      -5.866  -2.360 125.627  0.00  0.00    +0.074 C 
BRANCH  27  28
ATOM     28  C   LIG A   1      -5.741  -2.679 124.129  0.00  0.00    +0.130 C 
ATOM     29  C   LIG A   1      -4.658  -3.531 123.542  0.00  0.00    +0.086 C 
ATOM     30  O   LIG A   1      -6.597  -2.233 123.355  0.00  0.00    -0.298 OA
ENDBRANCH  27  28
ENDBRANCH  26  27
ENDBRANCH  25  26
ENDBRANCH  24  25
ENDBRANCH  23  24
ENDBRANCH  22  23
ENDBRANCH  21  22
ENDBRANCH  20  21
ENDBRANCH  19  20
ENDBRANCH  18  19
ENDBRANCH  17  18
ENDBRANCH  16  17
ENDBRANCH   6  16
BRANCH   3  31
ATOM     31  O   LIG A   1      -5.644   4.074 129.623  0.00  0.00    -0.429 OA
BRANCH  31  32
ATOM     32  C   LIG A   1      -4.366   4.329 129.064  0.00  0.00    +0.511 C 
ATOM     33  O   LIG A   1      -3.345   4.187 129.618  0.00  0.00    -0.203 OA
BRANCH  32  34
ATOM     34  O   LIG A   1      -4.426   4.573 127.688  0.00  0.00    -0.428 OA
BRANCH  34  35
ATOM     35  C   LIG A   1      -4.083   3.422 126.825  0.00  0.00    +0.109 C 
ATOM     36  C   LIG A   1      -4.726   3.834 125.502  0.00  0.00    +0.055 C 
ATOM     37  C   LIG A   1      -2.552   3.249 126.612  0.00  0.00    +0.055 C 
ATOM     38  C   LIG A   1      -4.574   2.011 127.234  0.00  0.00    +0.055 C 
ENDBRANCH  34  35
ENDBRANCH  32  34
ENDBRANCH  31  32
ENDBRANCH   3  31
TORSDOF 18
ENDMDL
MODEL 2
REMARK VINA RESULT:      -7.5      3.710      8.136
REMARK  Name = NuBBE_172
REMARK  23 active torsions:
REMARK  status: ('A' for Active; 'I' for Inactive)
REMARK    1  A    between atoms: C_1  and  C_2
REMARK    2  A    between atoms: C_4  and  O_6
REMARK    3  A    between atoms: O_6  and  C_7
REMARK    4  A    between atoms: C_7  and  O_8
REMARK    5  A    between atoms: O_8  and  C_9
REMARK    6  A    between atoms: C_9  and  C_10
REMARK    7  A    between atoms: C_9  and  C_11
REMARK    8  A    between atoms: C_9  and  C_12
REMARK    9  A    between atoms: C_16  and  C_18
REMARK   10  A    between atoms: C_18  and  C_19
REMARK   11  A    between atoms: C_19  and  C_20
REMARK   12  A    between atoms: C_20  and  C_21
REMARK   13  A    between atoms: C_21  and  C_22
REMARK   14  A    between atoms: C_22  and  C_23
REMARK   15  A    between atoms: C_23  and  C_24
REMARK   16  A    between atoms: C_24  and  C_25
REMARK   17  A    between atoms: C_25  and  C_26
REMARK   18  A    between atoms: C_26  and  C_27
REMARK   19  A    between atoms: C_27  and  C_28
REMARK   20  A    between atoms: C_28  and  C_29
REMARK   21  A    between atoms: C_29  and  C_30
REMARK   22  A    between atoms: C_30  and  C_31
REMARK   23  A    between atoms: C_34  and  C_35
REMARK                            x       y       z     vdW  Elec       q    Type
REMARK                         _______ _______ _______ _____ _____    ______ ____
ROOT
ATOM      1  C   LIG A   1      -8.988   3.526 129.779  0.00  0.00    +0.032 C 
ATOM      2  C   LIG A   1      -8.019   4.632 130.229  0.00  0.00    +0.114 C 
ATOM      3  C   LIG A   1      -8.710   5.961 130.624  0.00  0.00    +0.200 C 
ATOM      4  C   LIG A   1      -7.860   6.545 131.822  0.00  0.00    +0.048 C 
ATOM      5  C   LIG A   1      -6.568   5.726 132.144  0.00  0.00    +0.026 C 
ATOM      6  C   LIG A   1      -5.691   5.512 130.865  0.00  0.00    +0.077 C 
ATOM      7  N   LIG A   1      -6.600   4.869 129.729  0.00  0.00    -0.288 N 
ATOM      8  C   LIG A   1      -6.267   4.208 128.471  0.00  0.00    +0.247 C 
ATOM      9  O   LIG A   1      -7.175   3.789 127.741  0.00  0.00    -0.270 OA
ENDROOT
BRANCH   8  10
ATOM     10  C   LIG A   1      -4.866   3.989 127.878  0.00  0.00    +0.037 A 
ATOM     11  C   LIG A   1      -4.652   4.220 126.537  0.00  0.00    +0.013 A 
ATOM     12  C   LIG A   1      -3.500   3.841 125.831  0.00  0.00    +0.001 A 
ATOM     13  C   LIG A   1      -2.440   3.254 126.492  0.00  0.00    +0.000 A 
ATOM     14  C   LIG A   1      -2.544   3.096 127.871  0.00  0.00    +0.001 A 
ATOM     15  C   LIG A   1      -3.760   3.411 128.554  0.00  0.00    +0.013 A 
ENDBRANCH   8  10
BRANCH   6  16
ATOM     16  C   LIG A   1      -4.964   6.946 130.721  0.00  0.00    +0.022 C 
BRANCH  16  17
ATOM     17  C   LIG A   1      -3.839   7.008 129.578  0.00  0.00    +0.002 C 
BRANCH  17  18
ATOM     18  C   LIG A   1      -2.421   6.402 129.885  0.00  0.00    +0.000 C 
BRANCH  18  19
ATOM     19  C   LIG A   1      -1.886   6.788 131.304  0.00  0.00    -0.000 C 
BRANCH  19  20
ATOM     20  C   LIG A   1      -1.322   5.665 132.257  0.00  0.00    -0.000 C 
BRANCH  20  21
ATOM     21  C   LIG A   1      -2.379   4.832 132.989  0.00  0.00    -0.000 C 
BRANCH  21  22
ATOM     22  C   LIG A   1      -2.721   3.377 132.546  0.00  0.00    -0.000 C 
BRANCH  22  23
ATOM     23  C   LIG A   1      -3.594   2.592 133.533  0.00  0.00    -0.000 C 
BRANCH  23  24
ATOM     24  C   LIG A   1      -4.429   1.584 132.800  0.00  0.00    +0.000 C 
BRANCH  24  25
ATOM     25  C   LIG A   1      -5.112   1.869 131.496  0.00  0.00    +0.000 C 
BRANCH  25  26
ATOM     26  C   LIG A   1      -6.581   1.503 131.601  0.00  0.00    +0.007 C 
BRANCH  26  27
ATOM     27  C   LIG A   1      -7.385   1.499 132.900  0.00  0.00    +0.074 C 
BRANCH  27  28
ATOM     28  C   LIG A   1      -7.819   2.745 133.689  0.00  0.00    +0.130 C 
ATOM     29  C   LIG A   1      -9.161   3.395 133.555  0.00  0.00    +0.086 C 
ATOM     30  O   LIG A   1      -7.029   3.231 134.509  0.00  0.00    -0.298 OA
ENDBRANCH  27  28
ENDBRANCH  26  27
ENDBRANCH  25  26
ENDBRANCH  24  25
ENDBRANCH  23  24
ENDBRANCH  22  23
ENDBRANCH  21  22
ENDBRANCH  20  21
ENDBRANCH  19  20
ENDBRANCH  18  19
ENDBRANCH  17  18
ENDBRANCH  16  17
ENDBRANCH   6  16
BRANCH   3  31
ATOM     31  O   LIG A   1      -8.951   6.886 129.486  0.00  0.00    -0.429 OA
BRANCH  31  32
ATOM     32  C   LIG A   1      -9.964   6.463 128.589  0.00  0.00    +0.511 C 
ATOM     33  O   LIG A   1      -9.813   6.250 127.449  0.00  0.00    -0.203 OA
BRANCH  32  34
ATOM     34  O   LIG A   1     -11.147   6.115 129.250  0.00  0.00    -0.428 OA
BRANCH  34  35
ATOM     35  C   LIG A   1     -12.204   7.150 129.247  0.00  0.00    +0.109 C 
ATOM     36  C   LIG A   1     -12.545   7.239 130.733  0.00  0.00    +0.055 C 
ATOM     37  C   LIG A   1     -11.700   8.539 128.758  0.00  0.00    +0.055 C 
ATOM     38  C   LIG A   1     -13.491   6.898 128.423  0.00  0.00    +0.055 C 
ENDBRANCH  34  35
ENDBRANCH  32  34
ENDBRANCH  31  32
ENDBRANCH   3  31
TORSDOF 18
ENDMDL
MODEL 3
REMARK VINA RESULT:      -7.5      3.403      9.149
REMARK  Name = NuBBE_172
REMARK  23 active torsions:
REMARK  status: ('A' for Active; 'I' for Inactive)
REMARK    1  A    between atoms: C_1  and  C_2
REMARK    2  A    between atoms: C_4  and  O_6
REMARK    3  A    between atoms: O_6  and  C_7
REMARK    4  A    between atoms: C_7  and  O_8
REMARK    5  A    between atoms: O_8  and  C_9
REMARK    6  A    between atoms: C_9  and  C_10
REMARK    7  A    between atoms: C_9  and  C_11
REMARK    8  A    between atoms: C_9  and  C_12
REMARK    9  A    between atoms: C_16  and  C_18
REMARK   10  A    between atoms: C_18  and  C_19
REMARK   11  A    between atoms: C_19  and  C_20
REMARK   12  A    between atoms: C_20  and  C_21
REMARK   13  A    between atoms: C_21  and  C_22
REMARK   14  A    between atoms: C_22  and  C_23
REMARK   15  A    between atoms: C_23  and  C_24
REMARK   16  A    between atoms: C_24  and  C_25
REMARK   17  A    between atoms: C_25  and  C_26
REMARK   18  A    between atoms: C_26  and  C_27
REMARK   19  A    between atoms: C_27  and  C_28
REMARK   20  A    between atoms: C_28  and  C_29
REMARK   21  A    between atoms: C_29  and  C_30
REMARK   22  A    between atoms: C_30  and  C_31
REMARK   23  A    between atoms: C_34  and  C_35
REMARK                            x       y       z     vdW  Elec       q    Type
REMARK                         _______ _______ _______ _____ _____    ______ ____
ROOT
ATOM      1  C   LIG A   1      -6.219  -1.362 122.987  0.00  0.00    +0.032 C 
ATOM      2  C   LIG A   1      -7.222  -2.033 123.940  0.00  0.00    +0.114 C 
ATOM      3  C   LIG A   1      -8.701  -1.915 123.492  0.00  0.00    +0.200 C 
ATOM      4  C   LIG A   1      -9.387  -3.273 123.921  0.00  0.00    +0.048 C 
ATOM      5  C   LIG A   1      -8.458  -4.223 124.746  0.00  0.00    +0.026 C 
ATOM      6  C   LIG A   1      -7.827  -3.483 125.973  0.00  0.00    +0.077 C 
ATOM      7  N   LIG A   1      -7.107  -2.163 125.453  0.00  0.00    -0.288 N 
ATOM      8  C   LIG A   1      -6.139  -1.268 126.080  0.00  0.00    +0.247 C 
ATOM      9  O   LIG A   1      -5.724  -0.282 125.457  0.00  0.00    -0.270 OA
ENDROOT
BRANCH   8  10
ATOM     10  C   LIG A   1      -5.567  -1.368 127.504  0.00  0.00    +0.037 A 
ATOM     11  C   LIG A   1      -5.589  -0.260 128.323  0.00  0.00    +0.013 A 
ATOM     12  C   LIG A   1      -4.900  -0.149 129.541  0.00  0.00    +0.001 A 
ATOM     13  C   LIG A   1      -4.190  -1.222 130.038  0.00  0.00    +0.000 A 
ATOM     14  C   LIG A   1      -4.221  -2.412 129.316  0.00  0.00    +0.001 A 
ATOM     15  C   LIG A   1      -4.859  -2.475 128.038  0.00  0.00    +0.013 A 
ENDBRANCH   8  10
BRANCH   6  16
ATOM     16  C   LIG A   1      -9.054  -3.476 127.021  0.00  0.00    +0.022 C 
BRANCH  16  17
ATOM     17  C   LIG A   1      -8.639  -3.825 128.531  0.00  0.00    +0.002 C 
BRANCH  17  18
ATOM     18  C   LIG A   1      -8.318  -2.643 129.516  0.00  0.00    +0.000 C 
BRANCH  18  19
ATOM     19  C   LIG A   1      -7.420  -3.079 130.721  0.00  0.00    -0.000 C 
BRANCH  19  20
ATOM     20  C   LIG A   1      -7.511  -2.294 132.086  0.00  0.00    -0.000 C 
BRANCH  20  21
ATOM     21  C   LIG A   1      -7.685  -0.776 131.960  0.00  0.00    -0.000 C 
BRANCH  21  22
ATOM     22  C   LIG A   1      -6.904   0.212 132.879  0.00  0.00    -0.000 C 
BRANCH  22  23
ATOM     23  C   LIG A   1      -6.927   1.674 132.417  0.00  0.00    -0.000 C 
BRANCH  23  24
ATOM     24  C   LIG A   1      -8.264   2.012 131.826  0.00  0.00    +0.000 C 
BRANCH  24  25
ATOM     25  C   LIG A   1      -9.388   2.611 132.617  0.00  0.00    +0.000 C 
BRANCH  25  26
ATOM     26  C   LIG A   1      -8.823   3.413 133.776  0.00  0.00    +0.007 C 
BRANCH  26  27
ATOM     27  C   LIG A   1      -8.347   4.861 133.680  0.00  0.00    +0.074 C 
BRANCH  27  28
ATOM     28  C   LIG A   1      -8.863   5.909 132.681  0.00  0.00    +0.130 C 
ATOM     29  C   LIG A   1      -8.093   6.372 131.482  0.00  0.00    +0.086 C 
ATOM     30  O   LIG A   1      -9.992   6.385 132.852  0.00  0.00    -0.298 OA
ENDBRANCH  27  28
ENDBRANCH  26  27
ENDBRANCH  25  26
ENDBRANCH  24  25
ENDBRANCH  23  24
ENDBRANCH  22  23
ENDBRANCH  21  22
ENDBRANCH  20  21
ENDBRANCH  19  20
ENDBRANCH  18  19
ENDBRANCH  17  18
ENDBRANCH  16  17
ENDBRANCH   6  16
BRANCH   3  31
ATOM     31  O   LIG A   1      -9.379  -0.672 123.946  0.00  0.00    -0.429 OA
BRANCH  31  32
ATOM     32  C   LIG A   1      -9.796   0.186 122.897  0.00  0.00    +0.511 C 
ATOM     33  O   LIG A   1     -10.907   0.437 122.630  0.00  0.00    -0.203 OA
BRANCH  32  34
ATOM     34  O   LIG A   1      -8.727   0.886 122.327  0.00  0.00    -0.428 OA
BRANCH  34  35
ATOM     35  C   LIG A   1      -8.343   2.133 123.023  0.00  0.00    +0.109 C 
ATOM     36  C   LIG A   1      -8.663   3.183 121.961  0.00  0.00    +0.055 C 
ATOM     37  C   LIG A   1      -9.199   2.417 124.291  0.00  0.00    +0.055 C 
ATOM     38  C   LIG A   1      -6.880   2.298 123.504  0.00  0.00    +0.055 C 
ENDBRANCH  34  35
ENDBRANCH  32  34
ENDBRANCH  31  32
ENDBRANCH   3  31
TORSDOF 18
ENDMDL
MODEL 4
REMARK VINA RESULT:      -7.5      1.569      2.005
REMARK  Name = NuBBE_172
REMARK  23 active torsions:
REMARK  status: ('A' for Active; 'I' for Inactive)
REMARK    1  A    between atoms: C_1  and  C_2
REMARK    2  A    between atoms: C_4  and  O_6
REMARK    3  A    between atoms: O_6  and  C_7
REMARK    4  A    between atoms: C_7  and  O_8
REMARK    5  A    between atoms: O_8  and  C_9
REMARK    6  A    between atoms: C_9  and  C_10
REMARK    7  A    between atoms: C_9  and  C_11
REMARK    8  A    between atoms: C_9  and  C_12
REMARK    9  A    between atoms: C_16  and  C_18
REMARK   10  A    between atoms: C_18  and  C_19
REMARK   11  A    between atoms: C_19  and  C_20
REMARK   12  A    between atoms: C_20  and  C_21
REMARK   13  A    between atoms: C_21  and  C_22
REMARK   14  A    between atoms: C_22  and  C_23
REMARK   15  A    between atoms: C_23  and  C_24
REMARK   16  A    between atoms: C_24  and  C_25
REMARK   17  A    between atoms: C_25  and  C_26
REMARK   18  A    between atoms: C_26  and  C_27
REMARK   19  A    between atoms: C_27  and  C_28
REMARK   20  A    between atoms: C_28  and  C_29
REMARK   21  A    between atoms: C_29  and  C_30
REMARK   22  A    between atoms: C_30  and  C_31
REMARK   23  A    between atoms: C_34  and  C_35
REMARK                            x       y       z     vdW  Elec       q    Type
REMARK                         _______ _______ _______ _____ _____    ______ ____
ROOT
ATOM      1  C   LIG A   1      -6.131   6.054 133.109  0.00  0.00    +0.032 C 
ATOM      2  C   LIG A   1      -7.000   4.862 132.677  0.00  0.00    +0.114 C 
ATOM      3  C   LIG A   1      -6.195   3.624 132.210  0.00  0.00    +0.200 C 
ATOM      4  C   LIG A   1      -7.023   2.368 132.694  0.00  0.00    +0.048 C 
ATOM      5  C   LIG A   1      -8.401   2.725 133.342  0.00  0.00    +0.026 C 
ATOM      6  C   LIG A   1      -9.250   3.651 132.409  0.00  0.00    +0.077 C 
ATOM      7  N   LIG A   1      -8.371   4.917 132.015  0.00  0.00    -0.288 N 
ATOM      8  C   LIG A   1      -8.725   6.206 131.427  0.00  0.00    +0.247 C 
ATOM      9  O   LIG A   1      -7.838   7.041 131.206  0.00  0.00    -0.270 OA
ENDROOT
BRANCH   8  10
ATOM     10  C   LIG A   1     -10.120   6.673 130.981  0.00  0.00    +0.037 A 
ATOM     11  C   LIG A   1     -10.252   7.401 129.820  0.00  0.00    +0.013 A 
ATOM     12  C   LIG A   1     -11.417   8.080 129.426  0.00  0.00    +0.001 A 
ATOM     13  C   LIG A   1     -12.566   7.987 130.185  0.00  0.00    +0.000 A 
ATOM     14  C   LIG A   1     -12.534   7.171 131.313  0.00  0.00    +0.001 A 
ATOM     15  C   LIG A   1     -11.314   6.560 131.739  0.00  0.00    +0.013 A 
ENDBRANCH   8  10
BRANCH   6  16
ATOM     16  C   LIG A   1      -9.826   2.596 131.333  0.00  0.00    +0.022 C 
BRANCH  16  17
ATOM     17  C   LIG A   1      -9.347   2.857 129.824  0.00  0.00    +0.002 C 
BRANCH  17  18
ATOM     18  C   LIG A   1      -8.562   1.719 129.075  0.00  0.00    +0.000 C 
BRANCH  18  19
ATOM     19  C   LIG A   1      -8.031   0.607 130.040  0.00  0.00    -0.000 C 
BRANCH  19  20
ATOM     20  C   LIG A   1      -7.382  -0.700 129.443  0.00  0.00    -0.000 C 
BRANCH  20  21
ATOM     21  C   LIG A   1      -7.888  -2.017 130.041  0.00  0.00    -0.000 C 
BRANCH  21  22
ATOM     22  C   LIG A   1      -7.744  -3.368 129.275  0.00  0.00    -0.000 C 
BRANCH  22  23
ATOM     23  C   LIG A   1      -8.871  -3.665 128.278  0.00  0.00    -0.000 C 
BRANCH  23  24
ATOM     24  C   LIG A   1      -8.423  -3.359 126.879  0.00  0.00    +0.000 C 
BRANCH  24  25
ATOM     25  C   LIG A   1      -9.370  -3.055 125.757  0.00  0.00    +0.000 C 
BRANCH  25  26
ATOM     26  C   LIG A   1      -8.646  -3.197 124.430  0.00  0.00    +0.007 C 
BRANCH  26  27
ATOM     27  C   LIG A   1      -7.210  -3.694 124.272  0.00  0.00    +0.074 C 
BRANCH  27  28
ATOM     28  C   LIG A   1      -5.998  -2.828 123.896  0.00  0.00    +0.130 C 
ATOM     29  C   LIG A   1      -4.690  -3.382 123.420  0.00  0.00    +0.086 C 
ATOM     30  O   LIG A   1      -6.107  -1.597 123.959  0.00  0.00    -0.298 OA
ENDBRANCH  27  28
ENDBRANCH  26  27
ENDBRANCH  25  26
ENDBRANCH  24  25
ENDBRANCH  23  24
ENDBRANCH  22  23
ENDBRANCH  21  22
ENDBRANCH  20  21
ENDBRANCH  19  20
ENDBRANCH  18  19
ENDBRANCH  17  18
ENDBRANCH  16  17
ENDBRANCH   6  16
BRANCH   3  31
ATOM     31  O   LIG A   1      -5.825   3.643 130.770  0.00  0.00    -0.429 OA
BRANCH  31  32
ATOM     32  C   LIG A   1      -4.464   3.343 130.509  0.00  0.00    +0.511 C 
ATOM     33  O   LIG A   1      -3.875   2.433 130.951  0.00  0.00    -0.203 OA
BRANCH  32  34
ATOM     34  O   LIG A   1      -3.932   4.135 129.485  0.00  0.00    -0.428 OA
BRANCH  34  35
ATOM     35  C   LIG A   1      -3.362   5.429 129.917  0.00  0.00    +0.109 C 
ATOM     36  C   LIG A   1      -2.358   5.706 128.800  0.00  0.00    +0.055 C 
ATOM     37  C   LIG A   1      -4.410   6.579 129.954  0.00  0.00    +0.055 C 
ATOM     38  C   LIG A   1      -2.657   5.510 131.294  0.00  0.00    +0.055 C 
ENDBRANCH  34  35
ENDBRANCH  32  34
ENDBRANCH  31  32
ENDBRANCH   3  31
TORSDOF 18
ENDMDL
MODEL 5
REMARK VINA RESULT:      -7.4      3.955      7.495
REMARK  Name = NuBBE_172
REMARK  23 active torsions:
REMARK  status: ('A' for Active; 'I' for Inactive)
REMARK    1  A    between atoms: C_1  and  C_2
REMARK    2  A    between atoms: C_4  and  O_6
REMARK    3  A    between atoms: O_6  and  C_7
REMARK    4  A    between atoms: C_7  and  O_8
REMARK    5  A    between atoms: O_8  and  C_9
REMARK    6  A    between atoms: C_9  and  C_10
REMARK    7  A    between atoms: C_9  and  C_11
REMARK    8  A    between atoms: C_9  and  C_12
REMARK    9  A    between atoms: C_16  and  C_18
REMARK   10  A    between atoms: C_18  and  C_19
REMARK   11  A    between atoms: C_19  and  C_20
REMARK   12  A    between atoms: C_20  and  C_21
REMARK   13  A    between atoms: C_21  and  C_22
REMARK   14  A    between atoms: C_22  and  C_23
REMARK   15  A    between atoms: C_23  and  C_24
REMARK   16  A    between atoms: C_24  and  C_25
REMARK   17  A    between atoms: C_25  and  C_26
REMARK   18  A    between atoms: C_26  and  C_27
REMARK   19  A    between atoms: C_27  and  C_28
REMARK   20  A    between atoms: C_28  and  C_29
REMARK   21  A    between atoms: C_29  and  C_30
REMARK   22  A    between atoms: C_30  and  C_31
REMARK   23  A    between atoms: C_34  and  C_35
REMARK                            x       y       z     vdW  Elec       q    Type
REMARK                         _______ _______ _______ _____ _____    ______ ____
ROOT
ATOM      1  C   LIG A   1      -7.686   3.999 126.621  0.00  0.00    +0.032 C 
ATOM      2  C   LIG A   1      -8.004   2.670 125.916  0.00  0.00    +0.114 C 
ATOM      3  C   LIG A   1      -7.634   1.410 126.738  0.00  0.00    +0.200 C 
ATOM      4  C   LIG A   1      -8.751   0.342 126.409  0.00  0.00    +0.048 C 
ATOM      5  C   LIG A   1      -9.763   0.798 125.307  0.00  0.00    +0.026 C 
ATOM      6  C   LIG A   1      -9.025   1.278 124.013  0.00  0.00    +0.077 C 
ATOM      7  N   LIG A   1      -7.963   2.391 124.419  0.00  0.00    -0.288 N 
ATOM      8  C   LIG A   1      -7.220   3.366 123.627  0.00  0.00    +0.247 C 
ATOM      9  O   LIG A   1      -6.430   4.137 124.188  0.00  0.00    -0.270 OA
ENDROOT
BRANCH   8  10
ATOM     10  C   LIG A   1      -7.257   3.546 122.100  0.00  0.00    +0.037 A 
ATOM     11  C   LIG A   1      -6.082   3.756 121.414  0.00  0.00    +0.013 A 
ATOM     12  C   LIG A   1      -5.998   4.163 120.072  0.00  0.00    +0.001 A 
ATOM     13  C   LIG A   1      -7.144   4.308 119.317  0.00  0.00    +0.000 A 
ATOM     14  C   LIG A   1      -8.361   3.998 119.918  0.00  0.00    +0.001 A 
ATOM     15  C   LIG A   1      -8.427   3.670 121.308  0.00  0.00    +0.013 A 
ENDBRANCH   8  10
BRANCH   6  16
ATOM     16  C   LIG A   1      -8.627  -0.124 123.322  0.00  0.00    +0.022 C 
BRANCH  16  17
ATOM     17  C   LIG A   1      -7.052  -0.433 123.304  0.00  0.00    +0.002 C 
BRANCH  17  18
ATOM     18  C   LIG A   1      -6.556  -1.781 122.665  0.00  0.00    +0.000 C 
BRANCH  18  19
ATOM     19  C   LIG A   1      -6.317  -2.907 123.725  0.00  0.00    -0.000 C 
BRANCH  19  20
ATOM     20  C   LIG A   1      -7.546  -3.527 124.495  0.00  0.00    -0.000 C 
BRANCH  20  21
ATOM     21  C   LIG A   1      -7.749  -3.017 125.926  0.00  0.00    -0.000 C 
BRANCH  21  22
ATOM     22  C   LIG A   1      -9.029  -3.371 126.744  0.00  0.00    -0.000 C 
BRANCH  22  23
ATOM     23  C   LIG A   1      -8.762  -4.025 128.105  0.00  0.00    -0.000 C 
BRANCH  23  24
ATOM     24  C   LIG A   1      -8.431  -2.979 129.128  0.00  0.00    +0.000 C 
BRANCH  24  25
ATOM     25  C   LIG A   1      -7.619  -3.256 130.358  0.00  0.00    +0.000 C 
BRANCH  25  26
ATOM     26  C   LIG A   1      -6.284  -3.860 129.960  0.00  0.00    +0.007 C 
BRANCH  26  27
ATOM     27  C   LIG A   1      -5.502  -4.869 130.798  0.00  0.00    +0.074 C 
BRANCH  27  28
ATOM     28  C   LIG A   1      -4.924  -4.613 132.199  0.00  0.00    +0.130 C 
ATOM     29  C   LIG A   1      -4.751  -3.251 132.797  0.00  0.00    +0.086 C 
ATOM     30  O   LIG A   1      -4.607  -5.585 132.896  0.00  0.00    -0.298 OA
ENDBRANCH  27  28
ENDBRANCH  26  27
ENDBRANCH  25  26
ENDBRANCH  24  25
ENDBRANCH  23  24
ENDBRANCH  22  23
ENDBRANCH  21  22
ENDBRANCH  20  21
ENDBRANCH  19  20
ENDBRANCH  18  19
ENDBRANCH  17  18
ENDBRANCH  16  17
ENDBRANCH   6  16
BRANCH   3  31
ATOM     31  O   LIG A   1      -6.229   0.957 126.563  0.00  0.00    -0.429 OA
BRANCH  31  32
ATOM     32  C   LIG A   1      -5.687   0.279 127.684  0.00  0.00    +0.511 C 
ATOM     33  O   LIG A   1      -5.438  -0.864 127.728  0.00  0.00    -0.203 OA
BRANCH  32  34
ATOM     34  O   LIG A   1      -5.271   1.160 128.688  0.00  0.00    -0.428 OA
BRANCH  34  35
ATOM     35  C   LIG A   1      -5.859   0.922 130.024  0.00  0.00    +0.109 C 
ATOM     36  C   LIG A   1      -4.918  -0.144 130.583  0.00  0.00    +0.055 C 
ATOM     37  C   LIG A   1      -5.814   2.173 130.946  0.00  0.00    +0.055 C 
ATOM     38  C   LIG A   1      -7.325   0.431 130.115  0.00  0.00    +0.055 C 
ENDBRANCH  34  35
ENDBRANCH  32  34
ENDBRANCH  31  32
ENDBRANCH   3  31
TORSDOF 18
ENDMDL
MODEL 6
REMARK VINA RESULT:      -7.4      2.876      7.645
REMARK  Name = NuBBE_172
REMARK  23 active torsions:
REMARK  status: ('A' for Active; 'I' for Inactive)
REMARK    1  A    between atoms: C_1  and  C_2
REMARK    2  A    between atoms: C_4  and  O_6
REMARK    3  A    between atoms: O_6  and  C_7
REMARK    4  A    between atoms: C_7  and  O_8
REMARK    5  A    between atoms: O_8  and  C_9
REMARK    6  A    between atoms: C_9  and  C_10
REMARK    7  A    between atoms: C_9  and  C_11
REMARK    8  A    between atoms: C_9  and  C_12
REMARK    9  A    between atoms: C_16  and  C_18
REMARK   10  A    between atoms: C_18  and  C_19
REMARK   11  A    between atoms: C_19  and  C_20
REMARK   12  A    between atoms: C_20  and  C_21
REMARK   13  A    between atoms: C_21  and  C_22
REMARK   14  A    between atoms: C_22  and  C_23
REMARK   15  A    between atoms: C_23  and  C_24
REMARK   16  A    between atoms: C_24  and  C_25
REMARK   17  A    between atoms: C_25  and  C_26
REMARK   18  A    between atoms: C_26  and  C_27
REMARK   19  A    between atoms: C_27  and  C_28
REMARK   20  A    between atoms: C_28  and  C_29
REMARK   21  A    between atoms: C_29  and  C_30
REMARK   22  A    between atoms: C_30  and  C_31
REMARK   23  A    between atoms: C_34  and  C_35
REMARK                            x       y       z     vdW  Elec       q    Type
REMARK                         _______ _______ _______ _____ _____    ______ ____
ROOT
ATOM      1  C   LIG A   1      -8.575   3.022 124.075  0.00  0.00    +0.032 C 
ATOM      2  C   LIG A   1      -8.098   2.406 125.401  0.00  0.00    +0.114 C 
ATOM      3  C   LIG A   1      -7.401   3.411 126.353  0.00  0.00    +0.200 C 
ATOM      4  C   LIG A   1      -7.817   2.973 127.814  0.00  0.00    +0.048 C 
ATOM      5  C   LIG A   1      -8.648   1.649 127.869  0.00  0.00    +0.026 C 
ATOM      6  C   LIG A   1      -7.930   0.489 127.102  0.00  0.00    +0.077 C 
ATOM      7  N   LIG A   1      -7.599   0.985 125.627  0.00  0.00    -0.288 N 
ATOM      8  C   LIG A   1      -7.212   0.264 124.418  0.00  0.00    +0.247 C 
ATOM      9  O   LIG A   1      -6.999   0.891 123.373  0.00  0.00    -0.270 OA
ENDROOT
BRANCH   8  10
ATOM     10  C   LIG A   1      -6.979  -1.249 124.273  0.00  0.00    +0.037 A 
ATOM     11  C   LIG A   1      -8.030  -2.118 124.462  0.00  0.00    +0.013 A 
ATOM     12  C   LIG A   1      -7.906  -3.511 124.589  0.00  0.00    +0.001 A 
ATOM     13  C   LIG A   1      -6.673  -4.115 124.450  0.00  0.00    +0.000 A 
ATOM     14  C   LIG A   1      -5.584  -3.304 124.142  0.00  0.00    +0.001 A 
ATOM     15  C   LIG A   1      -5.721  -1.881 124.103  0.00  0.00    +0.013 A 
ENDBRANCH   8  10
BRANCH   6  16
ATOM     16  C   LIG A   1      -6.803   0.039 128.165  0.00  0.00    +0.022 C 
BRANCH  16  17
ATOM     17  C   LIG A   1      -5.729  -1.006 127.592  0.00  0.00    +0.002 C 
BRANCH  17  18
ATOM     18  C   LIG A   1      -5.978  -2.542 127.818  0.00  0.00    +0.000 C 
BRANCH  18  19
ATOM     19  C   LIG A   1      -7.460  -2.872 128.196  0.00  0.00    -0.000 C 
BRANCH  19  20
ATOM     20  C   LIG A   1      -7.817  -3.268 129.680  0.00  0.00    -0.000 C 
BRANCH  20  21
ATOM     21  C   LIG A   1      -6.641  -3.764 130.528  0.00  0.00    -0.000 C 
BRANCH  21  22
ATOM     22  C   LIG A   1      -6.198  -3.017 131.823  0.00  0.00    -0.000 C 
BRANCH  22  23
ATOM     23  C   LIG A   1      -5.329  -1.776 131.585  0.00  0.00    -0.000 C 
BRANCH  23  24
ATOM     24  C   LIG A   1      -6.167  -0.533 131.651  0.00  0.00    +0.000 C 
BRANCH  24  25
ATOM     25  C   LIG A   1      -7.461  -0.450 132.405  0.00  0.00    +0.000 C 
BRANCH  25  26
ATOM     26  C   LIG A   1      -8.576  -0.048 131.456  0.00  0.00    +0.007 C 
BRANCH  26  27
ATOM     27  C   LIG A   1      -9.660   0.979 131.776  0.00  0.00    +0.074 C 
BRANCH  27  28
ATOM     28  C   LIG A   1      -9.417   2.419 132.256  0.00  0.00    +0.130 C 
ATOM     29  C   LIG A   1      -9.605   3.631 131.396  0.00  0.00    +0.086 C 
ATOM     30  O   LIG A   1      -9.072   2.601 133.430  0.00  0.00    -0.298 OA
ENDBRANCH  27  28
ENDBRANCH  26  27
ENDBRANCH  25  26
ENDBRANCH  24  25
ENDBRANCH  23  24
ENDBRANCH  22  23
ENDBRANCH  21  22
ENDBRANCH  20  21
ENDBRANCH  19  20
ENDBRANCH  18  19
ENDBRANCH  17  18
ENDBRANCH  16  17
ENDBRANCH   6  16
BRANCH   3  31
ATOM     31  O   LIG A   1      -5.943   3.570 126.112  0.00  0.00    -0.429 OA
BRANCH  31  32
ATOM     32  C   LIG A   1      -5.445   4.873 126.365  0.00  0.00    +0.511 C 
ATOM     33  O   LIG A   1      -5.611   5.805 125.678  0.00  0.00    -0.203 OA
BRANCH  32  34
ATOM     34  O   LIG A   1      -4.898   4.994 127.647  0.00  0.00    -0.428 OA
BRANCH  34  35
ATOM     35  C   LIG A   1      -3.623   4.275 127.862  0.00  0.00    +0.109 C 
ATOM     36  C   LIG A   1      -2.841   5.290 128.694  0.00  0.00    +0.055 C 
ATOM     37  C   LIG A   1      -3.789   2.965 128.684  0.00  0.00    +0.055 C 
ATOM     38  C   LIG A   1      -2.790   3.850 126.628  0.00  0.00    +0.055 C 
ENDBRANCH  34  35
ENDBRANCH  32  34
ENDBRANCH  31  32
ENDBRANCH   3  31
TORSDOF 18
ENDMDL
MODEL 7
REMARK VINA RESULT:      -7.4      2.692      7.133
REMARK  Name = NuBBE_172
REMARK  23 active torsions:
REMARK  status: ('A' for Active; 'I' for Inactive)
REMARK    1  A    between atoms: C_1  and  C_2
REMARK    2  A    between atoms: C_4  and  O_6
REMARK    3  A    between atoms: O_6  and  C_7
REMARK    4  A    between atoms: C_7  and  O_8
REMARK    5  A    between atoms: O_8  and  C_9
REMARK    6  A    between atoms: C_9  and  C_10
REMARK    7  A    between atoms: C_9  and  C_11
REMARK    8  A    between atoms: C_9  and  C_12
REMARK    9  A    between atoms: C_16  and  C_18
REMARK   10  A    between atoms: C_18  and  C_19
REMARK   11  A    between atoms: C_19  and  C_20
REMARK   12  A    between atoms: C_20  and  C_21
REMARK   13  A    between atoms: C_21  and  C_22
REMARK   14  A    between atoms: C_22  and  C_23
REMARK   15  A    between atoms: C_23  and  C_24
REMARK   16  A    between atoms: C_24  and  C_25
REMARK   17  A    between atoms: C_25  and  C_26
REMARK   18  A    between atoms: C_26  and  C_27
REMARK   19  A    between atoms: C_27  and  C_28
REMARK   20  A    between atoms: C_28  and  C_29
REMARK   21  A    between atoms: C_29  and  C_30
REMARK   22  A    between atoms: C_30  and  C_31
REMARK   23  A    between atoms: C_34  and  C_35
REMARK                            x       y       z     vdW  Elec       q    Type
REMARK                         _______ _______ _______ _____ _____    ______ ____
ROOT
ATOM      1  C   LIG A   1      -9.165   2.684 130.359  0.00  0.00    +0.032 C 
ATOM      2  C   LIG A   1      -8.548   4.057 130.671  0.00  0.00    +0.114 C 
ATOM      3  C   LIG A   1      -9.587   5.181 130.910  0.00  0.00    +0.200 C 
ATOM      4  C   LIG A   1      -8.963   6.110 132.026  0.00  0.00    +0.048 C 
ATOM      5  C   LIG A   1      -7.505   5.720 132.436  0.00  0.00    +0.026 C 
ATOM      6  C   LIG A   1      -6.568   5.611 131.187  0.00  0.00    +0.077 C 
ATOM      7  N   LIG A   1      -7.235   4.616 130.139  0.00  0.00    -0.288 N 
ATOM      8  C   LIG A   1      -6.699   3.933 128.966  0.00  0.00    +0.247 C 
ATOM      9  O   LIG A   1      -7.437   3.200 128.295  0.00  0.00    -0.270 OA
ENDROOT
BRANCH   8  10
ATOM     10  C   LIG A   1      -5.275   4.040 128.396  0.00  0.00    +0.037 A 
ATOM     11  C   LIG A   1      -4.462   2.929 128.387  0.00  0.00    +0.013 A 
ATOM     12  C   LIG A   1      -3.085   2.944 128.117  0.00  0.00    +0.001 A 
ATOM     13  C   LIG A   1      -2.459   4.121 127.758  0.00  0.00    +0.000 A 
ATOM     14  C   LIG A   1      -3.247   5.263 127.634  0.00  0.00    +0.001 A 
ATOM     15  C   LIG A   1      -4.630   5.239 127.998  0.00  0.00    +0.013 A 
ENDBRANCH   8  10
BRANCH   6  16
ATOM     16  C   LIG A   1      -6.258   7.162 130.871  0.00  0.00    +0.022 C 
BRANCH  16  17
ATOM     17  C   LIG A   1      -4.713   7.485 130.583  0.00  0.00    +0.002 C 
BRANCH  17  18
ATOM     18  C   LIG A   1      -3.641   7.047 131.648  0.00  0.00    +0.000 C 
BRANCH  18  19
ATOM     19  C   LIG A   1      -2.498   6.169 131.037  0.00  0.00    -0.000 C 
BRANCH  19  20
ATOM     20  C   LIG A   1      -2.331   4.672 131.503  0.00  0.00    -0.000 C 
BRANCH  20  21
ATOM     21  C   LIG A   1      -3.550   4.062 132.204  0.00  0.00    -0.000 C 
BRANCH  21  22
ATOM     22  C   LIG A   1      -4.029   2.612 131.889  0.00  0.00    -0.000 C 
BRANCH  22  23
ATOM     23  C   LIG A   1      -5.490   2.323 132.257  0.00  0.00    -0.000 C 
BRANCH  23  24
ATOM     24  C   LIG A   1      -6.024   1.197 131.422  0.00  0.00    +0.000 C 
BRANCH  24  25
ATOM     25  C   LIG A   1      -6.447  -0.124 131.991  0.00  0.00    +0.000 C 
BRANCH  25  26
ATOM     26  C   LIG A   1      -7.608  -0.676 131.184  0.00  0.00    +0.007 C 
BRANCH  26  27
ATOM     27  C   LIG A   1      -7.468  -1.410 129.851  0.00  0.00    +0.074 C 
BRANCH  27  28
ATOM     28  C   LIG A   1      -7.602  -2.927 129.644  0.00  0.00    +0.130 C 
ATOM     29  C   LIG A   1      -6.543  -3.918 130.015  0.00  0.00    +0.086 C 
ATOM     30  O   LIG A   1      -8.656  -3.369 129.170  0.00  0.00    -0.298 OA
ENDBRANCH  27  28
ENDBRANCH  26  27
ENDBRANCH  25  26
ENDBRANCH  24  25
ENDBRANCH  23  24
ENDBRANCH  22  23
ENDBRANCH  21  22
ENDBRANCH  20  21
ENDBRANCH  19  20
ENDBRANCH  18  19
ENDBRANCH  17  18
ENDBRANCH  16  17
ENDBRANCH   6  16
BRANCH   3  31
ATOM     31  O   LIG A   1     -10.040   5.868 129.672  0.00  0.00    -0.429 OA
BRANCH  31  32
ATOM     32  C   LIG A   1     -10.114   7.280 129.777  0.00  0.00    +0.511 C 
ATOM     33  O   LIG A   1      -9.269   8.027 129.467  0.00  0.00    -0.203 OA
BRANCH  32  34
ATOM     34  O   LIG A   1     -11.402   7.722 130.101  0.00  0.00    -0.428 OA
BRANCH  34  35
ATOM     35  C   LIG A   1     -12.246   8.109 128.949  0.00  0.00    +0.109 C 
ATOM     36  C   LIG A   1     -13.303   7.006 128.965  0.00  0.00    +0.055 C 
ATOM     37  C   LIG A   1     -12.946   9.486 129.137  0.00  0.00    +0.055 C 
ATOM     38  C   LIG A   1     -11.596   8.199 127.546  0.00  0.00    +0.055 C 
ENDBRANCH  34  35
ENDBRANCH  32  34
ENDBRANCH  31  32
ENDBRANCH   3  31
TORSDOF 18
ENDMDL
MODEL 8
REMARK VINA RESULT:      -7.4      2.454      6.580
REMARK  Name = NuBBE_172
REMARK  23 active torsions:
REMARK  status: ('A' for Active; 'I' for Inactive)
REMARK    1  A    between atoms: C_1  and  C_2
REMARK    2  A    between atoms: C_4  and  O_6
REMARK    3  A    between atoms: O_6  and  C_7
REMARK    4  A    between atoms: C_7  and  O_8
REMARK    5  A    between atoms: O_8  and  C_9
REMARK    6  A    between atoms: C_9  and  C_10
REMARK    7  A    between atoms: C_9  and  C_11
REMARK    8  A    between atoms: C_9  and  C_12
REMARK    9  A    between atoms: C_16  and  C_18
REMARK   10  A    between atoms: C_18  and  C_19
REMARK   11  A    between atoms: C_19  and  C_20
REMARK   12  A    between atoms: C_20  and  C_21
REMARK   13  A    between atoms: C_21  and  C_22
REMARK   14  A    between atoms: C_22  and  C_23
REMARK   15  A    between atoms: C_23  and  C_24
REMARK   16  A    between atoms: C_24  and  C_25
REMARK   17  A    between atoms: C_25  and  C_26
REMARK   18  A    between atoms: C_26  and  C_27
REMARK   19  A    between atoms: C_27  and  C_28
REMARK   20  A    between atoms: C_28  and  C_29
REMARK   21  A    between atoms: C_29  and  C_30
REMARK   22  A    between atoms: C_30  and  C_31
REMARK   23  A    between atoms: C_34  and  C_35
REMARK                            x       y       z     vdW  Elec       q    Type
REMARK                         _______ _______ _______ _____ _____    ______ ____
ROOT
ATOM      1  C   LIG A   1      -9.403   3.835 133.567  0.00  0.00    +0.032 C 
ATOM      2  C   LIG A   1      -8.816   4.224 132.201  0.00  0.00    +0.114 C 
ATOM      3  C   LIG A   1      -9.339   5.572 131.645  0.00  0.00    +0.200 C 
ATOM      4  C   LIG A   1      -8.115   6.225 130.887  0.00  0.00    +0.048 C 
ATOM      5  C   LIG A   1      -6.851   5.308 130.810  0.00  0.00    +0.026 C 
ATOM      6  C   LIG A   1      -7.202   3.897 130.229  0.00  0.00    +0.077 C 
ATOM      7  N   LIG A   1      -8.398   3.282 131.079  0.00  0.00    -0.288 N 
ATOM      8  C   LIG A   1      -8.929   1.926 131.178  0.00  0.00    +0.247 C 
ATOM      9  O   LIG A   1      -9.892   1.698 131.922  0.00  0.00    -0.270 OA
ENDROOT
BRANCH   8  10
ATOM     10  C   LIG A   1      -8.454   0.683 130.407  0.00  0.00    +0.037 A 
ATOM     11  C   LIG A   1      -8.346  -0.522 131.065  0.00  0.00    +0.013 A 
ATOM     12  C   LIG A   1      -7.713  -1.664 130.549  0.00  0.00    +0.001 A 
ATOM     13  C   LIG A   1      -7.205  -1.657 129.266  0.00  0.00    +0.000 A 
ATOM     14  C   LIG A   1      -7.383  -0.506 128.503  0.00  0.00    +0.001 A 
ATOM     15  C   LIG A   1      -7.955   0.671 129.079  0.00  0.00    +0.013 A 
ENDBRANCH   8  10
BRANCH   6  16
ATOM     16  C   LIG A   1      -7.297   4.205 128.649  0.00  0.00    +0.022 C 
BRANCH  16  17
ATOM     17  C   LIG A   1      -5.887   4.191 127.883  0.00  0.00    +0.002 C 
BRANCH  17  18
ATOM     18  C   LIG A   1      -5.198   2.806 127.599  0.00  0.00    +0.000 C 
BRANCH  18  19
ATOM     19  C   LIG A   1      -4.877   2.584 126.083  0.00  0.00    -0.000 C 
BRANCH  19  20
ATOM     20  C   LIG A   1      -5.414   3.611 125.013  0.00  0.00    -0.000 C 
BRANCH  20  21
ATOM     21  C   LIG A   1      -6.637   3.147 124.214  0.00  0.00    -0.000 C 
BRANCH  21  22
ATOM     22  C   LIG A   1      -8.068   3.161 124.834  0.00  0.00    -0.000 C 
BRANCH  22  23
ATOM     23  C   LIG A   1      -8.386   1.968 125.744  0.00  0.00    -0.000 C 
BRANCH  23  24
ATOM     24  C   LIG A   1      -8.418   0.699 124.946  0.00  0.00    +0.000 C 
BRANCH  24  25
ATOM     25  C   LIG A   1      -7.251  -0.237 124.837  0.00  0.00    +0.000 C 
BRANCH  25  26
ATOM     26  C   LIG A   1      -6.993  -0.559 123.375  0.00  0.00    +0.007 C 
BRANCH  26  27
ATOM     27  C   LIG A   1      -6.329  -1.839 122.872  0.00  0.00    +0.074 C 
BRANCH  27  28
ATOM     28  C   LIG A   1      -6.098  -3.113 123.698  0.00  0.00    +0.130 C 
ATOM     29  C   LIG A   1      -4.764  -3.776 123.860  0.00  0.00    +0.086 C 
ATOM     30  O   LIG A   1      -7.059  -3.616 124.294  0.00  0.00    -0.298 OA
ENDBRANCH  27  28
ENDBRANCH  26  27
ENDBRANCH  25  26
ENDBRANCH  24  25
ENDBRANCH  23  24
ENDBRANCH  22  23
ENDBRANCH  21  22
ENDBRANCH  20  21
ENDBRANCH  19  20
ENDBRANCH  18  19
ENDBRANCH  17  18
ENDBRANCH  16  17
ENDBRANCH   6  16
BRANCH   3  31
ATOM     31  O   LIG A   1     -10.601   5.464 130.867  0.00  0.00    -0.429 OA
BRANCH  31  32
ATOM     32  C   LIG A   1     -11.495   6.550 131.045  0.00  0.00    +0.511 C 
ATOM     33  O   LIG A   1     -12.387   6.575 131.802  0.00  0.00    -0.203 OA
BRANCH  32  34
ATOM     34  O   LIG A   1     -11.079   7.698 130.362  0.00  0.00    -0.428 OA
BRANCH  34  35
ATOM     35  C   LIG A   1     -11.818   7.995 129.115  0.00  0.00    +0.109 C 
ATOM     36  C   LIG A   1     -10.675   8.341 128.162  0.00  0.00    +0.055 C 
ATOM     37  C   LIG A   1     -12.594   6.770 128.554  0.00  0.00    +0.055 C 
ATOM     38  C   LIG A   1     -12.863   9.139 129.123  0.00  0.00    +0.055 C 
ENDBRANCH  34  35
ENDBRANCH  32  34
ENDBRANCH  31  32
ENDBRANCH   3  31
TORSDOF 18
ENDMDL
MODEL 9
REMARK VINA RESULT:      -7.3      3.076      6.152
REMARK  Name = NuBBE_172
REMARK  23 active torsions:
REMARK  status: ('A' for Active; 'I' for Inactive)
REMARK    1  A    between atoms: C_1  and  C_2
REMARK    2  A    between atoms: C_4  and  O_6
REMARK    3  A    between atoms: O_6  and  C_7
REMARK    4  A    between atoms: C_7  and  O_8
REMARK    5  A    between atoms: O_8  and  C_9
REMARK    6  A    between atoms: C_9  and  C_10
REMARK    7  A    between atoms: C_9  and  C_11
REMARK    8  A    between atoms: C_9  and  C_12
REMARK    9  A    between atoms: C_16  and  C_18
REMARK   10  A    between atoms: C_18  and  C_19
REMARK   11  A    between atoms: C_19  and  C_20
REMARK   12  A    between atoms: C_20  and  C_21
REMARK   13  A    between atoms: C_21  and  C_22
REMARK   14  A    between atoms: C_22  and  C_23
REMARK   15  A    between atoms: C_23  and  C_24
REMARK   16  A    between atoms: C_24  and  C_25
REMARK   17  A    between atoms: C_25  and  C_26
REMARK   18  A    between atoms: C_26  and  C_27
REMARK   19  A    between atoms: C_27  and  C_28
REMARK   20  A    between atoms: C_28  and  C_29
REMARK   21  A    between atoms: C_29  and  C_30
REMARK   22  A    between atoms: C_30  and  C_31
REMARK   23  A    between atoms: C_34  and  C_35
REMARK                            x       y       z     vdW  Elec       q    Type
REMARK                         _______ _______ _______ _____ _____    ______ ____
ROOT
ATOM      1  C   LIG A   1      -8.501   4.534 128.988  0.00  0.00    +0.032 C 
ATOM      2  C   LIG A   1      -7.642   3.294 128.694  0.00  0.00    +0.114 C 
ATOM      3  C   LIG A   1      -6.579   2.985 129.779  0.00  0.00    +0.200 C 
ATOM      4  C   LIG A   1      -6.492   1.409 129.856  0.00  0.00    +0.048 C 
ATOM      5  C   LIG A   1      -7.353   0.671 128.780  0.00  0.00    +0.026 C 
ATOM      6  C   LIG A   1      -7.043   1.196 127.338  0.00  0.00    +0.077 C 
ATOM      7  N   LIG A   1      -7.210   2.778 127.328  0.00  0.00    -0.288 N 
ATOM      8  C   LIG A   1      -7.328   3.740 126.236  0.00  0.00    +0.247 C 
ATOM      9  O   LIG A   1      -7.444   4.945 126.493  0.00  0.00    -0.270 OA
ENDROOT
BRANCH   8  10
ATOM     10  C   LIG A   1      -7.281   3.445 124.728  0.00  0.00    +0.037 A 
ATOM     11  C   LIG A   1      -6.122   3.691 124.025  0.00  0.00    +0.013 A 
ATOM     12  C   LIG A   1      -6.018   3.688 122.625  0.00  0.00    +0.001 A 
ATOM     13  C   LIG A   1      -7.107   3.352 121.847  0.00  0.00    +0.000 A 
ATOM     14  C   LIG A   1      -8.280   2.979 122.498  0.00  0.00    +0.001 A 
ATOM     15  C   LIG A   1      -8.386   3.072 123.921  0.00  0.00    +0.013 A 
ENDBRANCH   8  10
BRANCH   6  16
ATOM     16  C   LIG A   1      -5.655   0.444 127.005  0.00  0.00    +0.022 C 
BRANCH  16  17
ATOM     17  C   LIG A   1      -5.697  -0.476 125.690  0.00  0.00    +0.002 C 
BRANCH  17  18
ATOM     18  C   LIG A   1      -6.707  -0.104 124.543  0.00  0.00    +0.000 C 
BRANCH  18  19
ATOM     19  C   LIG A   1      -6.786  -1.194 123.423  0.00  0.00    -0.000 C 
BRANCH  19  20
ATOM     20  C   LIG A   1      -6.262  -2.652 123.715  0.00  0.00    -0.000 C 
BRANCH  20  21
ATOM     21  C   LIG A   1      -7.293  -3.611 124.320  0.00  0.00    -0.000 C 
BRANCH  21  22
ATOM     22  C   LIG A   1      -8.819  -3.292 124.289  0.00  0.00    -0.000 C 
BRANCH  22  23
ATOM     23  C   LIG A   1      -9.421  -2.896 125.643  0.00  0.00    -0.000 C 
BRANCH  23  24
ATOM     24  C   LIG A   1      -8.357  -2.876 126.700  0.00  0.00    +0.000 C 
BRANCH  24  25
ATOM     25  C   LIG A   1      -8.531  -3.487 128.058  0.00  0.00    +0.000 C 
BRANCH  25  26
ATOM     26  C   LIG A   1      -7.495  -2.913 129.009  0.00  0.00    +0.007 C 
BRANCH  26  27
ATOM     27  C   LIG A   1      -7.442  -3.198 130.509  0.00  0.00    +0.074 C 
BRANCH  27  28
ATOM     28  C   LIG A   1      -6.225  -3.740 131.275  0.00  0.00    +0.130 C 
ATOM     29  C   LIG A   1      -5.521  -5.017 130.932  0.00  0.00    +0.086 C 
ATOM     30  O   LIG A   1      -5.773  -3.075 132.216  0.00  0.00    -0.298 OA
ENDBRANCH  27  28
ENDBRANCH  26  27
ENDBRANCH  25  26
ENDBRANCH  24  25
ENDBRANCH  23  24
ENDBRANCH  22  23
ENDBRANCH  21  22
ENDBRANCH  20  21
ENDBRANCH  19  20
ENDBRANCH  18  19
ENDBRANCH  17  18
ENDBRANCH  16  17
ENDBRANCH   6  16
BRANCH   3  31
ATOM     31  O   LIG A   1      -5.289   3.699 129.590  0.00  0.00    -0.429 OA
BRANCH  31  32
ATOM     32  C   LIG A   1      -4.768   4.291 130.769  0.00  0.00    +0.511 C 
ATOM     33  O   LIG A   1      -4.762   3.796 131.829  0.00  0.00    -0.203 OA
BRANCH  32  34
ATOM     34  O   LIG A   1      -4.055   5.466 130.503  0.00  0.00    -0.428 OA
BRANCH  34  35
ATOM     35  C   LIG A   1      -4.677   6.711 131.004  0.00  0.00    +0.109 C 
ATOM     36  C   LIG A   1      -3.962   6.889 132.341  0.00  0.00    +0.055 C 
ATOM     37  C   LIG A   1      -4.388   7.946 130.104  0.00  0.00    +0.055 C 
ATOM     38  C   LIG A   1      -6.211   6.743 131.217  0.00  0.00    +0.055 C 
ENDBRANCH  34  35
ENDBRANCH  32  34
ENDBRANCH  31  32
ENDBRANCH   3  31
TORSDOF 18
ENDMDL
