MODEL 1
REMARK VINA RESULT:      -7.7      0.000      0.000
REMARK  Name = NuBBE_638
REMARK  25 active torsions:
REMARK  status: ('A' for Active; 'I' for Inactive)
REMARK    1  A    between atoms: O_1  and  C_2
REMARK    2  A    between atoms: C_6  and  O_8
REMARK    3  A    between atoms: O_8  and  C_9
REMARK    4  A    between atoms: C_9  and  C_10
REMARK    5  A    between atoms: C_13  and  O_15
REMARK    6  A    between atoms: O_15  and  C_16
REMARK    7  A    between atoms: C_16  and  C_17
REMARK    8  A    between atoms: C_20  and  O_22
REMARK    9  A    between atoms: O_22  and  C_23
REMARK   10  A    between atoms: C_23  and  C_24
REMARK   11  A    between atoms: C_26  and  O_28
REMARK   12  A    between atoms: O_28  and  C_29
REMARK   13  A    between atoms: C_29  and  C_30
REMARK   14  A    between atoms: C_31  and  C_32
REMARK   15  A    between atoms: C_33  and  C_34
REMARK   16  A    between atoms: C_34  and  C_35
REMARK   17  A    between atoms: C_35  and  C_36
REMARK   18  A    between atoms: C_36  and  C_37
REMARK   19  A    between atoms: C_37  and  C_38
REMARK   20  A    between atoms: C_40  and  C_42
REMARK   21  A    between atoms: C_43  and  C_44
REMARK   22  A    between atoms: C_43  and  C_45
REMARK   23  A    between atoms: C_45  and  C_46
REMARK   24  A    between atoms: C_46  and  C_47
REMARK   25  A    between atoms: C_47  and  C_48
REMARK                            x       y       z     vdW  Elec       q    Type
REMARK                         _______ _______ _______ _____ _____    ______ ____
ROOT
ATOM      1  C   LIG A   1      -7.154   4.630 131.797  0.00  0.00    +0.138 C 
ATOM      2  C   LIG A   1      -8.367   4.654 130.936  0.00  0.00    +0.010 C 
ATOM      3  C   LIG A   1      -8.254   4.483 129.603  0.00  0.00    +0.013 C 
ATOM      4  C   LIG A   1      -9.184   5.046 128.580  0.00  0.00    +0.343 C 
ATOM      5  O   LIG A   1      -8.583   4.808 127.332  0.00  0.00    -0.297 OA
ATOM      6  C   LIG A   1      -7.157   4.643 127.523  0.00  0.00    +0.328 C 
ATOM      7  C   LIG A   1      -7.095   3.731 128.854  0.00  0.00    +0.104 C 
ATOM      8  C   LIG A   1      -7.740   2.289 128.938  0.00  0.00    +0.234 C 
ATOM      9  C   LIG A   1      -6.927   1.190 129.715  0.00  0.00    +0.222 C 
ATOM     10  C   LIG A   1      -5.888   1.687 130.729  0.00  0.00    +0.037 C 
ATOM     11  C   LIG A   1      -5.281   0.552 131.556  0.00  0.00    +0.012 C 
ATOM     12  C   LIG A   1      -4.887   2.688 130.126  0.00  0.00    -0.022 C 
ATOM     13  C   LIG A   1      -3.856   3.143 131.225  0.00  0.00    +0.012 C 
ATOM     14  C   LIG A   1      -5.725   3.957 129.667  0.00  0.00    +0.018 C 
ATOM     15  C   LIG A   1      -5.961   4.957 130.878  0.00  0.00    +0.040 C 
ENDROOT
BRANCH   1  16
ATOM     16  O   LIG A   1      -7.303   5.680 132.752  0.00  0.00    -0.388 OA
ATOM     17  H   LIG A   1      -6.459   6.169 132.749  0.00  0.00    +0.210 HD
ENDBRANCH   1  16
BRANCH   9  18
ATOM     18  O   LIG A   1      -7.807   0.228 130.329  0.00  0.00    -0.454 OA
BRANCH  18  19
ATOM     19  C   LIG A   1      -7.619  -1.097 130.117  0.00  0.00    +0.332 C 
ATOM     20  O   LIG A   1      -7.845  -2.011 130.882  0.00  0.00    -0.246 OA
BRANCH  19  21
ATOM     21  C   LIG A   1      -7.216  -1.283 128.737  0.00  0.00    +0.091 C 
ATOM     22  C   LIG A   1      -7.908  -2.129 127.965  0.00  0.00    +0.007 C 
BRANCH  22  23
ATOM     23  C   LIG A   1      -7.520  -2.422 126.637  0.00  0.00    -0.004 C 
ATOM     24  C   LIG A   1      -6.288  -2.202 126.168  0.00  0.00    -0.027 C 
BRANCH  24  25
ATOM     25  C   LIG A   1      -5.936  -2.596 124.771  0.00  0.00    +0.027 C 
BRANCH  25  26
ATOM     26  C   LIG A   1      -6.357  -1.545 123.729  0.00  0.00    +0.004 C 
BRANCH  26  27
ATOM     27  C   LIG A   1      -7.393  -1.994 122.674  0.00  0.00    +0.000 C 
BRANCH  27  28
ATOM     28  C   LIG A   1      -8.854  -1.914 123.124  0.00  0.00    -0.003 C 
ATOM     29  C   LIG A   1      -9.494  -3.232 123.536  0.00  0.00    +0.004 C 
ENDBRANCH  27  28
ENDBRANCH  26  27
ENDBRANCH  25  26
ENDBRANCH  24  25
ENDBRANCH  22  23
ENDBRANCH  19  21
ENDBRANCH  18  19
ENDBRANCH   9  18
BRANCH   8  30
ATOM     30  O   LIG A   1      -8.734   1.824 127.943  0.00  0.00    -0.457 OA
BRANCH  30  31
ATOM     31  C   LIG A   1      -8.454   1.293 126.694  0.00  0.00    +0.304 C 
ATOM     32  C   LIG A   1      -9.635   0.693 126.022  0.00  0.00    +0.136 C 
ATOM     33  O   LIG A   1      -7.469   1.212 126.108  0.00  0.00    -0.251 OA
ENDBRANCH  30  31
ENDBRANCH   8  30
BRANCH  12  34
ATOM     34  C   LIG A   1      -3.929   2.052 129.061  0.00  0.00    +0.012 C 
BRANCH  34  35
ATOM     35  C   LIG A   1      -3.740   2.567 127.645  0.00  0.00    +0.035 C 
BRANCH  35  36
ATOM     36  C   LIG A   1      -2.650   3.484 127.418  0.00  0.00    -0.055 C 
ATOM     37  C   LIG A   1      -1.666   2.977 126.715  0.00  0.00    +0.012 C 
BRANCH  36  38
ATOM     38  C   LIG A   1      -2.810   4.924 127.639  0.00  0.00    -0.005 C 
ATOM     39  C   LIG A   1      -2.483   5.657 128.709  0.00  0.00    +0.008 C 
ENDBRANCH  36  38
ENDBRANCH  35  36
ENDBRANCH  34  35
ENDBRANCH  12  34
BRANCH   6  40
ATOM     40  O   LIG A   1      -6.619   4.359 126.190  0.00  0.00    -0.434 OA
BRANCH  40  41
ATOM     41  C   LIG A   1      -6.118   5.062 125.125  0.00  0.00    +0.306 C 
ATOM     42  C   LIG A   1      -5.161   4.119 124.245  0.00  0.00    +0.136 C 
ATOM     43  O   LIG A   1      -6.132   6.285 125.012  0.00  0.00    -0.251 OA
ENDBRANCH  40  41
ENDBRANCH   6  40
BRANCH   4  44
ATOM     44  O   LIG A   1      -9.367   6.440 128.818  0.00  0.00    -0.431 OA
BRANCH  44  45
ATOM     45  C   LIG A   1     -10.612   6.929 128.546  0.00  0.00    +0.306 C 
ATOM     46  C   LIG A   1     -10.505   8.354 128.128  0.00  0.00    +0.136 C 
ATOM     47  O   LIG A   1     -11.670   6.330 128.598  0.00  0.00    -0.251 OA
ENDBRANCH  44  45
ENDBRANCH   4  44
TORSDOF 19
ENDMDL
MODEL 2
REMARK VINA RESULT:      -7.4      2.166      5.471
REMARK  Name = NuBBE_638
REMARK  25 active torsions:
REMARK  status: ('A' for Active; 'I' for Inactive)
REMARK    1  A    between atoms: O_1  and  C_2
REMARK    2  A    between atoms: C_6  and  O_8
REMARK    3  A    between atoms: O_8  and  C_9
REMARK    4  A    between atoms: C_9  and  C_10
REMARK    5  A    between atoms: C_13  and  O_15
REMARK    6  A    between atoms: O_15  and  C_16
REMARK    7  A    between atoms: C_16  and  C_17
REMARK    8  A    between atoms: C_20  and  O_22
REMARK    9  A    between atoms: O_22  and  C_23
REMARK   10  A    between atoms: C_23  and  C_24
REMARK   11  A    between atoms: C_26  and  O_28
REMARK   12  A    between atoms: O_28  and  C_29
REMARK   13  A    between atoms: C_29  and  C_30
REMARK   14  A    between atoms: C_31  and  C_32
REMARK   15  A    between atoms: C_33  and  C_34
REMARK   16  A    between atoms: C_34  and  C_35
REMARK   17  A    between atoms: C_35  and  C_36
REMARK   18  A    between atoms: C_36  and  C_37
REMARK   19  A    between atoms: C_37  and  C_38
REMARK   20  A    between atoms: C_40  and  C_42
REMARK   21  A    between atoms: C_43  and  C_44
REMARK   22  A    between atoms: C_43  and  C_45
REMARK   23  A    between atoms: C_45  and  C_46
REMARK   24  A    between atoms: C_46  and  C_47
REMARK   25  A    between atoms: C_47  and  C_48
REMARK                            x       y       z     vdW  Elec       q    Type
REMARK                         _______ _______ _______ _____ _____    ______ ____
ROOT
ATOM      1  C   LIG A   1      -3.063   3.581 127.475  0.00  0.00    +0.138 C 
ATOM      2  C   LIG A   1      -3.138   3.603 128.961  0.00  0.00    +0.010 C 
ATOM      3  C   LIG A   1      -4.286   3.956 129.575  0.00  0.00    +0.013 C 
ATOM      4  C   LIG A   1      -4.382   4.593 130.922  0.00  0.00    +0.343 C 
ATOM      5  O   LIG A   1      -5.725   4.978 131.077  0.00  0.00    -0.297 OA
ATOM      6  C   LIG A   1      -6.325   5.123 129.767  0.00  0.00    +0.328 C 
ATOM      7  C   LIG A   1      -5.735   3.842 128.979  0.00  0.00    +0.104 C 
ATOM      8  C   LIG A   1      -5.998   2.353 129.444  0.00  0.00    +0.234 C 
ATOM      9  C   LIG A   1      -6.269   1.293 128.314  0.00  0.00    +0.222 C 
ATOM     10  C   LIG A   1      -5.767   1.640 126.906  0.00  0.00    +0.037 C 
ATOM     11  C   LIG A   1      -5.918   0.478 125.924  0.00  0.00    +0.012 C 
ATOM     12  C   LIG A   1      -6.262   3.008 126.409  0.00  0.00    -0.022 C 
ATOM     13  C   LIG A   1      -5.710   3.285 124.961  0.00  0.00    +0.012 C 
ATOM     14  C   LIG A   1      -5.661   4.101 127.393  0.00  0.00    +0.018 C 
ATOM     15  C   LIG A   1      -4.186   4.506 126.968  0.00  0.00    +0.040 C 
ENDROOT
BRANCH   1  16
ATOM     16  O   LIG A   1      -1.802   4.144 127.116  0.00  0.00    -0.388 OA
ATOM     17  H   LIG A   1      -1.788   4.173 126.141  0.00  0.00    +0.210 HD
ENDBRANCH   1  16
BRANCH   9  18
ATOM     18  O   LIG A   1      -5.806  -0.014 128.705  0.00  0.00    -0.454 OA
BRANCH  18  19
ATOM     19  C   LIG A   1      -6.680  -0.926 129.195  0.00  0.00    +0.332 C 
ATOM     20  O   LIG A   1      -6.829  -1.267 130.350  0.00  0.00    -0.246 OA
BRANCH  19  21
ATOM     21  C   LIG A   1      -7.539  -1.359 128.110  0.00  0.00    +0.091 C 
ATOM     22  C   LIG A   1      -7.701  -2.669 127.891  0.00  0.00    +0.007 C 
BRANCH  22  23
ATOM     23  C   LIG A   1      -8.456  -3.159 126.799  0.00  0.00    -0.004 C 
ATOM     24  C   LIG A   1      -8.523  -2.540 125.617  0.00  0.00    -0.027 C 
BRANCH  24  25
ATOM     25  C   LIG A   1      -9.291  -3.151 124.492  0.00  0.00    +0.027 C 
BRANCH  25  26
ATOM     26  C   LIG A   1      -8.770  -2.723 123.109  0.00  0.00    +0.004 C 
BRANCH  26  27
ATOM     27  C   LIG A   1      -7.653  -1.655 123.092  0.00  0.00    +0.000 C 
BRANCH  27  28
ATOM     28  C   LIG A   1      -6.293  -2.146 122.589  0.00  0.00    -0.003 C 
ATOM     29  C   LIG A   1      -5.373  -2.745 123.642  0.00  0.00    +0.004 C 
ENDBRANCH  27  28
ENDBRANCH  26  27
ENDBRANCH  25  26
ENDBRANCH  24  25
ENDBRANCH  22  23
ENDBRANCH  19  21
ENDBRANCH  18  19
ENDBRANCH   9  18
BRANCH   8  30
ATOM     30  O   LIG A   1      -6.494   2.039 130.804  0.00  0.00    -0.457 OA
BRANCH  30  31
ATOM     31  C   LIG A   1      -7.817   2.044 131.214  0.00  0.00    +0.304 C 
ATOM     32  C   LIG A   1      -8.036   1.399 132.534  0.00  0.00    +0.136 C 
ATOM     33  O   LIG A   1      -8.769   2.431 130.699  0.00  0.00    -0.251 OA
ENDBRANCH  30  31
ENDBRANCH   8  30
BRANCH  12  34
ATOM     34  C   LIG A   1      -7.809   3.061 126.155  0.00  0.00    +0.012 C 
BRANCH  34  35
ATOM     35  C   LIG A   1      -8.466   3.034 124.786  0.00  0.00    +0.035 C 
BRANCH  35  36
ATOM     36  C   LIG A   1      -9.091   1.798 124.380  0.00  0.00    -0.055 C 
ATOM     37  C   LIG A   1      -9.470   1.041 125.381  0.00  0.00    +0.012 C 
BRANCH  36  38
ATOM     38  C   LIG A   1      -9.569   1.604 123.008  0.00  0.00    -0.005 C 
ATOM     39  C   LIG A   1     -10.350   0.637 122.514  0.00  0.00    +0.008 C 
ENDBRANCH  36  38
ENDBRANCH  35  36
ENDBRANCH  34  35
ENDBRANCH  12  34
BRANCH   6  40
ATOM     40  O   LIG A   1      -7.722   5.482 130.020  0.00  0.00    -0.434 OA
BRANCH  40  41
ATOM     41  C   LIG A   1      -8.418   6.492 130.633  0.00  0.00    +0.306 C 
ATOM     42  C   LIG A   1      -8.995   5.985 132.043  0.00  0.00    +0.136 C 
ATOM     43  O   LIG A   1      -8.811   7.517 130.083  0.00  0.00    -0.251 OA
ENDBRANCH  40  41
ENDBRANCH   6  40
BRANCH   4  44
ATOM     44  O   LIG A   1      -3.503   5.714 130.983  0.00  0.00    -0.431 OA
BRANCH  44  45
ATOM     45  C   LIG A   1      -2.730   5.800 132.105  0.00  0.00    +0.306 C 
ATOM     46  C   LIG A   1      -2.299   4.436 132.517  0.00  0.00    +0.136 C 
ATOM     47  O   LIG A   1      -2.396   6.809 132.698  0.00  0.00    -0.251 OA
ENDBRANCH  44  45
ENDBRANCH   4  44
TORSDOF 19
ENDMDL
MODEL 3
REMARK VINA RESULT:      -7.3      1.783      3.238
REMARK  Name = NuBBE_638
REMARK  25 active torsions:
REMARK  status: ('A' for Active; 'I' for Inactive)
REMARK    1  A    between atoms: O_1  and  C_2
REMARK    2  A    between atoms: C_6  and  O_8
REMARK    3  A    between atoms: O_8  and  C_9
REMARK    4  A    between atoms: C_9  and  C_10
REMARK    5  A    between atoms: C_13  and  O_15
REMARK    6  A    between atoms: O_15  and  C_16
REMARK    7  A    between atoms: C_16  and  C_17
REMARK    8  A    between atoms: C_20  and  O_22
REMARK    9  A    between atoms: O_22  and  C_23
REMARK   10  A    between atoms: C_23  and  C_24
REMARK   11  A    between atoms: C_26  and  O_28
REMARK   12  A    between atoms: O_28  and  C_29
REMARK   13  A    between atoms: C_29  and  C_30
REMARK   14  A    between atoms: C_31  and  C_32
REMARK   15  A    between atoms: C_33  and  C_34
REMARK   16  A    between atoms: C_34  and  C_35
REMARK   17  A    between atoms: C_35  and  C_36
REMARK   18  A    between atoms: C_36  and  C_37
REMARK   19  A    between atoms: C_37  and  C_38
REMARK   20  A    between atoms: C_40  and  C_42
REMARK   21  A    between atoms: C_43  and  C_44
REMARK   22  A    between atoms: C_43  and  C_45
REMARK   23  A    between atoms: C_45  and  C_46
REMARK   24  A    between atoms: C_46  and  C_47
REMARK   25  A    between atoms: C_47  and  C_48
REMARK                            x       y       z     vdW  Elec       q    Type
REMARK                         _______ _______ _______ _____ _____    ______ ____
ROOT
ATOM      1  C   LIG A   1      -5.444   5.857 131.235  0.00  0.00    +0.138 C 
ATOM      2  C   LIG A   1      -6.930   5.917 131.267  0.00  0.00    +0.010 C 
ATOM      3  C   LIG A   1      -7.651   5.375 130.262  0.00  0.00    +0.013 C 
ATOM      4  C   LIG A   1      -9.002   5.836 129.826  0.00  0.00    +0.343 C 
ATOM      5  O   LIG A   1      -9.283   5.147 128.633  0.00  0.00    -0.297 OA
ATOM      6  C   LIG A   1      -8.036   4.729 128.029  0.00  0.00    +0.328 C 
ATOM      7  C   LIG A   1      -7.193   4.215 129.307  0.00  0.00    +0.104 C 
ATOM      8  C   LIG A   1      -7.677   3.027 130.232  0.00  0.00    +0.234 C 
ATOM      9  C   LIG A   1      -6.574   2.024 130.735  0.00  0.00    +0.222 C 
ATOM     10  C   LIG A   1      -5.126   2.532 130.736  0.00  0.00    +0.037 C 
ATOM     11  C   LIG A   1      -4.159   1.554 131.406  0.00  0.00    +0.012 C 
ATOM     12  C   LIG A   1      -4.681   3.090 129.374  0.00  0.00    -0.022 C 
ATOM     13  C   LIG A   1      -3.188   3.583 129.458  0.00  0.00    +0.012 C 
ATOM     14  C   LIG A   1      -5.608   4.343 129.065  0.00  0.00    +0.018 C 
ATOM     15  C   LIG A   1      -5.047   5.656 129.760  0.00  0.00    +0.040 C 
ENDROOT
BRANCH   1  16
ATOM     16  O   LIG A   1      -4.969   7.129 131.672  0.00  0.00    -0.388 OA
ATOM     17  H   LIG A   1      -5.646   7.474 132.285  0.00  0.00    +0.210 HD
ENDBRANCH   1  16
BRANCH   9  18
ATOM     18  O   LIG A   1      -6.916   1.479 132.024  0.00  0.00    -0.454 OA
BRANCH  18  19
ATOM     19  C   LIG A   1      -7.184   0.157 132.154  0.00  0.00    +0.332 C 
ATOM     20  O   LIG A   1      -7.128  -0.518 133.160  0.00  0.00    -0.246 OA
BRANCH  19  21
ATOM     21  C   LIG A   1      -7.699  -0.327 130.887  0.00  0.00    +0.091 C 
ATOM     22  C   LIG A   1      -7.768  -1.646 130.675  0.00  0.00    +0.007 C 
BRANCH  22  23
ATOM     23  C   LIG A   1      -8.179  -2.186 129.433  0.00  0.00    -0.004 C 
ATOM     24  C   LIG A   1      -8.408  -3.488 129.240  0.00  0.00    -0.027 C 
BRANCH  24  25
ATOM     25  C   LIG A   1      -8.900  -3.975 127.917  0.00  0.00    +0.027 C 
BRANCH  25  26
ATOM     26  C   LIG A   1      -8.266  -3.228 126.730  0.00  0.00    +0.004 C 
BRANCH  26  27
ATOM     27  C   LIG A   1      -9.227  -2.763 125.614  0.00  0.00    +0.000 C 
BRANCH  27  28
ATOM     28  C   LIG A   1      -8.678  -2.890 124.190  0.00  0.00    -0.003 C 
ATOM     29  C   LIG A   1      -9.689  -3.274 123.121  0.00  0.00    +0.004 C 
ENDBRANCH  27  28
ENDBRANCH  26  27
ENDBRANCH  25  26
ENDBRANCH  24  25
ENDBRANCH  22  23
ENDBRANCH  19  21
ENDBRANCH  18  19
ENDBRANCH   9  18
BRANCH   8  30
ATOM     30  O   LIG A   1      -9.077   2.543 130.208  0.00  0.00    -0.457 OA
BRANCH  30  31
ATOM     31  C   LIG A   1     -10.093   2.941 131.062  0.00  0.00    +0.304 C 
ATOM     32  C   LIG A   1      -9.733   2.854 132.500  0.00  0.00    +0.136 C 
ATOM     33  O   LIG A   1     -11.166   3.294 130.850  0.00  0.00    -0.251 OA
ENDBRANCH  30  31
ENDBRANCH   8  30
BRANCH  12  34
ATOM     34  C   LIG A   1      -4.573   1.998 128.254  0.00  0.00    +0.012 C 
BRANCH  34  35
ATOM     35  C   LIG A   1      -5.580   1.799 127.135  0.00  0.00    +0.035 C 
BRANCH  35  36
ATOM     36  C   LIG A   1      -6.244   0.519 127.066  0.00  0.00    -0.055 C 
ATOM     37  C   LIG A   1      -7.546   0.589 127.200  0.00  0.00    +0.012 C 
BRANCH  36  38
ATOM     38  C   LIG A   1      -5.559  -0.664 126.537  0.00  0.00    -0.005 C 
ATOM     39  C   LIG A   1      -5.568  -1.161 125.295  0.00  0.00    +0.008 C 
ENDBRANCH  36  38
ENDBRANCH  35  36
ENDBRANCH  34  35
ENDBRANCH  12  34
BRANCH   6  40
ATOM     40  O   LIG A   1      -8.419   3.990 126.824  0.00  0.00    -0.434 OA
BRANCH  40  41
ATOM     41  C   LIG A   1      -8.026   3.907 125.513  0.00  0.00    +0.306 C 
ATOM     42  C   LIG A   1      -6.754   4.853 125.259  0.00  0.00    +0.136 C 
ATOM     43  O   LIG A   1      -8.700   3.439 124.599  0.00  0.00    -0.251 OA
ENDBRANCH  40  41
ENDBRANCH   6  40
BRANCH   4  44
ATOM     44  O   LIG A   1      -8.983   7.247 129.626  0.00  0.00    -0.431 OA
BRANCH  44  45
ATOM     45  C   LIG A   1     -10.127   7.789 129.115  0.00  0.00    +0.306 C 
ATOM     46  C   LIG A   1     -11.268   7.485 130.022  0.00  0.00    +0.136 C 
ATOM     47  O   LIG A   1     -10.245   8.444 128.097  0.00  0.00    -0.251 OA
ENDBRANCH  44  45
ENDBRANCH   4  44
TORSDOF 19
ENDMDL
MODEL 4
REMARK VINA RESULT:      -7.3      1.886      2.666
REMARK  Name = NuBBE_638
REMARK  25 active torsions:
REMARK  status: ('A' for Active; 'I' for Inactive)
REMARK    1  A    between atoms: O_1  and  C_2
REMARK    2  A    between atoms: C_6  and  O_8
REMARK    3  A    between atoms: O_8  and  C_9
REMARK    4  A    between atoms: C_9  and  C_10
REMARK    5  A    between atoms: C_13  and  O_15
REMARK    6  A    between atoms: O_15  and  C_16
REMARK    7  A    between atoms: C_16  and  C_17
REMARK    8  A    between atoms: C_20  and  O_22
REMARK    9  A    between atoms: O_22  and  C_23
REMARK   10  A    between atoms: C_23  and  C_24
REMARK   11  A    between atoms: C_26  and  O_28
REMARK   12  A    between atoms: O_28  and  C_29
REMARK   13  A    between atoms: C_29  and  C_30
REMARK   14  A    between atoms: C_31  and  C_32
REMARK   15  A    between atoms: C_33  and  C_34
REMARK   16  A    between atoms: C_34  and  C_35
REMARK   17  A    between atoms: C_35  and  C_36
REMARK   18  A    between atoms: C_36  and  C_37
REMARK   19  A    between atoms: C_37  and  C_38
REMARK   20  A    between atoms: C_40  and  C_42
REMARK   21  A    between atoms: C_43  and  C_44
REMARK   22  A    between atoms: C_43  and  C_45
REMARK   23  A    between atoms: C_45  and  C_46
REMARK   24  A    between atoms: C_46  and  C_47
REMARK   25  A    between atoms: C_47  and  C_48
REMARK                            x       y       z     vdW  Elec       q    Type
REMARK                         _______ _______ _______ _____ _____    ______ ____
ROOT
ATOM      1  C   LIG A   1      -7.994   3.752 133.651  0.00  0.00    +0.138 C 
ATOM      2  C   LIG A   1      -9.080   3.271 132.755  0.00  0.00    +0.010 C 
ATOM      3  C   LIG A   1      -8.992   3.463 131.422  0.00  0.00    +0.013 C 
ATOM      4  C   LIG A   1     -10.152   3.606 130.495  0.00  0.00    +0.343 C 
ATOM      5  O   LIG A   1      -9.616   3.997 129.255  0.00  0.00    -0.297 OA
ATOM      6  C   LIG A   1      -8.327   4.617 129.478  0.00  0.00    +0.328 C 
ATOM      7  C   LIG A   1      -7.671   3.649 130.592  0.00  0.00    +0.104 C 
ATOM      8  C   LIG A   1      -7.405   2.110 130.341  0.00  0.00    +0.234 C 
ATOM      9  C   LIG A   1      -6.064   1.518 130.912  0.00  0.00    +0.222 C 
ATOM     10  C   LIG A   1      -5.399   2.293 132.057  0.00  0.00    +0.037 C 
ATOM     11  C   LIG A   1      -4.207   1.548 132.659  0.00  0.00    +0.012 C 
ATOM     12  C   LIG A   1      -5.166   3.777 131.727  0.00  0.00    -0.022 C 
ATOM     13  C   LIG A   1      -4.478   4.497 132.946  0.00  0.00    +0.012 C 
ATOM     14  C   LIG A   1      -6.598   4.429 131.501  0.00  0.00    +0.018 C 
ATOM     15  C   LIG A   1      -7.254   4.862 132.881  0.00  0.00    +0.040 C 
ENDROOT
BRANCH   1  16
ATOM     16  O   LIG A   1      -8.626   4.326 134.795  0.00  0.00    -0.388 OA
ATOM     17  H   LIG A   1      -8.213   5.200 134.921  0.00  0.00    +0.210 HD
ENDBRANCH   1  16
BRANCH   9  18
ATOM     18  O   LIG A   1      -6.217   0.130 131.267  0.00  0.00    -0.454 OA
BRANCH  18  19
ATOM     19  C   LIG A   1      -7.272  -0.266 132.019  0.00  0.00    +0.332 C 
ATOM     20  O   LIG A   1      -7.594   0.134 133.118  0.00  0.00    -0.246 OA
BRANCH  19  21
ATOM     21  C   LIG A   1      -8.072  -1.182 131.229  0.00  0.00    +0.091 C 
ATOM     22  C   LIG A   1      -7.461  -2.006 130.370  0.00  0.00    +0.007 C 
BRANCH  22  23
ATOM     23  C   LIG A   1      -8.185  -2.863 129.508  0.00  0.00    -0.004 C 
ATOM     24  C   LIG A   1      -8.093  -2.811 128.176  0.00  0.00    -0.027 C 
BRANCH  24  25
ATOM     25  C   LIG A   1      -8.840  -3.791 127.333  0.00  0.00    +0.027 C 
BRANCH  25  26
ATOM     26  C   LIG A   1      -9.097  -3.279 125.905  0.00  0.00    +0.004 C 
BRANCH  26  27
ATOM     27  C   LIG A   1      -8.098  -3.735 124.818  0.00  0.00    +0.000 C 
BRANCH  27  28
ATOM     28  C   LIG A   1      -6.925  -2.782 124.573  0.00  0.00    -0.003 C 
ATOM     29  C   LIG A   1      -5.623  -3.432 124.128  0.00  0.00    +0.004 C 
ENDBRANCH  27  28
ENDBRANCH  26  27
ENDBRANCH  25  26
ENDBRANCH  24  25
ENDBRANCH  22  23
ENDBRANCH  19  21
ENDBRANCH  18  19
ENDBRANCH   9  18
BRANCH   8  30
ATOM     30  O   LIG A   1      -8.048   1.382 129.223  0.00  0.00    -0.457 OA
BRANCH  30  31
ATOM     31  C   LIG A   1      -7.429   0.964 128.056  0.00  0.00    +0.304 C 
ATOM     32  C   LIG A   1      -8.377   0.671 126.950  0.00  0.00    +0.136 C 
ATOM     33  O   LIG A   1      -6.322   0.778 127.809  0.00  0.00    -0.251 OA
ENDBRANCH  30  31
ENDBRANCH   8  30
BRANCH  12  34
ATOM     34  C   LIG A   1      -4.100   4.009 130.601  0.00  0.00    +0.012 C 
BRANCH  34  35
ATOM     35  C   LIG A   1      -2.843   4.848 130.754  0.00  0.00    +0.035 C 
BRANCH  35  36
ATOM     36  C   LIG A   1      -2.816   6.122 130.078  0.00  0.00    -0.055 C 
ATOM     37  C   LIG A   1      -2.386   6.058 128.841  0.00  0.00    +0.012 C 
BRANCH  36  38
ATOM     38  C   LIG A   1      -3.539   7.281 130.611  0.00  0.00    -0.005 C 
ATOM     39  C   LIG A   1      -4.828   7.610 130.473  0.00  0.00    +0.008 C 
ENDBRANCH  36  38
ENDBRANCH  35  36
ENDBRANCH  34  35
ENDBRANCH  12  34
BRANCH   6  40
ATOM     40  O   LIG A   1      -7.824   4.954 128.144  0.00  0.00    -0.434 OA
BRANCH  40  41
ATOM     41  C   LIG A   1      -7.594   4.316 126.953  0.00  0.00    +0.306 C 
ATOM     42  C   LIG A   1      -6.014   4.178 126.699  0.00  0.00    +0.136 C 
ATOM     43  O   LIG A   1      -8.427   4.145 126.067  0.00  0.00    -0.251 OA
ENDBRANCH  40  41
ENDBRANCH   6  40
BRANCH   4  44
ATOM     44  O   LIG A   1     -11.056   4.582 131.008  0.00  0.00    -0.431 OA
BRANCH  44  45
ATOM     45  C   LIG A   1     -11.366   5.606 130.160  0.00  0.00    +0.306 C 
ATOM     46  C   LIG A   1     -10.700   6.854 130.625  0.00  0.00    +0.136 C 
ATOM     47  O   LIG A   1     -12.053   5.555 129.158  0.00  0.00    -0.251 OA
ENDBRANCH  44  45
ENDBRANCH   4  44
TORSDOF 19
ENDMDL
MODEL 5
REMARK VINA RESULT:      -7.3      2.002      2.972
REMARK  Name = NuBBE_638
REMARK  25 active torsions:
REMARK  status: ('A' for Active; 'I' for Inactive)
REMARK    1  A    between atoms: O_1  and  C_2
REMARK    2  A    between atoms: C_6  and  O_8
REMARK    3  A    between atoms: O_8  and  C_9
REMARK    4  A    between atoms: C_9  and  C_10
REMARK    5  A    between atoms: C_13  and  O_15
REMARK    6  A    between atoms: O_15  and  C_16
REMARK    7  A    between atoms: C_16  and  C_17
REMARK    8  A    between atoms: C_20  and  O_22
REMARK    9  A    between atoms: O_22  and  C_23
REMARK   10  A    between atoms: C_23  and  C_24
REMARK   11  A    between atoms: C_26  and  O_28
REMARK   12  A    between atoms: O_28  and  C_29
REMARK   13  A    between atoms: C_29  and  C_30
REMARK   14  A    between atoms: C_31  and  C_32
REMARK   15  A    between atoms: C_33  and  C_34
REMARK   16  A    between atoms: C_34  and  C_35
REMARK   17  A    between atoms: C_35  and  C_36
REMARK   18  A    between atoms: C_36  and  C_37
REMARK   19  A    between atoms: C_37  and  C_38
REMARK   20  A    between atoms: C_40  and  C_42
REMARK   21  A    between atoms: C_43  and  C_44
REMARK   22  A    between atoms: C_43  and  C_45
REMARK   23  A    between atoms: C_45  and  C_46
REMARK   24  A    between atoms: C_46  and  C_47
REMARK   25  A    between atoms: C_47  and  C_48
REMARK                            x       y       z     vdW  Elec       q    Type
REMARK                         _______ _______ _______ _____ _____    ______ ____
ROOT
ATOM      1  C   LIG A   1      -8.364   5.384 133.294  0.00  0.00    +0.138 C 
ATOM      2  C   LIG A   1      -9.033   5.113 131.994  0.00  0.00    +0.010 C 
ATOM      3  C   LIG A   1      -8.294   4.885 130.888  0.00  0.00    +0.013 C 
ATOM      4  C   LIG A   1      -8.720   5.187 129.490  0.00  0.00    +0.343 C 
ATOM      5  O   LIG A   1      -7.584   4.996 128.684  0.00  0.00    -0.297 OA
ATOM      6  C   LIG A   1      -6.400   5.130 129.507  0.00  0.00    +0.328 C 
ATOM      7  C   LIG A   1      -6.823   4.334 130.847  0.00  0.00    +0.104 C 
ATOM      8  C   LIG A   1      -7.212   2.800 130.846  0.00  0.00    +0.234 C 
ATOM      9  C   LIG A   1      -6.695   1.935 132.055  0.00  0.00    +0.222 C 
ATOM     10  C   LIG A   1      -6.327   2.692 133.338  0.00  0.00    +0.037 C 
ATOM     11  C   LIG A   1      -6.009   1.754 134.504  0.00  0.00    +0.012 C 
ATOM     12  C   LIG A   1      -5.323   3.832 133.100  0.00  0.00    -0.022 C 
ATOM     13  C   LIG A   1      -4.994   4.550 134.461  0.00  0.00    +0.012 C 
ATOM     14  C   LIG A   1      -6.033   4.878 132.138  0.00  0.00    +0.018 C 
ATOM     15  C   LIG A   1      -6.946   5.884 132.960  0.00  0.00    +0.040 C 
ENDROOT
BRANCH   1  16
ATOM     16  O   LIG A   1      -9.091   6.441 133.920  0.00  0.00    -0.388 OA
ATOM     17  H   LIG A   1      -9.310   7.074 133.212  0.00  0.00    +0.210 HD
ENDBRANCH   1  16
BRANCH   9  18
ATOM     18  O   LIG A   1      -7.605   0.858 132.350  0.00  0.00    -0.454 OA
BRANCH  18  19
ATOM     19  C   LIG A   1      -7.214  -0.428 132.177  0.00  0.00    +0.332 C 
ATOM     20  O   LIG A   1      -6.483  -1.084 132.889  0.00  0.00    -0.246 OA
BRANCH  19  21
ATOM     21  C   LIG A   1      -7.934  -0.972 131.042  0.00  0.00    +0.091 C 
ATOM     22  C   LIG A   1      -7.321  -1.854 130.245  0.00  0.00    +0.007 C 
BRANCH  22  23
ATOM     23  C   LIG A   1      -7.933  -2.359 129.074  0.00  0.00    -0.004 C 
ATOM     24  C   LIG A   1      -8.428  -3.597 128.981  0.00  0.00    -0.027 C 
BRANCH  24  25
ATOM     25  C   LIG A   1      -9.116  -4.039 127.732  0.00  0.00    +0.027 C 
BRANCH  25  26
ATOM     26  C   LIG A   1      -8.544  -3.374 126.467  0.00  0.00    +0.004 C 
BRANCH  26  27
ATOM     27  C   LIG A   1      -9.570  -2.879 125.423  0.00  0.00    +0.000 C 
BRANCH  27  28
ATOM     28  C   LIG A   1      -9.259  -3.266 123.974  0.00  0.00    -0.003 C 
ATOM     29  C   LIG A   1      -8.113  -2.510 123.318  0.00  0.00    +0.004 C 
ENDBRANCH  27  28
ENDBRANCH  26  27
ENDBRANCH  25  26
ENDBRANCH  24  25
ENDBRANCH  22  23
ENDBRANCH  19  21
ENDBRANCH  18  19
ENDBRANCH   9  18
BRANCH   8  30
ATOM     30  O   LIG A   1      -7.554   2.085 129.595  0.00  0.00    -0.457 OA
BRANCH  30  31
ATOM     31  C   LIG A   1      -6.654   1.557 128.683  0.00  0.00    +0.304 C 
ATOM     32  C   LIG A   1      -7.301   0.934 127.499  0.00  0.00    +0.136 C 
ATOM     33  O   LIG A   1      -5.507   1.492 128.700  0.00  0.00    -0.251 OA
ENDBRANCH  30  31
ENDBRANCH   8  30
BRANCH  12  34
ATOM     34  C   LIG A   1      -3.899   3.334 132.673  0.00  0.00    +0.012 C 
BRANCH  34  35
ATOM     35  C   LIG A   1      -3.052   3.960 131.579  0.00  0.00    +0.035 C 
BRANCH  35  36
ATOM     36  C   LIG A   1      -2.361   5.185 131.900  0.00  0.00    -0.055 C 
ATOM     37  C   LIG A   1      -1.261   5.010 132.590  0.00  0.00    +0.012 C 
BRANCH  36  38
ATOM     38  C   LIG A   1      -2.677   6.439 131.208  0.00  0.00    -0.005 C 
ATOM     39  C   LIG A   1      -3.421   7.470 131.623  0.00  0.00    +0.008 C 
ENDBRANCH  36  38
ENDBRANCH  35  36
ENDBRANCH  34  35
ENDBRANCH  12  34
BRANCH   6  40
ATOM     40  O   LIG A   1      -5.273   4.877 128.606  0.00  0.00    -0.434 OA
BRANCH  40  41
ATOM     41  C   LIG A   1      -4.242   5.584 128.043  0.00  0.00    +0.306 C 
ATOM     42  C   LIG A   1      -2.947   4.646 127.896  0.00  0.00    +0.136 C 
ATOM     43  O   LIG A   1      -4.192   6.807 127.944  0.00  0.00    -0.251 OA
ENDBRANCH  40  41
ENDBRANCH   6  40
BRANCH   4  44
ATOM     44  O   LIG A   1      -9.197   6.528 129.415  0.00  0.00    -0.431 OA
BRANCH  44  45
ATOM     45  C   LIG A   1     -10.434   6.688 128.860  0.00  0.00    +0.306 C 
ATOM     46  C   LIG A   1     -11.383   7.179 129.897  0.00  0.00    +0.136 C 
ATOM     47  O   LIG A   1     -10.756   6.498 127.703  0.00  0.00    -0.251 OA
ENDBRANCH  44  45
ENDBRANCH   4  44
TORSDOF 19
ENDMDL
MODEL 6
REMARK VINA RESULT:      -7.2      1.896      3.720
REMARK  Name = NuBBE_638
REMARK  25 active torsions:
REMARK  status: ('A' for Active; 'I' for Inactive)
REMARK    1  A    between atoms: O_1  and  C_2
REMARK    2  A    between atoms: C_6  and  O_8
REMARK    3  A    between atoms: O_8  and  C_9
REMARK    4  A    between atoms: C_9  and  C_10
REMARK    5  A    between atoms: C_13  and  O_15
REMARK    6  A    between atoms: O_15  and  C_16
REMARK    7  A    between atoms: C_16  and  C_17
REMARK    8  A    between atoms: C_20  and  O_22
REMARK    9  A    between atoms: O_22  and  C_23
REMARK   10  A    between atoms: C_23  and  C_24
REMARK   11  A    between atoms: C_26  and  O_28
REMARK   12  A    between atoms: O_28  and  C_29
REMARK   13  A    between atoms: C_29  and  C_30
REMARK   14  A    between atoms: C_31  and  C_32
REMARK   15  A    between atoms: C_33  and  C_34
REMARK   16  A    between atoms: C_34  and  C_35
REMARK   17  A    between atoms: C_35  and  C_36
REMARK   18  A    between atoms: C_36  and  C_37
REMARK   19  A    between atoms: C_37  and  C_38
REMARK   20  A    between atoms: C_40  and  C_42
REMARK   21  A    between atoms: C_43  and  C_44
REMARK   22  A    between atoms: C_43  and  C_45
REMARK   23  A    between atoms: C_45  and  C_46
REMARK   24  A    between atoms: C_46  and  C_47
REMARK   25  A    between atoms: C_47  and  C_48
REMARK                            x       y       z     vdW  Elec       q    Type
REMARK                         _______ _______ _______ _____ _____    ______ ____
ROOT
ATOM      1  C   LIG A   1      -8.918   2.023 131.210  0.00  0.00    +0.138 C 
ATOM      2  C   LIG A   1      -9.492   3.170 130.456  0.00  0.00    +0.010 C 
ATOM      3  C   LIG A   1      -8.726   4.243 130.170  0.00  0.00    +0.013 C 
ATOM      4  C   LIG A   1      -9.229   5.637 129.991  0.00  0.00    +0.343 C 
ATOM      5  O   LIG A   1      -8.090   6.458 129.921  0.00  0.00    -0.297 OA
ATOM      6  C   LIG A   1      -6.985   5.781 130.568  0.00  0.00    +0.328 C 
ATOM      7  C   LIG A   1      -7.160   4.264 130.043  0.00  0.00    +0.104 C 
ATOM      8  C   LIG A   1      -7.105   3.874 128.511  0.00  0.00    +0.234 C 
ATOM      9  C   LIG A   1      -6.358   2.539 128.144  0.00  0.00    +0.222 C 
ATOM     10  C   LIG A   1      -6.208   1.501 129.264  0.00  0.00    +0.037 C 
ATOM     11  C   LIG A   1      -5.633   0.175 128.764  0.00  0.00    +0.012 C 
ATOM     12  C   LIG A   1      -5.565   2.075 130.537  0.00  0.00    -0.022 C 
ATOM     13  C   LIG A   1      -5.441   0.949 131.630  0.00  0.00    +0.012 C 
ATOM     14  C   LIG A   1      -6.546   3.200 131.082  0.00  0.00    +0.018 C 
ATOM     15  C   LIG A   1      -7.698   2.571 131.975  0.00  0.00    +0.040 C 
ENDROOT
BRANCH   1  16
ATOM     16  O   LIG A   1      -9.907   1.610 132.152  0.00  0.00    -0.388 OA
ATOM     17  H   LIG A   1      -9.435   1.466 132.993  0.00  0.00    +0.210 HD
ENDBRANCH   1  16
BRANCH   9  18
ATOM     18  O   LIG A   1      -6.928   1.931 126.968  0.00  0.00    -0.454 OA
BRANCH  18  19
ATOM     19  C   LIG A   1      -6.161   1.721 125.872  0.00  0.00    +0.332 C 
ATOM     20  O   LIG A   1      -5.101   2.242 125.595  0.00  0.00    -0.246 OA
BRANCH  19  21
ATOM     21  C   LIG A   1      -6.748   0.637 125.109  0.00  0.00    +0.091 C 
ATOM     22  C   LIG A   1      -7.637   0.922 124.151  0.00  0.00    +0.007 C 
BRANCH  22  23
ATOM     23  C   LIG A   1      -8.312  -0.089 123.427  0.00  0.00    -0.004 C 
ATOM     24  C   LIG A   1      -7.794  -1.301 123.205  0.00  0.00    -0.027 C 
BRANCH  24  25
ATOM     25  C   LIG A   1      -8.593  -2.337 122.486  0.00  0.00    +0.027 C 
BRANCH  25  26
ATOM     26  C   LIG A   1      -9.372  -3.261 123.439  0.00  0.00    +0.004 C 
BRANCH  26  27
ATOM     27  C   LIG A   1      -8.682  -3.616 124.774  0.00  0.00    +0.000 C 
BRANCH  27  28
ATOM     28  C   LIG A   1      -9.327  -3.006 126.021  0.00  0.00    -0.003 C 
ATOM     29  C   LIG A   1      -8.767  -3.477 127.356  0.00  0.00    +0.004 C 
ENDBRANCH  27  28
ENDBRANCH  26  27
ENDBRANCH  25  26
ENDBRANCH  24  25
ENDBRANCH  22  23
ENDBRANCH  19  21
ENDBRANCH  18  19
ENDBRANCH   9  18
BRANCH   8  30
ATOM     30  O   LIG A   1      -7.241   4.893 127.444  0.00  0.00    -0.457 OA
BRANCH  30  31
ATOM     31  C   LIG A   1      -8.331   5.056 126.605  0.00  0.00    +0.304 C 
ATOM     32  C   LIG A   1      -8.208   4.325 125.317  0.00  0.00    +0.136 C 
ATOM     33  O   LIG A   1      -9.290   5.679 126.719  0.00  0.00    -0.251 OA
ENDBRANCH  30  31
ENDBRANCH   8  30
BRANCH  12  34
ATOM     34  C   LIG A   1      -4.061   2.479 130.352  0.00  0.00    +0.012 C 
BRANCH  34  35
ATOM     35  C   LIG A   1      -3.567   3.890 130.086  0.00  0.00    +0.035 C 
BRANCH  35  36
ATOM     36  C   LIG A   1      -3.057   4.171 128.765  0.00  0.00    -0.055 C 
ATOM     37  C   LIG A   1      -2.646   5.406 128.607  0.00  0.00    +0.012 C 
BRANCH  36  38
ATOM     38  C   LIG A   1      -2.706   3.089 127.840  0.00  0.00    -0.005 C 
ATOM     39  C   LIG A   1      -1.829   3.092 126.830  0.00  0.00    +0.008 C 
ENDBRANCH  36  38
ENDBRANCH  35  36
ENDBRANCH  34  35
ENDBRANCH  12  34
BRANCH   6  40
ATOM     40  O   LIG A   1      -5.839   6.679 130.414  0.00  0.00    -0.434 OA
BRANCH  40  41
ATOM     41  C   LIG A   1      -4.723   7.036 131.126  0.00  0.00    +0.306 C 
ATOM     42  C   LIG A   1      -4.762   6.361 132.583  0.00  0.00    +0.136 C 
ATOM     43  O   LIG A   1      -3.963   7.957 130.841  0.00  0.00    -0.251 OA
ENDBRANCH  40  41
ENDBRANCH   6  40
BRANCH   4  44
ATOM     44  O   LIG A   1     -10.063   5.988 131.093  0.00  0.00    -0.431 OA
BRANCH  44  45
ATOM     45  C   LIG A   1     -11.354   6.306 130.782  0.00  0.00    +0.306 C 
ATOM     46  C   LIG A   1     -11.467   6.545 129.317  0.00  0.00    +0.136 C 
ATOM     47  O   LIG A   1     -12.302   6.372 131.541  0.00  0.00    -0.251 OA
ENDBRANCH  44  45
ENDBRANCH   4  44
TORSDOF 19
ENDMDL
MODEL 7
REMARK VINA RESULT:      -7.2      2.200      4.847
REMARK  Name = NuBBE_638
REMARK  25 active torsions:
REMARK  status: ('A' for Active; 'I' for Inactive)
REMARK    1  A    between atoms: O_1  and  C_2
REMARK    2  A    between atoms: C_6  and  O_8
REMARK    3  A    between atoms: O_8  and  C_9
REMARK    4  A    between atoms: C_9  and  C_10
REMARK    5  A    between atoms: C_13  and  O_15
REMARK    6  A    between atoms: O_15  and  C_16
REMARK    7  A    between atoms: C_16  and  C_17
REMARK    8  A    between atoms: C_20  and  O_22
REMARK    9  A    between atoms: O_22  and  C_23
REMARK   10  A    between atoms: C_23  and  C_24
REMARK   11  A    between atoms: C_26  and  O_28
REMARK   12  A    between atoms: O_28  and  C_29
REMARK   13  A    between atoms: C_29  and  C_30
REMARK   14  A    between atoms: C_31  and  C_32
REMARK   15  A    between atoms: C_33  and  C_34
REMARK   16  A    between atoms: C_34  and  C_35
REMARK   17  A    between atoms: C_35  and  C_36
REMARK   18  A    between atoms: C_36  and  C_37
REMARK   19  A    between atoms: C_37  and  C_38
REMARK   20  A    between atoms: C_40  and  C_42
REMARK   21  A    between atoms: C_43  and  C_44
REMARK   22  A    between atoms: C_43  and  C_45
REMARK   23  A    between atoms: C_45  and  C_46
REMARK   24  A    between atoms: C_46  and  C_47
REMARK   25  A    between atoms: C_47  and  C_48
REMARK                            x       y       z     vdW  Elec       q    Type
REMARK                         _______ _______ _______ _____ _____    ______ ____
ROOT
ATOM      1  C   LIG A   1      -3.287   3.061 127.937  0.00  0.00    +0.138 C 
ATOM      2  C   LIG A   1      -3.646   3.881 129.124  0.00  0.00    +0.010 C 
ATOM      3  C   LIG A   1      -4.940   4.168 129.383  0.00  0.00    +0.013 C 
ATOM      4  C   LIG A   1      -5.426   5.385 130.097  0.00  0.00    +0.343 C 
ATOM      5  O   LIG A   1      -6.825   5.386 129.959  0.00  0.00    -0.297 OA
ATOM      6  C   LIG A   1      -7.181   4.599 128.796  0.00  0.00    +0.328 C 
ATOM      7  C   LIG A   1      -6.189   3.332 128.926  0.00  0.00    +0.104 C 
ATOM      8  C   LIG A   1      -6.206   2.352 130.168  0.00  0.00    +0.234 C 
ATOM      9  C   LIG A   1      -6.020   0.819 129.866  0.00  0.00    +0.222 C 
ATOM     10  C   LIG A   1      -5.347   0.453 128.537  0.00  0.00    +0.037 C 
ATOM     11  C   LIG A   1      -5.052  -1.043 128.419  0.00  0.00    +0.012 C 
ATOM     12  C   LIG A   1      -6.023   1.103 127.319  0.00  0.00    -0.022 C 
ATOM     13  C   LIG A   1      -5.278   0.673 126.000  0.00  0.00    +0.012 C 
ATOM     14  C   LIG A   1      -5.872   2.675 127.492  0.00  0.00    +0.018 C 
ATOM     15  C   LIG A   1      -4.466   3.179 126.952  0.00  0.00    +0.040 C 
ENDROOT
BRANCH   1  16
ATOM     16  O   LIG A   1      -2.134   3.663 127.351  0.00  0.00    -0.388 OA
ATOM     17  H   LIG A   1      -1.466   3.714 128.061  0.00  0.00    +0.210 HD
ENDBRANCH   1  16
BRANCH   9  18
ATOM     18  O   LIG A   1      -5.368   0.149 130.962  0.00  0.00    -0.454 OA
BRANCH  18  19
ATOM     19  C   LIG A   1      -6.097  -0.564 131.854  0.00  0.00    +0.332 C 
ATOM     20  O   LIG A   1      -6.016  -0.545 133.064  0.00  0.00    -0.246 OA
BRANCH  19  21
ATOM     21  C   LIG A   1      -7.123  -1.286 131.126  0.00  0.00    +0.091 C 
ATOM     22  C   LIG A   1      -6.916  -2.570 130.812  0.00  0.00    +0.007 C 
BRANCH  22  23
ATOM     23  C   LIG A   1      -7.836  -3.309 130.031  0.00  0.00    -0.004 C 
ATOM     24  C   LIG A   1      -8.110  -3.022 128.755  0.00  0.00    -0.027 C 
BRANCH  24  25
ATOM     25  C   LIG A   1      -9.046  -3.887 127.976  0.00  0.00    +0.027 C 
BRANCH  25  26
ATOM     26  C   LIG A   1      -9.247  -3.400 126.530  0.00  0.00    +0.004 C 
BRANCH  26  27
ATOM     27  C   LIG A   1      -7.976  -2.970 125.763  0.00  0.00    +0.000 C 
BRANCH  27  28
ATOM     28  C   LIG A   1      -8.182  -2.688 124.273  0.00  0.00    -0.003 C 
ATOM     29  C   LIG A   1      -9.449  -3.263 123.657  0.00  0.00    +0.004 C 
ENDBRANCH  27  28
ENDBRANCH  26  27
ENDBRANCH  25  26
ENDBRANCH  24  25
ENDBRANCH  22  23
ENDBRANCH  19  21
ENDBRANCH  18  19
ENDBRANCH   9  18
BRANCH   8  30
ATOM     30  O   LIG A   1      -6.871   2.720 131.439  0.00  0.00    -0.457 OA
BRANCH  30  31
ATOM     31  C   LIG A   1      -8.189   2.458 131.778  0.00  0.00    +0.304 C 
ATOM     32  C   LIG A   1      -8.525   2.809 133.182  0.00  0.00    +0.136 C 
ATOM     33  O   LIG A   1      -9.049   1.992 131.175  0.00  0.00    -0.251 OA
ENDBRANCH  30  31
ENDBRANCH   8  30
BRANCH  12  34
ATOM     34  C   LIG A   1      -7.467   0.559 127.038  0.00  0.00    +0.012 C 
BRANCH  34  35
ATOM     35  C   LIG A   1      -8.666   1.420 126.682  0.00  0.00    +0.035 C 
BRANCH  35  36
ATOM     36  C   LIG A   1      -8.956   1.597 125.280  0.00  0.00    -0.055 C 
ATOM     37  C   LIG A   1      -9.742   0.674 124.780  0.00  0.00    +0.012 C 
BRANCH  36  38
ATOM     38  C   LIG A   1      -8.694   2.871 124.605  0.00  0.00    -0.005 C 
ATOM     39  C   LIG A   1      -7.529   3.497 124.404  0.00  0.00    +0.008 C 
ENDBRANCH  36  38
ENDBRANCH  35  36
ENDBRANCH  34  35
ENDBRANCH  12  34
BRANCH   6  40
ATOM     40  O   LIG A   1      -8.645   4.618 128.751  0.00  0.00    -0.434 OA
BRANCH  40  41
ATOM     41  C   LIG A   1      -9.658   5.512 128.987  0.00  0.00    +0.306 C 
ATOM     42  C   LIG A   1     -10.587   4.985 130.186  0.00  0.00    +0.136 C 
ATOM     43  O   LIG A   1     -10.002   6.411 128.225  0.00  0.00    -0.251 OA
ENDBRANCH  40  41
ENDBRANCH   6  40
BRANCH   4  44
ATOM     44  O   LIG A   1      -4.839   6.546 129.514  0.00  0.00    -0.431 OA
BRANCH  44  45
ATOM     45  C   LIG A   1      -4.323   7.454 130.394  0.00  0.00    +0.306 C 
ATOM     46  C   LIG A   1      -4.364   6.890 131.771  0.00  0.00    +0.136 C 
ATOM     47  O   LIG A   1      -3.867   8.553 130.140  0.00  0.00    -0.251 OA
ENDBRANCH  44  45
ENDBRANCH   4  44
TORSDOF 19
ENDMDL
MODEL 8
REMARK VINA RESULT:      -7.2      2.211      3.267
REMARK  Name = NuBBE_638
REMARK  25 active torsions:
REMARK  status: ('A' for Active; 'I' for Inactive)
REMARK    1  A    between atoms: O_1  and  C_2
REMARK    2  A    between atoms: C_6  and  O_8
REMARK    3  A    between atoms: O_8  and  C_9
REMARK    4  A    between atoms: C_9  and  C_10
REMARK    5  A    between atoms: C_13  and  O_15
REMARK    6  A    between atoms: O_15  and  C_16
REMARK    7  A    between atoms: C_16  and  C_17
REMARK    8  A    between atoms: C_20  and  O_22
REMARK    9  A    between atoms: O_22  and  C_23
REMARK   10  A    between atoms: C_23  and  C_24
REMARK   11  A    between atoms: C_26  and  O_28
REMARK   12  A    between atoms: O_28  and  C_29
REMARK   13  A    between atoms: C_29  and  C_30
REMARK   14  A    between atoms: C_31  and  C_32
REMARK   15  A    between atoms: C_33  and  C_34
REMARK   16  A    between atoms: C_34  and  C_35
REMARK   17  A    between atoms: C_35  and  C_36
REMARK   18  A    between atoms: C_36  and  C_37
REMARK   19  A    between atoms: C_37  and  C_38
REMARK   20  A    between atoms: C_40  and  C_42
REMARK   21  A    between atoms: C_43  and  C_44
REMARK   22  A    between atoms: C_43  and  C_45
REMARK   23  A    between atoms: C_45  and  C_46
REMARK   24  A    between atoms: C_46  and  C_47
REMARK   25  A    between atoms: C_47  and  C_48
REMARK                            x       y       z     vdW  Elec       q    Type
REMARK                         _______ _______ _______ _____ _____    ______ ____
ROOT
ATOM      1  C   LIG A   1      -9.001   3.347 133.288  0.00  0.00    +0.138 C 
ATOM      2  C   LIG A   1      -9.304   3.700 131.876  0.00  0.00    +0.010 C 
ATOM      3  C   LIG A   1      -8.315   4.106 131.052  0.00  0.00    +0.013 C 
ATOM      4  C   LIG A   1      -8.487   5.023 129.887  0.00  0.00    +0.343 C 
ATOM      5  O   LIG A   1      -7.190   5.344 129.448  0.00  0.00    -0.297 OA
ATOM      6  C   LIG A   1      -6.264   5.150 130.544  0.00  0.00    +0.328 C 
ATOM      7  C   LIG A   1      -6.788   3.766 131.191  0.00  0.00    +0.104 C 
ATOM      8  C   LIG A   1      -6.838   2.406 130.384  0.00  0.00    +0.234 C 
ATOM      9  C   LIG A   1      -6.422   1.103 131.161  0.00  0.00    +0.222 C 
ATOM     10  C   LIG A   1      -6.503   1.156 132.692  0.00  0.00    +0.037 C 
ATOM     11  C   LIG A   1      -6.251  -0.206 133.342  0.00  0.00    +0.012 C 
ATOM     12  C   LIG A   1      -5.732   2.341 133.297  0.00  0.00    -0.022 C 
ATOM     13  C   LIG A   1      -5.859   2.319 134.866  0.00  0.00    +0.012 C 
ATOM     14  C   LIG A   1      -6.423   3.665 132.755  0.00  0.00    +0.018 C 
ATOM     15  C   LIG A   1      -7.680   4.058 133.641  0.00  0.00    +0.040 C 
ENDROOT
BRANCH   1  16
ATOM     16  O   LIG A   1     -10.049   3.896 134.086  0.00  0.00    -0.388 OA
ATOM     17  H   LIG A   1     -10.319   4.723 133.645  0.00  0.00    +0.210 HD
ENDBRANCH   1  16
BRANCH   9  18
ATOM     18  O   LIG A   1      -7.127  -0.049 130.659  0.00  0.00    -0.454 OA
BRANCH  18  19
ATOM     19  C   LIG A   1      -6.474  -0.977 129.920  0.00  0.00    +0.332 C 
ATOM     20  O   LIG A   1      -5.404  -1.498 130.157  0.00  0.00    -0.246 OA
BRANCH  19  21
ATOM     21  C   LIG A   1      -7.337  -1.374 128.824  0.00  0.00    +0.091 C 
ATOM     22  C   LIG A   1      -7.733  -2.649 128.736  0.00  0.00    +0.007 C 
BRANCH  22  23
ATOM     23  C   LIG A   1      -8.504  -3.122 127.649  0.00  0.00    -0.004 C 
ATOM     24  C   LIG A   1      -8.571  -2.496 126.470  0.00  0.00    -0.027 C 
BRANCH  24  25
ATOM     25  C   LIG A   1      -9.358  -3.090 125.349  0.00  0.00    +0.027 C 
BRANCH  25  26
ATOM     26  C   LIG A   1      -8.491  -3.424 124.122  0.00  0.00    +0.004 C 
BRANCH  26  27
ATOM     27  C   LIG A   1      -6.990  -3.675 124.384  0.00  0.00    +0.000 C 
BRANCH  27  28
ATOM     28  C   LIG A   1      -6.037  -2.694 123.695  0.00  0.00    -0.003 C 
ATOM     29  C   LIG A   1      -6.667  -1.780 122.654  0.00  0.00    +0.004 C 
ENDBRANCH  27  28
ENDBRANCH  26  27
ENDBRANCH  25  26
ENDBRANCH  24  25
ENDBRANCH  22  23
ENDBRANCH  19  21
ENDBRANCH  18  19
ENDBRANCH   9  18
BRANCH   8  30
ATOM     30  O   LIG A   1      -6.748   2.376 128.906  0.00  0.00    -0.457 OA
BRANCH  30  31
ATOM     31  C   LIG A   1      -7.775   2.062 128.031  0.00  0.00    +0.304 C 
ATOM     32  C   LIG A   1      -7.305   1.660 126.679  0.00  0.00    +0.136 C 
ATOM     33  O   LIG A   1      -8.916   2.088 128.160  0.00  0.00    -0.251 OA
ENDBRANCH  30  31
ENDBRANCH   8  30
BRANCH  12  34
ATOM     34  C   LIG A   1      -4.177   2.234 133.121  0.00  0.00    +0.012 C 
BRANCH  34  35
ATOM     35  C   LIG A   1      -3.324   3.203 132.323  0.00  0.00    +0.035 C 
BRANCH  35  36
ATOM     36  C   LIG A   1      -2.647   4.244 133.058  0.00  0.00    -0.055 C 
ATOM     37  C   LIG A   1      -1.486   4.581 132.553  0.00  0.00    +0.012 C 
BRANCH  36  38
ATOM     38  C   LIG A   1      -3.360   5.070 134.037  0.00  0.00    -0.005 C 
ATOM     39  C   LIG A   1      -4.073   6.185 133.843  0.00  0.00    +0.008 C 
ENDBRANCH  36  38
ENDBRANCH  35  36
ENDBRANCH  34  35
ENDBRANCH  12  34
BRANCH   6  40
ATOM     40  O   LIG A   1      -4.944   5.465 129.994  0.00  0.00    -0.434 OA
BRANCH  40  41
ATOM     41  C   LIG A   1      -4.332   6.511 129.355  0.00  0.00    +0.306 C 
ATOM     42  C   LIG A   1      -4.104   7.725 130.381  0.00  0.00    +0.136 C 
ATOM     43  O   LIG A   1      -4.242   6.645 128.137  0.00  0.00    -0.251 OA
ENDBRANCH  40  41
ENDBRANCH   6  40
BRANCH   4  44
ATOM     44  O   LIG A   1      -9.207   6.184 130.295  0.00  0.00    -0.431 OA
BRANCH  44  45
ATOM     45  C   LIG A   1     -10.319   6.480 129.561  0.00  0.00    +0.306 C 
ATOM     46  C   LIG A   1     -10.252   7.897 129.108  0.00  0.00    +0.136 C 
ATOM     47  O   LIG A   1     -11.236   5.734 129.273  0.00  0.00    -0.251 OA
ENDBRANCH  44  45
ENDBRANCH   4  44
TORSDOF 19
ENDMDL
MODEL 9
REMARK VINA RESULT:      -6.9      2.253      3.306
REMARK  Name = NuBBE_638
REMARK  25 active torsions:
REMARK  status: ('A' for Active; 'I' for Inactive)
REMARK    1  A    between atoms: O_1  and  C_2
REMARK    2  A    between atoms: C_6  and  O_8
REMARK    3  A    between atoms: O_8  and  C_9
REMARK    4  A    between atoms: C_9  and  C_10
REMARK    5  A    between atoms: C_13  and  O_15
REMARK    6  A    between atoms: O_15  and  C_16
REMARK    7  A    between atoms: C_16  and  C_17
REMARK    8  A    between atoms: C_20  and  O_22
REMARK    9  A    between atoms: O_22  and  C_23
REMARK   10  A    between atoms: C_23  and  C_24
REMARK   11  A    between atoms: C_26  and  O_28
REMARK   12  A    between atoms: O_28  and  C_29
REMARK   13  A    between atoms: C_29  and  C_30
REMARK   14  A    between atoms: C_31  and  C_32
REMARK   15  A    between atoms: C_33  and  C_34
REMARK   16  A    between atoms: C_34  and  C_35
REMARK   17  A    between atoms: C_35  and  C_36
REMARK   18  A    between atoms: C_36  and  C_37
REMARK   19  A    between atoms: C_37  and  C_38
REMARK   20  A    between atoms: C_40  and  C_42
REMARK   21  A    between atoms: C_43  and  C_44
REMARK   22  A    between atoms: C_43  and  C_45
REMARK   23  A    between atoms: C_45  and  C_46
REMARK   24  A    between atoms: C_46  and  C_47
REMARK   25  A    between atoms: C_47  and  C_48
REMARK                            x       y       z     vdW  Elec       q    Type
REMARK                         _______ _______ _______ _____ _____    ______ ____
ROOT
ATOM      1  C   LIG A   1      -7.740   3.814 133.916  0.00  0.00    +0.138 C 
ATOM      2  C   LIG A   1      -8.478   3.637 132.636  0.00  0.00    +0.010 C 
ATOM      3  C   LIG A   1      -7.907   4.003 131.470  0.00  0.00    +0.013 C 
ATOM      4  C   LIG A   1      -8.645   4.453 130.254  0.00  0.00    +0.343 C 
ATOM      5  O   LIG A   1      -7.671   4.933 129.360  0.00  0.00    -0.297 OA
ATOM      6  C   LIG A   1      -6.493   5.311 130.112  0.00  0.00    +0.328 C 
ATOM      7  C   LIG A   1      -6.366   4.104 131.178  0.00  0.00    +0.104 C 
ATOM      8  C   LIG A   1      -6.172   2.595 130.745  0.00  0.00    +0.234 C 
ATOM      9  C   LIG A   1      -5.180   1.731 131.609  0.00  0.00    +0.222 C 
ATOM     10  C   LIG A   1      -4.896   2.223 133.034  0.00  0.00    +0.037 C 
ATOM     11  C   LIG A   1      -4.068   1.226 133.846  0.00  0.00    +0.012 C 
ATOM     12  C   LIG A   1      -4.425   3.686 133.085  0.00  0.00    -0.022 C 
ATOM     13  C   LIG A   1      -4.150   4.109 134.576  0.00  0.00    +0.012 C 
ATOM     14  C   LIG A   1      -5.617   4.573 132.522  0.00  0.00    +0.018 C 
ATOM     15  C   LIG A   1      -6.676   4.898 133.660  0.00  0.00    +0.040 C 
ENDROOT
BRANCH   1  16
ATOM     16  O   LIG A   1      -8.680   4.305 134.871  0.00  0.00    -0.388 OA
ATOM     17  H   LIG A   1      -9.558   4.016 134.559  0.00  0.00    +0.210 HD
ENDBRANCH   1  16
BRANCH   9  18
ATOM     18  O   LIG A   1      -5.577   0.346 131.625  0.00  0.00    -0.454 OA
BRANCH  18  19
ATOM     19  C   LIG A   1      -4.880  -0.569 130.909  0.00  0.00    +0.332 C 
ATOM     20  O   LIG A   1      -3.679  -0.741 130.890  0.00  0.00    -0.246 OA
BRANCH  19  21
ATOM     21  C   LIG A   1      -5.828  -1.440 130.241  0.00  0.00    +0.091 C 
ATOM     22  C   LIG A   1      -5.662  -1.707 128.941  0.00  0.00    +0.007 C 
BRANCH  22  23
ATOM     23  C   LIG A   1      -6.595  -2.478 128.207  0.00  0.00    -0.004 C 
ATOM     24  C   LIG A   1      -7.811  -2.788 128.666  0.00  0.00    -0.027 C 
BRANCH  24  25
ATOM     25  C   LIG A   1      -8.764  -3.553 127.809  0.00  0.00    +0.027 C 
BRANCH  25  26
ATOM     26  C   LIG A   1      -8.865  -2.992 126.379  0.00  0.00    +0.004 C 
BRANCH  26  27
ATOM     27  C   LIG A   1      -8.312  -3.885 125.246  0.00  0.00    +0.000 C 
BRANCH  27  28
ATOM     28  C   LIG A   1      -7.574  -3.138 124.132  0.00  0.00    -0.003 C 
ATOM     29  C   LIG A   1      -6.056  -3.131 124.231  0.00  0.00    +0.004 C 
ENDBRANCH  27  28
ENDBRANCH  26  27
ENDBRANCH  25  26
ENDBRANCH  24  25
ENDBRANCH  22  23
ENDBRANCH  19  21
ENDBRANCH  18  19
ENDBRANCH   9  18
BRANCH   8  30
ATOM     30  O   LIG A   1      -6.442   2.142 129.361  0.00  0.00    -0.457 OA
BRANCH  30  31
ATOM     31  C   LIG A   1      -7.539   1.406 128.941  0.00  0.00    +0.304 C 
ATOM     32  C   LIG A   1      -7.677   1.332 127.464  0.00  0.00    +0.136 C 
ATOM     33  O   LIG A   1      -8.368   0.876 129.534  0.00  0.00    -0.251 OA
ENDBRANCH  30  31
ENDBRANCH   8  30
BRANCH  12  34
ATOM     34  C   LIG A   1      -3.013   3.913 132.443  0.00  0.00    +0.012 C 
BRANCH  34  35
ATOM     35  C   LIG A   1      -1.962   4.873 132.972  0.00  0.00    +0.035 C 
BRANCH  35  36
ATOM     36  C   LIG A   1      -1.881   6.171 132.346  0.00  0.00    -0.055 C 
ATOM     37  C   LIG A   1      -0.905   6.282 131.478  0.00  0.00    +0.012 C 
BRANCH  36  38
ATOM     38  C   LIG A   1      -2.998   7.118 132.414  0.00  0.00    -0.005 C 
ATOM     39  C   LIG A   1      -3.779   7.577 131.430  0.00  0.00    +0.008 C 
ENDBRANCH  36  38
ENDBRANCH  35  36
ENDBRANCH  34  35
ENDBRANCH  12  34
BRANCH   6  40
ATOM     40  O   LIG A   1      -5.522   5.756 129.110  0.00  0.00    -0.434 OA
BRANCH  40  41
ATOM     41  C   LIG A   1      -4.701   5.192 128.168  0.00  0.00    +0.306 C 
ATOM     42  C   LIG A   1      -3.411   4.550 128.877  0.00  0.00    +0.136 C 
ATOM     43  O   LIG A   1      -4.761   5.398 126.959  0.00  0.00    -0.251 OA
ENDBRANCH  40  41
ENDBRANCH   6  40
BRANCH   4  44
ATOM     44  O   LIG A   1      -9.577   5.471 130.610  0.00  0.00    -0.431 OA
BRANCH  44  45
ATOM     45  C   LIG A   1     -10.894   5.160 130.427  0.00  0.00    +0.306 C 
ATOM     46  C   LIG A   1     -11.729   6.367 130.676  0.00  0.00    +0.136 C 
ATOM     47  O   LIG A   1     -11.361   4.088 130.089  0.00  0.00    -0.251 OA
ENDBRANCH  44  45
ENDBRANCH   4  44
TORSDOF 19
ENDMDL
