MODEL 1
REMARK VINA RESULT:      -7.0      0.000      0.000
REMARK  Name = NuBBE_1277
REMARK  5 active torsions:
REMARK  status: ('A' for Active; 'I' for Inactive)
REMARK    1  A    between atoms: C_10  and  O_11
REMARK    2  A    between atoms: C_12  and  C_13
REMARK    3  A    between atoms: C_13  and  O_14
REMARK    4  A    between atoms: C_13  and  C_15
REMARK    5  A    between atoms: C_13  and  C_16
REMARK                            x       y       z     vdW  Elec       q    Type
REMARK                         _______ _______ _______ _____ _____    ______ ____
ROOT
ATOM      1  O   LIG A   1      -4.344   5.389 133.654  0.00  0.00    -0.245 OA
ATOM      2  C   LIG A   1      -5.539   5.548 133.437  0.00  0.00    +0.337 A 
ATOM      3  C   LIG A   1      -6.538   5.227 134.473  0.00  0.00    +0.092 A 
ATOM      4  C   LIG A   1      -7.852   5.376 134.279  0.00  0.00    +0.018 A 
ATOM      5  O   LIG A   1      -6.021   6.031 132.230  0.00  0.00    -0.422 OA
ATOM      6  C   LIG A   1      -7.404   6.193 132.002  0.00  0.00    +0.142 A 
ATOM      7  C   LIG A   1      -8.337   5.874 133.002  0.00  0.00    +0.018 A 
ATOM      8  C   LIG A   1      -9.702   6.045 132.749  0.00  0.00    +0.021 A 
ATOM      9  C   LIG A   1     -10.084   6.515 131.499  0.00  0.00    +0.027 A 
ATOM     10  C   LIG A   1     -11.441   6.831 130.981  0.00  0.00    +0.191 C 
ATOM     11  C   LIG A   1     -11.105   7.012 129.482  0.00  0.00    +0.237 C 
ATOM     12  O   LIG A   1      -9.678   7.291 129.361  0.00  0.00    -0.483 OA
ATOM     13  C   LIG A   1      -9.141   6.824 130.530  0.00  0.00    +0.130 A 
ATOM     14  C   LIG A   1      -7.789   6.681 130.754  0.00  0.00    +0.093 A 
ENDROOT
BRANCH  11  15
ATOM     15  C   LIG A   1     -11.928   8.113 128.758  0.00  0.00    +0.100 C 
ATOM     16  C   LIG A   1     -12.927   7.508 127.768  0.00  0.00    +0.045 C 
ATOM     17  C   LIG A   1     -12.650   9.055 129.728  0.00  0.00    +0.045 C 
BRANCH  15  18
ATOM     18  O   LIG A   1     -11.041   8.950 127.991  0.00  0.00    -0.385 OA
ATOM     19  H   LIG A   1     -11.146   8.731 127.049  0.00  0.00    +0.210 HD
ENDBRANCH  15  18
ENDBRANCH  11  15
BRANCH  10  20
ATOM     20  O   LIG A   1     -12.360   5.767 131.182  0.00  0.00    -0.383 OA
ATOM     21  H   LIG A   1     -12.666   5.802 132.104  0.00  0.00    +0.210 HD
ENDBRANCH  10  20
TORSDOF 3
ENDMDL
MODEL 2
REMARK VINA RESULT:      -7.0      2.202      6.372
REMARK  Name = NuBBE_1277
REMARK  5 active torsions:
REMARK  status: ('A' for Active; 'I' for Inactive)
REMARK    1  A    between atoms: C_10  and  O_11
REMARK    2  A    between atoms: C_12  and  C_13
REMARK    3  A    between atoms: C_13  and  O_14
REMARK    4  A    between atoms: C_13  and  C_15
REMARK    5  A    between atoms: C_13  and  C_16
REMARK                            x       y       z     vdW  Elec       q    Type
REMARK                         _______ _______ _______ _____ _____    ______ ____
ROOT
ATOM      1  O   LIG A   1     -10.992   7.982 125.507  0.00  0.00    -0.245 OA
ATOM      2  C   LIG A   1     -10.964   7.729 126.705  0.00  0.00    +0.337 A 
ATOM      3  C   LIG A   1     -11.900   8.389 127.634  0.00  0.00    +0.092 A 
ATOM      4  C   LIG A   1     -11.901   8.150 128.949  0.00  0.00    +0.018 A 
ATOM      5  O   LIG A   1     -10.069   6.824 127.256  0.00  0.00    -0.422 OA
ATOM      6  C   LIG A   1     -10.050   6.559 128.641  0.00  0.00    +0.142 A 
ATOM      7  C   LIG A   1     -10.947   7.205 129.507  0.00  0.00    +0.018 A 
ATOM      8  C   LIG A   1     -10.906   6.923 130.876  0.00  0.00    +0.021 A 
ATOM      9  C   LIG A   1      -9.957   6.016 131.332  0.00  0.00    +0.027 A 
ATOM     10  C   LIG A   1      -9.724   5.502 132.706  0.00  0.00    +0.191 C 
ATOM     11  C   LIG A   1      -8.370   4.786 132.483  0.00  0.00    +0.237 C 
ATOM     12  O   LIG A   1      -8.224   4.513 131.057  0.00  0.00    -0.483 OA
ATOM     13  C   LIG A   1      -9.084   5.391 130.453  0.00  0.00    +0.130 A 
ATOM     14  C   LIG A   1      -9.110   5.636 129.098  0.00  0.00    +0.093 A 
ENDROOT
BRANCH  11  15
ATOM     15  C   LIG A   1      -8.182   3.478 133.299  0.00  0.00    +0.100 C 
ATOM     16  C   LIG A   1      -9.257   2.442 132.958  0.00  0.00    +0.045 C 
ATOM     17  C   LIG A   1      -6.787   2.866 133.135  0.00  0.00    +0.045 C 
BRANCH  15  18
ATOM     18  O   LIG A   1      -8.318   3.765 134.705  0.00  0.00    -0.385 OA
ATOM     19  H   LIG A   1      -7.565   3.370 135.176  0.00  0.00    +0.210 HD
ENDBRANCH  15  18
ENDBRANCH  11  15
BRANCH  10  20
ATOM     20  O   LIG A   1      -9.607   6.544 133.663  0.00  0.00    -0.383 OA
ATOM     21  H   LIG A   1      -8.707   6.517 134.031  0.00  0.00    +0.210 HD
ENDBRANCH  10  20
TORSDOF 3
ENDMDL
MODEL 3
REMARK VINA RESULT:      -6.8      1.833      6.683
REMARK  Name = NuBBE_1277
REMARK  5 active torsions:
REMARK  status: ('A' for Active; 'I' for Inactive)
REMARK    1  A    between atoms: C_10  and  O_11
REMARK    2  A    between atoms: C_12  and  C_13
REMARK    3  A    between atoms: C_13  and  O_14
REMARK    4  A    between atoms: C_13  and  C_15
REMARK    5  A    between atoms: C_13  and  C_16
REMARK                            x       y       z     vdW  Elec       q    Type
REMARK                         _______ _______ _______ _____ _____    ______ ____
ROOT
ATOM      1  O   LIG A   1     -13.699   7.198 127.316  0.00  0.00    -0.245 OA
ATOM      2  C   LIG A   1     -12.672   7.223 127.983  0.00  0.00    +0.337 A 
ATOM      3  C   LIG A   1     -11.662   8.275 127.766  0.00  0.00    +0.092 A 
ATOM      4  C   LIG A   1     -10.524   8.338 128.464  0.00  0.00    +0.018 A 
ATOM      5  O   LIG A   1     -12.397   6.284 128.965  0.00  0.00    -0.422 OA
ATOM      6  C   LIG A   1     -11.201   6.329 129.711  0.00  0.00    +0.142 A 
ATOM      7  C   LIG A   1     -10.251   7.337 129.482  0.00  0.00    +0.018 A 
ATOM      8  C   LIG A   1      -9.074   7.358 130.237  0.00  0.00    +0.021 A 
ATOM      9  C   LIG A   1      -8.883   6.358 131.183  0.00  0.00    +0.027 A 
ATOM     10  C   LIG A   1      -7.765   6.166 132.143  0.00  0.00    +0.191 C 
ATOM     11  C   LIG A   1      -8.099   4.739 132.640  0.00  0.00    +0.237 C 
ATOM     12  O   LIG A   1      -9.509   4.476 132.368  0.00  0.00    -0.483 OA
ATOM     13  C   LIG A   1      -9.839   5.374 131.390  0.00  0.00    +0.130 A 
ATOM     14  C   LIG A   1     -11.015   5.337 130.673  0.00  0.00    +0.093 A 
ENDROOT
BRANCH  11  15
ATOM     15  C   LIG A   1      -7.786   4.481 134.139  0.00  0.00    +0.100 C 
ATOM     16  C   LIG A   1      -6.896   3.249 134.324  0.00  0.00    +0.045 C 
ATOM     17  C   LIG A   1      -7.162   5.694 134.837  0.00  0.00    +0.045 C 
BRANCH  15  18
ATOM     18  O   LIG A   1      -9.012   4.214 134.847  0.00  0.00    -0.385 OA
ATOM     19  H   LIG A   1      -8.824   3.590 135.568  0.00  0.00    +0.210 HD
ENDBRANCH  15  18
ENDBRANCH  11  15
BRANCH  10  20
ATOM     20  O   LIG A   1      -6.494   6.210 131.512  0.00  0.00    -0.383 OA
ATOM     21  H   LIG A   1      -5.990   6.948 131.898  0.00  0.00    +0.210 HD
ENDBRANCH  10  20
TORSDOF 3
ENDMDL
MODEL 4
REMARK VINA RESULT:      -6.7      9.674     10.001
REMARK  Name = NuBBE_1277
REMARK  5 active torsions:
REMARK  status: ('A' for Active; 'I' for Inactive)
REMARK    1  A    between atoms: C_10  and  O_11
REMARK    2  A    between atoms: C_12  and  C_13
REMARK    3  A    between atoms: C_13  and  O_14
REMARK    4  A    between atoms: C_13  and  C_15
REMARK    5  A    between atoms: C_13  and  C_16
REMARK                            x       y       z     vdW  Elec       q    Type
REMARK                         _______ _______ _______ _____ _____    ______ ____
ROOT
ATOM      1  O   LIG A   1      -3.345  -3.553 130.628  0.00  0.00    -0.245 OA
ATOM      2  C   LIG A   1      -4.404  -3.386 130.034  0.00  0.00    +0.337 A 
ATOM      3  C   LIG A   1      -5.665  -3.911 130.587  0.00  0.00    +0.092 A 
ATOM      4  C   LIG A   1      -6.841  -3.760 129.972  0.00  0.00    +0.018 A 
ATOM      5  O   LIG A   1      -4.484  -2.706 128.828  0.00  0.00    -0.422 OA
ATOM      6  C   LIG A   1      -5.714  -2.538 128.159  0.00  0.00    +0.142 A 
ATOM      7  C   LIG A   1      -6.902  -3.053 128.703  0.00  0.00    +0.018 A 
ATOM      8  C   LIG A   1      -8.108  -2.872 128.018  0.00  0.00    +0.021 A 
ATOM      9  C   LIG A   1      -8.079  -2.195 126.805  0.00  0.00    +0.027 A 
ATOM     10  C   LIG A   1      -9.199  -1.823 125.902  0.00  0.00    +0.191 C 
ATOM     11  C   LIG A   1      -8.388  -1.368 124.665  0.00  0.00    +0.237 C 
ATOM     12  O   LIG A   1      -7.034  -1.039 125.099  0.00  0.00    -0.483 OA
ATOM     13  C   LIG A   1      -6.891  -1.695 126.291  0.00  0.00    +0.130 A 
ATOM     14  C   LIG A   1      -5.690  -1.844 126.950  0.00  0.00    +0.093 A 
ENDROOT
BRANCH  11  15
ATOM     15  C   LIG A   1      -9.005  -0.175 123.885  0.00  0.00    +0.100 C 
ATOM     16  C   LIG A   1      -7.958   0.902 123.585  0.00  0.00    +0.045 C 
ATOM     17  C   LIG A   1      -9.706  -0.606 122.592  0.00  0.00    +0.045 C 
BRANCH  15  18
ATOM     18  O   LIG A   1     -10.023   0.451 124.689  0.00  0.00    -0.385 OA
ATOM     19  H   LIG A   1     -10.061  -0.002 125.549  0.00  0.00    +0.210 HD
ENDBRANCH  15  18
ENDBRANCH  11  15
BRANCH  10  20
ATOM     20  O   LIG A   1     -10.037  -2.928 125.594  0.00  0.00    -0.383 OA
ATOM     21  H   LIG A   1     -10.583  -2.688 124.826  0.00  0.00    +0.210 HD
ENDBRANCH  10  20
TORSDOF 3
ENDMDL
MODEL 5
REMARK VINA RESULT:      -6.5      8.901     10.266
REMARK  Name = NuBBE_1277
REMARK  5 active torsions:
REMARK  status: ('A' for Active; 'I' for Inactive)
REMARK    1  A    between atoms: C_10  and  O_11
REMARK    2  A    between atoms: C_12  and  C_13
REMARK    3  A    between atoms: C_13  and  O_14
REMARK    4  A    between atoms: C_13  and  C_15
REMARK    5  A    between atoms: C_13  and  C_16
REMARK                            x       y       z     vdW  Elec       q    Type
REMARK                         _______ _______ _______ _____ _____    ______ ____
ROOT
ATOM      1  O   LIG A   1      -8.603   6.151 125.832  0.00  0.00    -0.245 OA
ATOM      2  C   LIG A   1      -8.166   5.029 125.602  0.00  0.00    +0.337 A 
ATOM      3  C   LIG A   1      -6.715   4.797 125.494  0.00  0.00    +0.092 A 
ATOM      4  C   LIG A   1      -6.194   3.593 125.237  0.00  0.00    +0.018 A 
ATOM      5  O   LIG A   1      -8.992   3.928 125.430  0.00  0.00    -0.422 OA
ATOM      6  C   LIG A   1      -8.464   2.649 125.154  0.00  0.00    +0.142 A 
ATOM      7  C   LIG A   1      -7.078   2.454 125.051  0.00  0.00    +0.018 A 
ATOM      8  C   LIG A   1      -6.582   1.175 124.776  0.00  0.00    +0.021 A 
ATOM      9  C   LIG A   1      -7.494   0.141 124.600  0.00  0.00    +0.027 A 
ATOM     10  C   LIG A   1      -7.249  -1.303 124.350  0.00  0.00    +0.191 C 
ATOM     11  C   LIG A   1      -8.688  -1.745 123.990  0.00  0.00    +0.237 C 
ATOM     12  O   LIG A   1      -9.620  -0.760 124.527  0.00  0.00    -0.483 OA
ATOM     13  C   LIG A   1      -8.859   0.363 124.710  0.00  0.00    +0.130 A 
ATOM     14  C   LIG A   1      -9.377   1.607 124.994  0.00  0.00    +0.093 A 
ENDROOT
BRANCH  11  15
ATOM     15  C   LIG A   1      -9.073  -3.169 124.479  0.00  0.00    +0.100 C 
ATOM     16  C   LIG A   1      -7.878  -4.124 124.427  0.00  0.00    +0.045 C 
ATOM     17  C   LIG A   1      -9.693  -3.172 125.880  0.00  0.00    +0.045 C 
BRANCH  15  18
ATOM     18  O   LIG A   1     -10.080  -3.720 123.607  0.00  0.00    -0.385 OA
ATOM     19  H   LIG A   1      -9.678  -4.429 123.079  0.00  0.00    +0.210 HD
ENDBRANCH  15  18
ENDBRANCH  11  15
BRANCH  10  20
ATOM     20  O   LIG A   1      -6.354  -1.523 123.270  0.00  0.00    -0.383 OA
ATOM     21  H   LIG A   1      -5.505  -1.103 123.492  0.00  0.00    +0.210 HD
ENDBRANCH  10  20
TORSDOF 3
ENDMDL
MODEL 6
REMARK VINA RESULT:      -6.5      1.436      6.402
REMARK  Name = NuBBE_1277
REMARK  5 active torsions:
REMARK  status: ('A' for Active; 'I' for Inactive)
REMARK    1  A    between atoms: C_10  and  O_11
REMARK    2  A    between atoms: C_12  and  C_13
REMARK    3  A    between atoms: C_13  and  O_14
REMARK    4  A    between atoms: C_13  and  C_15
REMARK    5  A    between atoms: C_13  and  C_16
REMARK                            x       y       z     vdW  Elec       q    Type
REMARK                         _______ _______ _______ _____ _____    ______ ____
ROOT
ATOM      1  O   LIG A   1     -12.459   8.677 128.148  0.00  0.00    -0.245 OA
ATOM      2  C   LIG A   1     -11.977   8.079 129.102  0.00  0.00    +0.337 A 
ATOM      3  C   LIG A   1     -12.846   7.505 130.145  0.00  0.00    +0.092 A 
ATOM      4  C   LIG A   1     -12.363   6.852 131.207  0.00  0.00    +0.018 A 
ATOM      5  O   LIG A   1     -10.609   7.907 129.260  0.00  0.00    -0.422 OA
ATOM      6  C   LIG A   1     -10.079   7.224 130.375  0.00  0.00    +0.142 A 
ATOM      7  C   LIG A   1     -10.927   6.691 131.359  0.00  0.00    +0.018 A 
ATOM      8  C   LIG A   1     -10.373   6.020 132.454  0.00  0.00    +0.021 A 
ATOM      9  C   LIG A   1      -8.989   5.919 132.532  0.00  0.00    +0.027 A 
ATOM     10  C   LIG A   1      -8.146   5.230 133.543  0.00  0.00    +0.191 C 
ATOM     11  C   LIG A   1      -6.760   5.783 133.137  0.00  0.00    +0.237 C 
ATOM     12  O   LIG A   1      -6.839   6.255 131.758  0.00  0.00    -0.483 OA
ATOM     13  C   LIG A   1      -8.175   6.454 131.544  0.00  0.00    +0.130 A 
ATOM     14  C   LIG A   1      -8.691   7.107 130.446  0.00  0.00    +0.093 A 
ENDROOT
BRANCH  11  15
ATOM     15  C   LIG A   1      -5.586   4.777 133.291  0.00  0.00    +0.100 C 
ATOM     16  C   LIG A   1      -5.464   3.864 132.068  0.00  0.00    +0.045 C 
ATOM     17  C   LIG A   1      -4.245   5.462 133.576  0.00  0.00    +0.045 C 
BRANCH  15  18
ATOM     18  O   LIG A   1      -5.833   3.920 134.423  0.00  0.00    -0.385 OA
ATOM     19  H   LIG A   1      -5.205   3.179 134.394  0.00  0.00    +0.210 HD
ENDBRANCH  15  18
ENDBRANCH  11  15
BRANCH  10  20
ATOM     20  O   LIG A   1      -8.483   5.599 134.872  0.00  0.00    -0.383 OA
ATOM     21  H   LIG A   1      -9.320   6.094 134.846  0.00  0.00    +0.210 HD
ENDBRANCH  10  20
TORSDOF 3
ENDMDL
MODEL 7
REMARK VINA RESULT:      -6.4      1.772      6.488
REMARK  Name = NuBBE_1277
REMARK  5 active torsions:
REMARK  status: ('A' for Active; 'I' for Inactive)
REMARK    1  A    between atoms: C_10  and  O_11
REMARK    2  A    between atoms: C_12  and  C_13
REMARK    3  A    between atoms: C_13  and  O_14
REMARK    4  A    between atoms: C_13  and  C_15
REMARK    5  A    between atoms: C_13  and  C_16
REMARK                            x       y       z     vdW  Elec       q    Type
REMARK                         _______ _______ _______ _____ _____    ______ ____
ROOT
ATOM      1  O   LIG A   1     -12.746   7.453 126.567  0.00  0.00    -0.245 OA
ATOM      2  C   LIG A   1     -12.365   7.198 127.703  0.00  0.00    +0.337 A 
ATOM      3  C   LIG A   1     -13.240   7.451 128.862  0.00  0.00    +0.092 A 
ATOM      4  C   LIG A   1     -12.865   7.197 130.119  0.00  0.00    +0.018 A 
ATOM      5  O   LIG A   1     -11.112   6.667 127.969  0.00  0.00    -0.422 OA
ATOM      6  C   LIG A   1     -10.693   6.394 129.288  0.00  0.00    +0.142 A 
ATOM      7  C   LIG A   1     -11.543   6.649 130.376  0.00  0.00    +0.018 A 
ATOM      8  C   LIG A   1     -11.103   6.369 131.674  0.00  0.00    +0.021 A 
ATOM      9  C   LIG A   1      -9.820   5.858 131.836  0.00  0.00    +0.027 A 
ATOM     10  C   LIG A   1      -9.122   5.431 133.076  0.00  0.00    +0.191 C 
ATOM     11  C   LIG A   1      -7.690   5.261 132.516  0.00  0.00    +0.237 C 
ATOM     12  O   LIG A   1      -7.780   5.094 131.069  0.00  0.00    -0.483 OA
ATOM     13  C   LIG A   1      -9.002   5.614 130.742  0.00  0.00    +0.130 A 
ATOM     14  C   LIG A   1      -9.414   5.865 129.452  0.00  0.00    +0.093 A 
ENDROOT
BRANCH  11  15
ATOM     15  C   LIG A   1      -6.881   4.091 133.140  0.00  0.00    +0.100 C 
ATOM     16  C   LIG A   1      -5.912   4.589 134.216  0.00  0.00    +0.045 C 
ATOM     17  C   LIG A   1      -7.773   2.981 133.706  0.00  0.00    +0.045 C 
BRANCH  15  18
ATOM     18  O   LIG A   1      -6.078   3.464 132.121  0.00  0.00    -0.385 OA
ATOM     19  H   LIG A   1      -5.560   4.150 131.668  0.00  0.00    +0.210 HD
ENDBRANCH  15  18
ENDBRANCH  11  15
BRANCH  10  20
ATOM     20  O   LIG A   1      -9.167   6.421 134.093  0.00  0.00    -0.383 OA
ATOM     21  H   LIG A   1      -9.387   7.272 133.676  0.00  0.00    +0.210 HD
ENDBRANCH  10  20
TORSDOF 3
ENDMDL
MODEL 8
REMARK VINA RESULT:      -6.3      9.000     10.189
REMARK  Name = NuBBE_1277
REMARK  5 active torsions:
REMARK  status: ('A' for Active; 'I' for Inactive)
REMARK    1  A    between atoms: C_10  and  O_11
REMARK    2  A    between atoms: C_12  and  C_13
REMARK    3  A    between atoms: C_13  and  O_14
REMARK    4  A    between atoms: C_13  and  C_15
REMARK    5  A    between atoms: C_13  and  C_16
REMARK                            x       y       z     vdW  Elec       q    Type
REMARK                         _______ _______ _______ _____ _____    ______ ____
ROOT
ATOM      1  O   LIG A   1      -6.128   6.123 125.050  0.00  0.00    -0.245 OA
ATOM      2  C   LIG A   1      -6.028   4.914 125.216  0.00  0.00    +0.337 A 
ATOM      3  C   LIG A   1      -4.916   4.354 126.006  0.00  0.00    +0.092 A 
ATOM      4  C   LIG A   1      -4.763   3.041 126.207  0.00  0.00    +0.018 A 
ATOM      5  O   LIG A   1      -6.936   4.010 124.684  0.00  0.00    -0.422 OA
ATOM      6  C   LIG A   1      -6.791   2.621 124.880  0.00  0.00    +0.142 A 
ATOM      7  C   LIG A   1      -5.720   2.111 125.631  0.00  0.00    +0.018 A 
ATOM      8  C   LIG A   1      -5.602   0.729 125.810  0.00  0.00    +0.021 A 
ATOM      9  C   LIG A   1      -6.552  -0.094 125.217  0.00  0.00    +0.027 A 
ATOM     10  C   LIG A   1      -6.696  -1.572 125.281  0.00  0.00    +0.191 C 
ATOM     11  C   LIG A   1      -7.765  -1.771 124.180  0.00  0.00    +0.237 C 
ATOM     12  O   LIG A   1      -8.459  -0.503 123.979  0.00  0.00    -0.483 OA
ATOM     13  C   LIG A   1      -7.601   0.437 124.481  0.00  0.00    +0.130 A 
ATOM     14  C   LIG A   1      -7.753   1.795 124.300  0.00  0.00    +0.093 A 
ENDROOT
BRANCH  11  15
ATOM     15  C   LIG A   1      -8.789  -2.903 124.464  0.00  0.00    +0.100 C 
ATOM     16  C   LIG A   1      -9.626  -3.228 123.223  0.00  0.00    +0.045 C 
ATOM     17  C   LIG A   1      -8.136  -4.177 125.009  0.00  0.00    +0.045 C 
BRANCH  15  18
ATOM     18  O   LIG A   1      -9.712  -2.472 125.483  0.00  0.00    -0.385 OA
ATOM     19  H   LIG A   1      -9.261  -1.832 126.059  0.00  0.00    +0.210 HD
ENDBRANCH  15  18
ENDBRANCH  11  15
BRANCH  10  20
ATOM     20  O   LIG A   1      -5.489  -2.249 124.960  0.00  0.00    -0.383 OA
ATOM     21  H   LIG A   1      -5.689  -2.917 124.282  0.00  0.00    +0.210 HD
ENDBRANCH  10  20
TORSDOF 3
ENDMDL
MODEL 9
REMARK VINA RESULT:      -6.2      8.856      9.779
REMARK  Name = NuBBE_1277
REMARK  5 active torsions:
REMARK  status: ('A' for Active; 'I' for Inactive)
REMARK    1  A    between atoms: C_10  and  O_11
REMARK    2  A    between atoms: C_12  and  C_13
REMARK    3  A    between atoms: C_13  and  O_14
REMARK    4  A    between atoms: C_13  and  C_15
REMARK    5  A    between atoms: C_13  and  C_16
REMARK                            x       y       z     vdW  Elec       q    Type
REMARK                         _______ _______ _______ _____ _____    ______ ____
ROOT
ATOM      1  O   LIG A   1      -2.472   3.768 127.056  0.00  0.00    -0.245 OA
ATOM      2  C   LIG A   1      -3.505   3.352 126.546  0.00  0.00    +0.337 A 
ATOM      3  C   LIG A   1      -4.396   4.264 125.806  0.00  0.00    +0.092 A 
ATOM      4  C   LIG A   1      -5.536   3.857 125.240  0.00  0.00    +0.018 A 
ATOM      5  O   LIG A   1      -3.897   2.024 126.630  0.00  0.00    -0.422 OA
ATOM      6  C   LIG A   1      -5.098   1.574 126.044  0.00  0.00    +0.142 A 
ATOM      7  C   LIG A   1      -5.933   2.462 125.348  0.00  0.00    +0.018 A 
ATOM      8  C   LIG A   1      -7.118   1.988 124.776  0.00  0.00    +0.021 A 
ATOM      9  C   LIG A   1      -7.432   0.644 124.935  0.00  0.00    +0.027 A 
ATOM     10  C   LIG A   1      -8.584  -0.128 124.401  0.00  0.00    +0.191 C 
ATOM     11  C   LIG A   1      -8.410  -1.436 125.209  0.00  0.00    +0.237 C 
ATOM     12  O   LIG A   1      -7.029  -1.506 125.678  0.00  0.00    -0.483 OA
ATOM     13  C   LIG A   1      -6.587  -0.213 125.626  0.00  0.00    +0.130 A 
ATOM     14  C   LIG A   1      -5.406   0.222 126.187  0.00  0.00    +0.093 A 
ENDROOT
BRANCH  11  15
ATOM     15  C   LIG A   1      -8.780  -2.732 124.438  0.00  0.00    +0.100 C 
ATOM     16  C   LIG A   1      -8.911  -2.474 122.935  0.00  0.00    +0.045 C 
ATOM     17  C   LIG A   1      -7.798  -3.881 124.694  0.00  0.00    +0.045 C 
BRANCH  15  18
ATOM     18  O   LIG A   1     -10.063  -3.210 124.888  0.00  0.00    -0.385 OA
ATOM     19  H   LIG A   1     -10.259  -4.046 124.434  0.00  0.00    +0.210 HD
ENDBRANCH  15  18
ENDBRANCH  11  15
BRANCH  10  20
ATOM     20  O   LIG A   1      -9.830   0.493 124.683  0.00  0.00    -0.383 OA
ATOM     21  H   LIG A   1      -9.961   0.485 125.646  0.00  0.00    +0.210 HD
ENDBRANCH  10  20
TORSDOF 3
ENDMDL
