MODEL 1
REMARK VINA RESULT:      -7.4      0.000      0.000
REMARK  Name = NuBBE_179
REMARK  6 active torsions:
REMARK  status: ('A' for Active; 'I' for Inactive)
REMARK    1  A    between atoms: C_4  and  C_5
REMARK    2  A    between atoms: C_8  and  O_9
REMARK    3  A    between atoms: O_9  and  C_10
REMARK    4  A    between atoms: C_11  and  O_12
REMARK    5  A    between atoms: C_18  and  O_19
REMARK    6  A    between atoms: O_19  and  C_20
REMARK                            x       y       z     vdW  Elec       q    Type
REMARK                         _______ _______ _______ _____ _____    ______ ____
ROOT
ATOM      1  O   LIG A   1      -7.975   4.880 134.034  0.00  0.00    -0.287 OA
ATOM      2  C   LIG A   1      -7.880   5.558 133.014  0.00  0.00    +0.193 A 
ATOM      3  C   LIG A   1      -9.073   5.994 132.282  0.00  0.00    +0.098 A 
ATOM      4  C   LIG A   1      -8.936   6.742 131.176  0.00  0.00    +0.139 A 
ATOM      5  O   LIG A   1      -7.707   7.155 130.671  0.00  0.00    -0.455 OA
ATOM      6  C   LIG A   1      -6.586   5.972 132.467  0.00  0.00    +0.064 A 
ATOM      7  C   LIG A   1      -6.563   6.754 131.317  0.00  0.00    +0.143 A 
ATOM      8  C   LIG A   1      -5.338   7.153 130.780  0.00  0.00    +0.092 A 
ATOM      9  C   LIG A   1      -4.139   6.762 131.390  0.00  0.00    +0.124 A 
ATOM     10  C   LIG A   1      -4.176   5.980 132.548  0.00  0.00    +0.046 A 
ATOM     11  C   LIG A   1      -5.399   5.585 133.088  0.00  0.00    +0.019 A 
ENDROOT
BRANCH   4  12
ATOM     12  C   LIG A   1     -10.112   7.226 130.415  0.00  0.00    +0.021 A 
ATOM     13  C   LIG A   1     -11.404   7.092 130.947  0.00  0.00    +0.015 A 
ATOM     14  C   LIG A   1     -12.536   7.524 130.238  0.00  0.00    +0.050 A 
ATOM     15  C   LIG A   1     -12.397   8.091 128.974  0.00  0.00    +0.161 A 
ATOM     16  C   LIG A   1     -11.112   8.214 128.440  0.00  0.00    +0.159 A 
ATOM     17  C   LIG A   1      -9.982   7.819 129.151  0.00  0.00    +0.060 A 
BRANCH  15  18
ATOM     18  O   LIG A   1     -13.417   8.549 128.182  0.00  0.00    -0.491 OA
ATOM     19  C   LIG A   1     -13.849   9.886 128.419  0.00  0.00    +0.277 C 
ENDBRANCH  15  18
BRANCH  16  20
ATOM     20  O   LIG A   1     -10.923   8.701 127.174  0.00  0.00    -0.503 OA
ATOM     21  H   LIG A   1     -11.607   8.271 126.627  0.00  0.00    +0.292 HD
ENDBRANCH  16  20
ENDBRANCH   4  12
BRANCH   9  22
ATOM     22  O   LIG A   1      -3.001   7.201 130.769  0.00  0.00    -0.495 OA
ATOM     23  C   LIG A   1      -2.649   6.543 129.556  0.00  0.00    +0.277 C 
ENDBRANCH   9  22
TORSDOF 4
ENDMDL
MODEL 2
REMARK VINA RESULT:      -7.3      3.119      3.525
REMARK  Name = NuBBE_179
REMARK  6 active torsions:
REMARK  status: ('A' for Active; 'I' for Inactive)
REMARK    1  A    between atoms: C_4  and  C_5
REMARK    2  A    between atoms: C_8  and  O_9
REMARK    3  A    between atoms: O_9  and  C_10
REMARK    4  A    between atoms: C_11  and  O_12
REMARK    5  A    between atoms: C_18  and  O_19
REMARK    6  A    between atoms: O_19  and  C_20
REMARK                            x       y       z     vdW  Elec       q    Type
REMARK                         _______ _______ _______ _____ _____    ______ ____
ROOT
ATOM      1  O   LIG A   1      -9.488   2.358 130.991  0.00  0.00    -0.287 OA
ATOM      2  C   LIG A   1      -9.505   3.501 131.442  0.00  0.00    +0.193 A 
ATOM      3  C   LIG A   1     -10.300   4.554 130.804  0.00  0.00    +0.098 A 
ATOM      4  C   LIG A   1     -10.304   5.791 131.327  0.00  0.00    +0.139 A 
ATOM      5  O   LIG A   1      -9.598   6.147 132.471  0.00  0.00    -0.455 OA
ATOM      6  C   LIG A   1      -8.742   3.883 132.632  0.00  0.00    +0.064 A 
ATOM      7  C   LIG A   1      -8.827   5.194 133.090  0.00  0.00    +0.143 A 
ATOM      8  C   LIG A   1      -8.101   5.577 134.220  0.00  0.00    +0.092 A 
ATOM      9  C   LIG A   1      -7.288   4.650 134.885  0.00  0.00    +0.124 A 
ATOM     10  C   LIG A   1      -7.215   3.335 134.416  0.00  0.00    +0.046 A 
ATOM     11  C   LIG A   1      -7.943   2.950 133.290  0.00  0.00    +0.019 A 
ENDROOT
BRANCH   4  12
ATOM     12  C   LIG A   1     -11.110   6.883 130.731  0.00  0.00    +0.021 A 
ATOM     13  C   LIG A   1     -12.314   7.283 131.331  0.00  0.00    +0.015 A 
ATOM     14  C   LIG A   1     -13.106   8.300 130.776  0.00  0.00    +0.050 A 
ATOM     15  C   LIG A   1     -12.711   8.933 129.600  0.00  0.00    +0.161 A 
ATOM     16  C   LIG A   1     -11.518   8.526 128.997  0.00  0.00    +0.159 A 
ATOM     17  C   LIG A   1     -10.711   7.542 129.560  0.00  0.00    +0.060 A 
BRANCH  15  18
ATOM     18  O   LIG A   1     -13.390   9.935 128.958  0.00  0.00    -0.491 OA
ATOM     19  C   LIG A   1     -13.654  11.109 129.720  0.00  0.00    +0.277 C 
ENDBRANCH  15  18
BRANCH  16  20
ATOM     20  O   LIG A   1     -11.117   9.066 127.803  0.00  0.00    -0.503 OA
ATOM     21  H   LIG A   1     -11.327  10.016 127.866  0.00  0.00    +0.292 HD
ENDBRANCH  16  20
ENDBRANCH   4  12
BRANCH   9  22
ATOM     22  O   LIG A   1      -6.615   5.140 135.970  0.00  0.00    -0.495 OA
ATOM     23  C   LIG A   1      -7.228   6.226 136.658  0.00  0.00    +0.277 C 
ENDBRANCH   9  22
TORSDOF 4
ENDMDL
MODEL 3
REMARK VINA RESULT:      -7.3      9.147     10.272
REMARK  Name = NuBBE_179
REMARK  6 active torsions:
REMARK  status: ('A' for Active; 'I' for Inactive)
REMARK    1  A    between atoms: C_4  and  C_5
REMARK    2  A    between atoms: C_8  and  O_9
REMARK    3  A    between atoms: O_9  and  C_10
REMARK    4  A    between atoms: C_11  and  O_12
REMARK    5  A    between atoms: C_18  and  O_19
REMARK    6  A    between atoms: O_19  and  C_20
REMARK                            x       y       z     vdW  Elec       q    Type
REMARK                         _______ _______ _______ _____ _____    ______ ____
ROOT
ATOM      1  O   LIG A   1      -9.697  -2.837 124.204  0.00  0.00    -0.287 OA
ATOM      2  C   LIG A   1      -8.982  -2.091 124.868  0.00  0.00    +0.193 A 
ATOM      3  C   LIG A   1      -8.431  -0.860 124.290  0.00  0.00    +0.098 A 
ATOM      4  C   LIG A   1      -7.660  -0.062 125.045  0.00  0.00    +0.139 A 
ATOM      5  O   LIG A   1      -7.351  -0.320 126.377  0.00  0.00    -0.455 OA
ATOM      6  C   LIG A   1      -8.635  -2.375 126.262  0.00  0.00    +0.064 A 
ATOM      7  C   LIG A   1      -7.833  -1.471 126.951  0.00  0.00    +0.143 A 
ATOM      8  C   LIG A   1      -7.489  -1.729 128.279  0.00  0.00    +0.092 A 
ATOM      9  C   LIG A   1      -7.941  -2.894 128.912  0.00  0.00    +0.124 A 
ATOM     10  C   LIG A   1      -8.750  -3.792 128.210  0.00  0.00    +0.046 A 
ATOM     11  C   LIG A   1      -9.099  -3.533 126.884  0.00  0.00    +0.019 A 
ENDROOT
BRANCH   4  12
ATOM     12  C   LIG A   1      -7.100   1.203 124.514  0.00  0.00    +0.021 A 
ATOM     13  C   LIG A   1      -7.355   1.590 123.189  0.00  0.00    +0.015 A 
ATOM     14  C   LIG A   1      -6.820   2.773 122.655  0.00  0.00    +0.050 A 
ATOM     15  C   LIG A   1      -6.007   3.589 123.437  0.00  0.00    +0.161 A 
ATOM     16  C   LIG A   1      -5.743   3.198 124.753  0.00  0.00    +0.159 A 
ATOM     17  C   LIG A   1      -6.298   2.044 125.299  0.00  0.00    +0.060 A 
BRANCH  15  18
ATOM     18  O   LIG A   1      -5.424   4.763 123.038  0.00  0.00    -0.491 OA
ATOM     19  C   LIG A   1      -4.696   4.723 121.814  0.00  0.00    +0.277 C 
ENDBRANCH  15  18
BRANCH  16  20
ATOM     20  O   LIG A   1      -4.896   3.927 125.543  0.00  0.00    -0.503 OA
ATOM     21  H   LIG A   1      -4.993   3.554 126.439  0.00  0.00    +0.292 HD
ENDBRANCH  16  20
ENDBRANCH   4  12
BRANCH   9  22
ATOM     22  O   LIG A   1      -7.531  -3.048 130.209  0.00  0.00    -0.495 OA
ATOM     23  C   LIG A   1      -6.378  -3.858 130.416  0.00  0.00    +0.277 C 
ENDBRANCH   9  22
TORSDOF 4
ENDMDL
MODEL 4
REMARK VINA RESULT:      -7.3      3.461      4.103
REMARK  Name = NuBBE_179
REMARK  6 active torsions:
REMARK  status: ('A' for Active; 'I' for Inactive)
REMARK    1  A    between atoms: C_4  and  C_5
REMARK    2  A    between atoms: C_8  and  O_9
REMARK    3  A    between atoms: O_9  and  C_10
REMARK    4  A    between atoms: C_11  and  O_12
REMARK    5  A    between atoms: C_18  and  O_19
REMARK    6  A    between atoms: O_19  and  C_20
REMARK                            x       y       z     vdW  Elec       q    Type
REMARK                         _______ _______ _______ _____ _____    ______ ____
ROOT
ATOM      1  O   LIG A   1      -8.594   4.423 134.574  0.00  0.00    -0.287 OA
ATOM      2  C   LIG A   1      -8.985   4.386 133.410  0.00  0.00    +0.193 A 
ATOM      3  C   LIG A   1      -9.753   5.496 132.835  0.00  0.00    +0.098 A 
ATOM      4  C   LIG A   1     -10.158   5.429 131.557  0.00  0.00    +0.139 A 
ATOM      5  O   LIG A   1      -9.879   4.358 130.713  0.00  0.00    -0.455 OA
ATOM      6  C   LIG A   1      -8.714   3.248 132.529  0.00  0.00    +0.064 A 
ATOM      7  C   LIG A   1      -9.177   3.291 131.218  0.00  0.00    +0.143 A 
ATOM      8  C   LIG A   1      -8.932   2.212 130.366  0.00  0.00    +0.092 A 
ATOM      9  C   LIG A   1      -8.232   1.091 130.830  0.00  0.00    +0.124 A 
ATOM     10  C   LIG A   1      -7.768   1.063 132.148  0.00  0.00    +0.046 A 
ATOM     11  C   LIG A   1      -8.008   2.142 132.999  0.00  0.00    +0.019 A 
ENDROOT
BRANCH   4  12
ATOM     12  C   LIG A   1     -10.917   6.534 130.925  0.00  0.00    +0.021 A 
ATOM     13  C   LIG A   1     -12.170   6.913 131.431  0.00  0.00    +0.015 A 
ATOM     14  C   LIG A   1     -12.918   7.943 130.839  0.00  0.00    +0.050 A 
ATOM     15  C   LIG A   1     -12.428   8.608 129.718  0.00  0.00    +0.161 A 
ATOM     16  C   LIG A   1     -11.186   8.222 129.207  0.00  0.00    +0.159 A 
ATOM     17  C   LIG A   1     -10.424   7.226 129.809  0.00  0.00    +0.060 A 
BRANCH  15  18
ATOM     18  O   LIG A   1     -13.057   9.625 129.047  0.00  0.00    -0.491 OA
ATOM     19  C   LIG A   1     -13.429  10.759 129.825  0.00  0.00    +0.277 C 
ENDBRANCH  15  18
BRANCH  16  20
ATOM     20  O   LIG A   1     -10.689   8.796 128.067  0.00  0.00    -0.503 OA
ATOM     21  H   LIG A   1      -9.922   9.323 128.356  0.00  0.00    +0.292 HD
ENDBRANCH  16  20
ENDBRANCH   4  12
BRANCH   9  22
ATOM     22  O   LIG A   1      -8.062   0.090 129.912  0.00  0.00    -0.495 OA
ATOM     23  C   LIG A   1      -7.870  -1.221 130.433  0.00  0.00    +0.277 C 
ENDBRANCH   9  22
TORSDOF 4
ENDMDL
MODEL 5
REMARK VINA RESULT:      -7.1      1.218      7.291
REMARK  Name = NuBBE_179
REMARK  6 active torsions:
REMARK  status: ('A' for Active; 'I' for Inactive)
REMARK    1  A    between atoms: C_4  and  C_5
REMARK    2  A    between atoms: C_8  and  O_9
REMARK    3  A    between atoms: O_9  and  C_10
REMARK    4  A    between atoms: C_11  and  O_12
REMARK    5  A    between atoms: C_18  and  O_19
REMARK    6  A    between atoms: O_19  and  C_20
REMARK                            x       y       z     vdW  Elec       q    Type
REMARK                         _______ _______ _______ _____ _____    ______ ____
ROOT
ATOM      1  O   LIG A   1     -10.112   5.038 133.153  0.00  0.00    -0.287 OA
ATOM      2  C   LIG A   1      -9.508   5.717 132.326  0.00  0.00    +0.193 A 
ATOM      3  C   LIG A   1      -8.045   5.815 132.351  0.00  0.00    +0.098 A 
ATOM      4  C   LIG A   1      -7.415   6.558 131.427  0.00  0.00    +0.139 A 
ATOM      5  O   LIG A   1      -8.071   7.248 130.412  0.00  0.00    -0.455 OA
ATOM      6  C   LIG A   1     -10.199   6.464 131.273  0.00  0.00    +0.064 A 
ATOM      7  C   LIG A   1      -9.442   7.196 130.364  0.00  0.00    +0.143 A 
ATOM      8  C   LIG A   1     -10.085   7.919 129.358  0.00  0.00    +0.092 A 
ATOM      9  C   LIG A   1     -11.484   7.913 129.267  0.00  0.00    +0.124 A 
ATOM     10  C   LIG A   1     -12.231   7.169 130.184  0.00  0.00    +0.046 A 
ATOM     11  C   LIG A   1     -11.590   6.444 131.188  0.00  0.00    +0.019 A 
ENDROOT
BRANCH   4  12
ATOM     12  C   LIG A   1      -5.938   6.669 131.397  0.00  0.00    +0.021 A 
ATOM     13  C   LIG A   1      -5.172   6.242 132.494  0.00  0.00    +0.015 A 
ATOM     14  C   LIG A   1      -3.773   6.356 132.499  0.00  0.00    +0.050 A 
ATOM     15  C   LIG A   1      -3.111   6.909 131.406  0.00  0.00    +0.161 A 
ATOM     16  C   LIG A   1      -3.874   7.344 130.319  0.00  0.00    +0.159 A 
ATOM     17  C   LIG A   1      -5.259   7.204 130.293  0.00  0.00    +0.060 A 
BRANCH  15  18
ATOM     18  O   LIG A   1      -1.756   7.077 131.287  0.00  0.00    -0.491 OA
ATOM     19  C   LIG A   1      -0.948   6.372 132.225  0.00  0.00    +0.277 C 
ENDBRANCH  15  18
BRANCH  16  20
ATOM     20  O   LIG A   1      -3.281   7.958 129.248  0.00  0.00    -0.503 OA
ATOM     21  H   LIG A   1      -2.370   8.154 129.535  0.00  0.00    +0.292 HD
ENDBRANCH  16  20
ENDBRANCH   4  12
BRANCH   9  22
ATOM     22  O   LIG A   1     -12.004   8.666 128.250  0.00  0.00    -0.495 OA
ATOM     23  C   LIG A   1     -13.288   9.237 128.478  0.00  0.00    +0.277 C 
ENDBRANCH   9  22
TORSDOF 4
ENDMDL
MODEL 6
REMARK VINA RESULT:      -6.9      9.878     11.972
REMARK  Name = NuBBE_179
REMARK  6 active torsions:
REMARK  status: ('A' for Active; 'I' for Inactive)
REMARK    1  A    between atoms: C_4  and  C_5
REMARK    2  A    between atoms: C_8  and  O_9
REMARK    3  A    between atoms: O_9  and  C_10
REMARK    4  A    between atoms: C_11  and  O_12
REMARK    5  A    between atoms: C_18  and  O_19
REMARK    6  A    between atoms: O_19  and  C_20
REMARK                            x       y       z     vdW  Elec       q    Type
REMARK                         _______ _______ _______ _____ _____    ______ ____
ROOT
ATOM      1  O   LIG A   1      -9.885  -3.409 123.365  0.00  0.00    -0.287 OA
ATOM      2  C   LIG A   1      -9.310  -2.594 124.082  0.00  0.00    +0.193 A 
ATOM      3  C   LIG A   1      -8.650  -3.013 125.324  0.00  0.00    +0.098 A 
ATOM      4  C   LIG A   1      -8.023  -2.099 126.081  0.00  0.00    +0.139 A 
ATOM      5  O   LIG A   1      -7.941  -0.749 125.754  0.00  0.00    -0.455 OA
ATOM      6  C   LIG A   1      -9.245  -1.169 123.752  0.00  0.00    +0.064 A 
ATOM      7  C   LIG A   1      -8.560  -0.313 124.608  0.00  0.00    +0.143 A 
ATOM      8  C   LIG A   1      -8.493   1.049 124.311  0.00  0.00    +0.092 A 
ATOM      9  C   LIG A   1      -9.116   1.553 123.162  0.00  0.00    +0.124 A 
ATOM     10  C   LIG A   1      -9.797   0.681 122.307  0.00  0.00    +0.046 A 
ATOM     11  C   LIG A   1      -9.861  -0.681 122.601  0.00  0.00    +0.019 A 
ENDROOT
BRANCH   4  12
ATOM     12  C   LIG A   1      -7.323  -2.477 127.332  0.00  0.00    +0.021 A 
ATOM     13  C   LIG A   1      -8.017  -3.129 128.363  0.00  0.00    +0.015 A 
ATOM     14  C   LIG A   1      -7.383  -3.479 129.565  0.00  0.00    +0.050 A 
ATOM     15  C   LIG A   1      -6.039  -3.174 129.763  0.00  0.00    +0.161 A 
ATOM     16  C   LIG A   1      -5.351  -2.514 128.741  0.00  0.00    +0.159 A 
ATOM     17  C   LIG A   1      -5.965  -2.194 127.533  0.00  0.00    +0.060 A 
BRANCH  15  18
ATOM     18  O   LIG A   1      -5.306  -3.458 130.886  0.00  0.00    -0.491 OA
ATOM     19  C   LIG A   1      -5.345  -4.808 131.339  0.00  0.00    +0.277 C 
ENDBRANCH  15  18
BRANCH  16  20
ATOM     20  O   LIG A   1      -4.048  -2.129 128.909  0.00  0.00    -0.503 OA
ATOM     21  H   LIG A   1      -4.053  -1.157 128.829  0.00  0.00    +0.292 HD
ENDBRANCH  16  20
ENDBRANCH   4  12
BRANCH   9  22
ATOM     22  O   LIG A   1      -8.995   2.904 122.979  0.00  0.00    -0.495 OA
ATOM     23  C   LIG A   1      -8.624   3.335 121.674  0.00  0.00    +0.277 C 
ENDBRANCH   9  22
TORSDOF 4
ENDMDL
MODEL 7
REMARK VINA RESULT:      -6.9      2.608      3.888
REMARK  Name = NuBBE_179
REMARK  6 active torsions:
REMARK  status: ('A' for Active; 'I' for Inactive)
REMARK    1  A    between atoms: C_4  and  C_5
REMARK    2  A    between atoms: C_8  and  O_9
REMARK    3  A    between atoms: O_9  and  C_10
REMARK    4  A    between atoms: C_11  and  O_12
REMARK    5  A    between atoms: C_18  and  O_19
REMARK    6  A    between atoms: O_19  and  C_20
REMARK                            x       y       z     vdW  Elec       q    Type
REMARK                         _______ _______ _______ _____ _____    ______ ____
ROOT
ATOM      1  O   LIG A   1      -6.293   3.289 132.286  0.00  0.00    -0.287 OA
ATOM      2  C   LIG A   1      -7.029   4.180 132.704  0.00  0.00    +0.193 A 
ATOM      3  C   LIG A   1      -8.014   4.821 131.827  0.00  0.00    +0.098 A 
ATOM      4  C   LIG A   1      -8.809   5.785 132.318  0.00  0.00    +0.139 A 
ATOM      5  O   LIG A   1      -8.772   6.220 133.639  0.00  0.00    -0.455 OA
ATOM      6  C   LIG A   1      -6.972   4.656 134.088  0.00  0.00    +0.064 A 
ATOM      7  C   LIG A   1      -7.851   5.657 134.489  0.00  0.00    +0.143 A 
ATOM      8  C   LIG A   1      -7.807   6.126 135.803  0.00  0.00    +0.092 A 
ATOM      9  C   LIG A   1      -6.880   5.598 136.711  0.00  0.00    +0.124 A 
ATOM     10  C   LIG A   1      -6.006   4.589 136.296  0.00  0.00    +0.046 A 
ATOM     11  C   LIG A   1      -6.052   4.116 134.985  0.00  0.00    +0.019 A 
ENDROOT
BRANCH   4  12
ATOM     12  C   LIG A   1      -9.835   6.446 131.477  0.00  0.00    +0.021 A 
ATOM     13  C   LIG A   1     -11.190   6.398 131.844  0.00  0.00    +0.015 A 
ATOM     14  C   LIG A   1     -12.183   6.999 131.055  0.00  0.00    +0.050 A 
ATOM     15  C   LIG A   1     -11.840   7.653 129.875  0.00  0.00    +0.161 A 
ATOM     16  C   LIG A   1     -10.493   7.692 129.505  0.00  0.00    +0.159 A 
ATOM     17  C   LIG A   1      -9.499   7.128 130.299  0.00  0.00    +0.060 A 
BRANCH  15  18
ATOM     18  O   LIG A   1     -12.710   8.276 129.018  0.00  0.00    -0.491 OA
ATOM     19  C   LIG A   1     -13.502   7.426 128.194  0.00  0.00    +0.277 C 
ENDBRANCH  15  18
BRANCH  16  20
ATOM     20  O   LIG A   1     -10.109   8.262 128.320  0.00  0.00    -0.503 OA
ATOM     21  H   LIG A   1      -9.913   7.515 127.725  0.00  0.00    +0.292 HD
ENDBRANCH  16  20
ENDBRANCH   4  12
BRANCH   9  22
ATOM     22  O   LIG A   1      -6.920   6.142 137.966  0.00  0.00    -0.495 OA
ATOM     23  C   LIG A   1      -8.082   6.896 138.292  0.00  0.00    +0.277 C 
ENDBRANCH   9  22
TORSDOF 4
ENDMDL
MODEL 8
REMARK VINA RESULT:      -6.8      2.335      3.643
REMARK  Name = NuBBE_179
REMARK  6 active torsions:
REMARK  status: ('A' for Active; 'I' for Inactive)
REMARK    1  A    between atoms: C_4  and  C_5
REMARK    2  A    between atoms: C_8  and  O_9
REMARK    3  A    between atoms: O_9  and  C_10
REMARK    4  A    between atoms: C_11  and  O_12
REMARK    5  A    between atoms: C_18  and  O_19
REMARK    6  A    between atoms: O_19  and  C_20
REMARK                            x       y       z     vdW  Elec       q    Type
REMARK                         _______ _______ _______ _____ _____    ______ ____
ROOT
ATOM      1  O   LIG A   1      -5.591   6.416 132.098  0.00  0.00    -0.287 OA
ATOM      2  C   LIG A   1      -6.692   5.913 131.887  0.00  0.00    +0.193 A 
ATOM      3  C   LIG A   1      -7.793   6.708 131.334  0.00  0.00    +0.098 A 
ATOM      4  C   LIG A   1      -8.982   6.127 131.106  0.00  0.00    +0.139 A 
ATOM      5  O   LIG A   1      -9.243   4.782 131.351  0.00  0.00    -0.455 OA
ATOM      6  C   LIG A   1      -6.977   4.504 132.169  0.00  0.00    +0.064 A 
ATOM      7  C   LIG A   1      -8.244   4.006 131.885  0.00  0.00    +0.143 A 
ATOM      8  C   LIG A   1      -8.533   2.667 132.154  0.00  0.00    +0.092 A 
ATOM      9  C   LIG A   1      -7.557   1.831 132.710  0.00  0.00    +0.124 A 
ATOM     10  C   LIG A   1      -6.285   2.343 132.985  0.00  0.00    +0.046 A 
ATOM     11  C   LIG A   1      -5.994   3.680 132.714  0.00  0.00    +0.019 A 
ENDROOT
BRANCH   4  12
ATOM     12  C   LIG A   1     -10.117   6.883 130.527  0.00  0.00    +0.021 A 
ATOM     13  C   LIG A   1     -11.372   6.872 131.159  0.00  0.00    +0.015 A 
ATOM     14  C   LIG A   1     -12.468   7.563 130.621  0.00  0.00    +0.050 A 
ATOM     15  C   LIG A   1     -12.333   8.273 129.430  0.00  0.00    +0.161 A 
ATOM     16  C   LIG A   1     -11.088   8.274 128.796  0.00  0.00    +0.159 A 
ATOM     17  C   LIG A   1      -9.987   7.619 129.342  0.00  0.00    +0.060 A 
BRANCH  15  18
ATOM     18  O   LIG A   1     -13.321   8.985 128.802  0.00  0.00    -0.491 OA
ATOM     19  C   LIG A   1     -13.509  10.327 129.240  0.00  0.00    +0.277 C 
ENDBRANCH  15  18
BRANCH  16  20
ATOM     20  O   LIG A   1     -10.918   8.899 127.589  0.00  0.00    -0.503 OA
ATOM     21  H   LIG A   1     -11.498   8.422 126.967  0.00  0.00    +0.292 HD
ENDBRANCH  16  20
ENDBRANCH   4  12
BRANCH   9  22
ATOM     22  O   LIG A   1      -7.956   0.543 132.941  0.00  0.00    -0.495 OA
ATOM     23  C   LIG A   1      -8.490  -0.164 131.826  0.00  0.00    +0.277 C 
ENDBRANCH   9  22
TORSDOF 4
ENDMDL
MODEL 9
REMARK VINA RESULT:      -6.4      9.833     10.877
REMARK  Name = NuBBE_179
REMARK  6 active torsions:
REMARK  status: ('A' for Active; 'I' for Inactive)
REMARK    1  A    between atoms: C_4  and  C_5
REMARK    2  A    between atoms: C_8  and  O_9
REMARK    3  A    between atoms: O_9  and  C_10
REMARK    4  A    between atoms: C_11  and  O_12
REMARK    5  A    between atoms: C_18  and  O_19
REMARK    6  A    between atoms: O_19  and  C_20
REMARK                            x       y       z     vdW  Elec       q    Type
REMARK                         _______ _______ _______ _____ _____    ______ ____
ROOT
ATOM      1  O   LIG A   1      -2.845  -3.568 129.425  0.00  0.00    -0.287 OA
ATOM      2  C   LIG A   1      -4.050  -3.349 129.524  0.00  0.00    +0.193 A 
ATOM      3  C   LIG A   1      -4.826  -2.856 128.381  0.00  0.00    +0.098 A 
ATOM      4  C   LIG A   1      -6.143  -2.635 128.520  0.00  0.00    +0.139 A 
ATOM      5  O   LIG A   1      -6.843  -2.860 129.701  0.00  0.00    -0.455 OA
ATOM      6  C   LIG A   1      -4.783  -3.561 130.774  0.00  0.00    +0.064 A 
ATOM      7  C   LIG A   1      -6.151  -3.305 130.800  0.00  0.00    +0.143 A 
ATOM      8  C   LIG A   1      -6.863  -3.497 131.985  0.00  0.00    +0.092 A 
ATOM      9  C   LIG A   1      -6.207  -3.938 133.142  0.00  0.00    +0.124 A 
ATOM     10  C   LIG A   1      -4.834  -4.195 133.099  0.00  0.00    +0.046 A 
ATOM     11  C   LIG A   1      -4.120  -4.008 131.916  0.00  0.00    +0.019 A 
ENDROOT
BRANCH   4  12
ATOM     12  C   LIG A   1      -6.973  -2.160 127.389  0.00  0.00    +0.021 A 
ATOM     13  C   LIG A   1      -6.606  -1.008 126.675  0.00  0.00    +0.015 A 
ATOM     14  C   LIG A   1      -7.386  -0.525 125.613  0.00  0.00    +0.050 A 
ATOM     15  C   LIG A   1      -8.558  -1.183 125.249  0.00  0.00    +0.161 A 
ATOM     16  C   LIG A   1      -8.929  -2.323 125.967  0.00  0.00    +0.159 A 
ATOM     17  C   LIG A   1      -8.143  -2.826 126.999  0.00  0.00    +0.060 A 
BRANCH  15  18
ATOM     18  O   LIG A   1      -9.405  -0.815 124.236  0.00  0.00    -0.491 OA
ATOM     19  C   LIG A   1      -8.997  -1.159 122.915  0.00  0.00    +0.277 C 
ENDBRANCH  15  18
BRANCH  16  20
ATOM     20  O   LIG A   1     -10.107  -2.968 125.696  0.00  0.00    -0.503 OA
ATOM     21  H   LIG A   1      -9.878  -3.914 125.647  0.00  0.00    +0.292 HD
ENDBRANCH  16  20
ENDBRANCH   4  12
BRANCH   9  22
ATOM     22  O   LIG A   1      -7.003  -4.078 134.245  0.00  0.00    -0.495 OA
ATOM     23  C   LIG A   1      -8.207  -3.317 134.258  0.00  0.00    +0.277 C 
ENDBRANCH   9  22
TORSDOF 4
ENDMDL
