MODEL 1
REMARK VINA RESULT:      -5.1      0.000      0.000
REMARK  Name = NuBBE_322
REMARK  7 active torsions:
REMARK  status: ('A' for Active; 'I' for Inactive)
REMARK    1  A    between atoms: O_1  and  C_2
REMARK    2  A    between atoms: C_4  and  O_13
REMARK    3  A    between atoms: C_6  and  O_11
REMARK    4  A    between atoms: C_8  and  O_10
REMARK    5  A    between atoms: O_11  and  C_12
REMARK    6  A    between atoms: C_14  and  O_19
REMARK    7  A    between atoms: C_16  and  O_18
REMARK                            x       y       z     vdW  Elec       q    Type
REMARK                         _______ _______ _______ _____ _____    ______ ____
ROOT
ATOM      1  C   LIG A   1     -11.456   5.915 131.553  0.00  0.00    +0.176 C 
ATOM      2  C   LIG A   1     -10.538   5.207 130.554  0.00  0.00    +0.177 C 
ATOM      3  C   LIG A   1      -9.799   6.180 129.609  0.00  0.00    +0.180 C 
ATOM      4  C   LIG A   1     -10.786   7.147 128.923  0.00  0.00    +0.177 C 
ATOM      5  C   LIG A   1     -12.437   6.849 130.834  0.00  0.00    +0.176 C 
ATOM      6  C   LIG A   1     -11.698   7.844 129.938  0.00  0.00    +0.176 C 
ENDROOT
BRANCH   1   7
ATOM      7  O   LIG A   1     -10.691   6.695 132.485  0.00  0.00    -0.387 OA
ATOM      8  H   LIG A   1      -9.760   6.419 132.389  0.00  0.00    +0.210 HD
ENDBRANCH   1   7
BRANCH   4   9
ATOM      9  O   LIG A   1     -10.076   8.182 128.216  0.00  0.00    -0.387 OA
ATOM     10  H   LIG A   1     -10.142   7.927 127.273  0.00  0.00    +0.210 HD
ENDBRANCH   4   9
BRANCH   3  11
ATOM     11  O   LIG A   1      -9.108   5.322 128.669  0.00  0.00    -0.374 OA
ATOM     12  C   LIG A   1      -7.988   4.645 129.226  0.00  0.00    +0.194 C 
ENDBRANCH   3  11
BRANCH   2  13
ATOM     13  O   LIG A   1     -11.312   4.285 129.776  0.00  0.00    -0.387 OA
ATOM     14  H   LIG A   1     -12.245   4.549 129.930  0.00  0.00    +0.210 HD
ENDBRANCH   2  13
BRANCH   6  15
ATOM     15  O   LIG A   1     -12.648   8.653 129.220  0.00  0.00    -0.387 OA
ATOM     16  H   LIG A   1     -12.432   8.520 128.274  0.00  0.00    +0.210 HD
ENDBRANCH   6  15
BRANCH   5  17
ATOM     17  O   LIG A   1     -13.189   7.605 131.801  0.00  0.00    -0.387 OA
ATOM     18  H   LIG A   1     -12.530   7.917 132.456  0.00  0.00    +0.210 HD
ENDBRANCH   5  17
TORSDOF 6
ENDMDL
MODEL 2
REMARK VINA RESULT:      -5.1      1.593      4.360
REMARK  Name = NuBBE_322
REMARK  7 active torsions:
REMARK  status: ('A' for Active; 'I' for Inactive)
REMARK    1  A    between atoms: O_1  and  C_2
REMARK    2  A    between atoms: C_4  and  O_13
REMARK    3  A    between atoms: C_6  and  O_11
REMARK    4  A    between atoms: C_8  and  O_10
REMARK    5  A    between atoms: O_11  and  C_12
REMARK    6  A    between atoms: C_14  and  O_19
REMARK    7  A    between atoms: C_16  and  O_18
REMARK                            x       y       z     vdW  Elec       q    Type
REMARK                         _______ _______ _______ _____ _____    ______ ____
ROOT
ATOM      1  C   LIG A   1     -10.470   7.272 128.655  0.00  0.00    +0.176 C 
ATOM      2  C   LIG A   1     -11.639   8.191 128.299  0.00  0.00    +0.177 C 
ATOM      3  C   LIG A   1     -12.320   8.819 129.535  0.00  0.00    +0.180 C 
ATOM      4  C   LIG A   1     -12.710   7.739 130.564  0.00  0.00    +0.177 C 
ATOM      5  C   LIG A   1     -10.899   6.198 129.662  0.00  0.00    +0.176 C 
ATOM      6  C   LIG A   1     -11.527   6.827 130.907  0.00  0.00    +0.176 C 
ENDROOT
BRANCH   1   7
ATOM      7  O   LIG A   1      -9.388   8.022 129.229  0.00  0.00    -0.387 OA
ATOM      8  H   LIG A   1      -8.992   7.464 129.925  0.00  0.00    +0.210 HD
ENDBRANCH   1   7
BRANCH   4   9
ATOM      9  O   LIG A   1     -13.144   8.344 131.798  0.00  0.00    -0.387 OA
ATOM     10  H   LIG A   1     -13.137   9.307 131.616  0.00  0.00    +0.210 HD
ENDBRANCH   4   9
BRANCH   3  11
ATOM     11  O   LIG A   1     -13.466   9.526 129.000  0.00  0.00    -0.374 OA
ATOM     12  C   LIG A   1     -13.590  10.861 129.474  0.00  0.00    +0.194 C 
ENDBRANCH   3  11
BRANCH   2  13
ATOM     13  O   LIG A   1     -12.609   7.449 127.548  0.00  0.00    -0.387 OA
ATOM     14  H   LIG A   1     -12.083   6.932 126.901  0.00  0.00    +0.210 HD
ENDBRANCH   2  13
BRANCH   6  15
ATOM     15  O   LIG A   1     -11.989   5.792 131.795  0.00  0.00    -0.387 OA
ATOM     16  H   LIG A   1     -11.212   5.212 131.936  0.00  0.00    +0.210 HD
ENDBRANCH   6  15
BRANCH   5  17
ATOM     17  O   LIG A   1      -9.752   5.440 130.086  0.00  0.00    -0.387 OA
ATOM     18  H   LIG A   1      -9.078   5.575 129.387  0.00  0.00    +0.210 HD
ENDBRANCH   5  17
TORSDOF 6
ENDMDL
MODEL 3
REMARK VINA RESULT:      -5.1      1.979      3.431
REMARK  Name = NuBBE_322
REMARK  7 active torsions:
REMARK  status: ('A' for Active; 'I' for Inactive)
REMARK    1  A    between atoms: O_1  and  C_2
REMARK    2  A    between atoms: C_4  and  O_13
REMARK    3  A    between atoms: C_6  and  O_11
REMARK    4  A    between atoms: C_8  and  O_10
REMARK    5  A    between atoms: O_11  and  C_12
REMARK    6  A    between atoms: C_14  and  O_19
REMARK    7  A    between atoms: C_16  and  O_18
REMARK                            x       y       z     vdW  Elec       q    Type
REMARK                         _______ _______ _______ _____ _____    ______ ____
ROOT
ATOM      1  C   LIG A   1      -9.098   5.921 132.144  0.00  0.00    +0.176 C 
ATOM      2  C   LIG A   1      -8.863   6.871 130.968  0.00  0.00    +0.177 C 
ATOM      3  C   LIG A   1     -10.114   7.066 130.083  0.00  0.00    +0.180 C 
ATOM      4  C   LIG A   1     -10.701   5.709 129.641  0.00  0.00    +0.177 C 
ATOM      5  C   LIG A   1      -9.659   4.577 131.665  0.00  0.00    +0.176 C 
ATOM      6  C   LIG A   1     -10.926   4.772 130.832  0.00  0.00    +0.176 C 
ENDROOT
BRANCH   1   7
ATOM      7  O   LIG A   1     -10.026   6.490 133.081  0.00  0.00    -0.387 OA
ATOM      8  H   LIG A   1     -10.312   5.768 133.672  0.00  0.00    +0.210 HD
ENDBRANCH   1   7
BRANCH   4   9
ATOM      9  O   LIG A   1     -11.979   5.892 129.002  0.00  0.00    -0.387 OA
ATOM     10  H   LIG A   1     -12.452   5.047 129.150  0.00  0.00    +0.210 HD
ENDBRANCH   4   9
BRANCH   3  11
ATOM     11  O   LIG A   1      -9.652   7.868 128.969  0.00  0.00    -0.374 OA
ATOM     12  C   LIG A   1     -10.680   8.619 128.336  0.00  0.00    +0.194 C 
ENDBRANCH   3  11
BRANCH   2  13
ATOM     13  O   LIG A   1      -7.788   6.367 130.164  0.00  0.00    -0.387 OA
ATOM     14  H   LIG A   1      -7.107   6.078 130.810  0.00  0.00    +0.210 HD
ENDBRANCH   2  13
BRANCH   6  15
ATOM     15  O   LIG A   1     -11.383   3.501 130.335  0.00  0.00    -0.387 OA
ATOM     16  H   LIG A   1     -12.174   3.287 130.871  0.00  0.00    +0.210 HD
ENDBRANCH   6  15
BRANCH   5  17
ATOM     17  O   LIG A   1     -10.002   3.760 132.800  0.00  0.00    -0.387 OA
ATOM     18  H   LIG A   1     -10.861   3.348 132.573  0.00  0.00    +0.210 HD
ENDBRANCH   5  17
TORSDOF 6
ENDMDL
MODEL 4
REMARK VINA RESULT:      -4.9      1.575      3.155
REMARK  Name = NuBBE_322
REMARK  7 active torsions:
REMARK  status: ('A' for Active; 'I' for Inactive)
REMARK    1  A    between atoms: O_1  and  C_2
REMARK    2  A    between atoms: C_4  and  O_13
REMARK    3  A    between atoms: C_6  and  O_11
REMARK    4  A    between atoms: C_8  and  O_10
REMARK    5  A    between atoms: O_11  and  C_12
REMARK    6  A    between atoms: C_14  and  O_19
REMARK    7  A    between atoms: C_16  and  O_18
REMARK                            x       y       z     vdW  Elec       q    Type
REMARK                         _______ _______ _______ _____ _____    ______ ____
ROOT
ATOM      1  C   LIG A   1     -10.950   7.513 128.205  0.00  0.00    +0.176 C 
ATOM      2  C   LIG A   1     -10.043   6.606 129.038  0.00  0.00    +0.177 C 
ATOM      3  C   LIG A   1     -10.786   5.893 130.190  0.00  0.00    +0.180 C 
ATOM      4  C   LIG A   1     -11.570   6.901 131.055  0.00  0.00    +0.177 C 
ATOM      5  C   LIG A   1     -11.695   8.516 129.093  0.00  0.00    +0.176 C 
ATOM      6  C   LIG A   1     -12.470   7.802 130.201  0.00  0.00    +0.176 C 
ENDROOT
BRANCH   1   7
ATOM      7  O   LIG A   1     -11.921   6.739 127.484  0.00  0.00    -0.387 OA
ATOM      8  H   LIG A   1     -12.799   7.097 127.716  0.00  0.00    +0.210 HD
ENDBRANCH   1   7
BRANCH   4   9
ATOM      9  O   LIG A   1     -12.427   6.214 131.987  0.00  0.00    -0.387 OA
ATOM     10  H   LIG A   1     -13.042   5.700 131.424  0.00  0.00    +0.210 HD
ENDBRANCH   4   9
BRANCH   3  11
ATOM     11  O   LIG A   1      -9.744   5.211 130.929  0.00  0.00    -0.374 OA
ATOM     12  C   LIG A   1      -9.916   3.800 130.995  0.00  0.00    +0.194 C 
ENDBRANCH   3  11
BRANCH   2  13
ATOM     13  O   LIG A   1      -8.967   7.385 129.578  0.00  0.00    -0.387 OA
ATOM     14  H   LIG A   1      -9.066   8.270 129.165  0.00  0.00    +0.210 HD
ENDBRANCH   2  13
BRANCH   6  15
ATOM     15  O   LIG A   1     -13.095   8.772 131.062  0.00  0.00    -0.387 OA
ATOM     16  H   LIG A   1     -12.607   8.712 131.910  0.00  0.00    +0.210 HD
ENDBRANCH   6  15
BRANCH   5  17
ATOM     17  O   LIG A   1     -12.643   9.257 128.303  0.00  0.00    -0.387 OA
ATOM     18  H   LIG A   1     -12.239  10.140 128.175  0.00  0.00    +0.210 HD
ENDBRANCH   5  17
TORSDOF 6
ENDMDL
MODEL 5
REMARK VINA RESULT:      -4.9      1.545      3.533
REMARK  Name = NuBBE_322
REMARK  7 active torsions:
REMARK  status: ('A' for Active; 'I' for Inactive)
REMARK    1  A    between atoms: O_1  and  C_2
REMARK    2  A    between atoms: C_4  and  O_13
REMARK    3  A    between atoms: C_6  and  O_11
REMARK    4  A    between atoms: C_8  and  O_10
REMARK    5  A    between atoms: O_11  and  C_12
REMARK    6  A    between atoms: C_14  and  O_19
REMARK    7  A    between atoms: C_16  and  O_18
REMARK                            x       y       z     vdW  Elec       q    Type
REMARK                         _______ _______ _______ _____ _____    ______ ____
ROOT
ATOM      1  C   LIG A   1     -11.190   5.175 130.871  0.00  0.00    +0.176 C 
ATOM      2  C   LIG A   1     -12.292   6.117 130.382  0.00  0.00    +0.177 C 
ATOM      3  C   LIG A   1     -11.856   7.001 129.193  0.00  0.00    +0.180 C 
ATOM      4  C   LIG A   1     -10.539   7.742 129.503  0.00  0.00    +0.177 C 
ATOM      5  C   LIG A   1      -9.905   5.948 131.191  0.00  0.00    +0.176 C 
ATOM      6  C   LIG A   1      -9.449   6.782 129.993  0.00  0.00    +0.176 C 
ENDROOT
BRANCH   1   7
ATOM      7  O   LIG A   1     -10.886   4.186 129.875  0.00  0.00    -0.387 OA
ATOM      8  H   LIG A   1     -11.612   3.534 129.890  0.00  0.00    +0.210 HD
ENDBRANCH   1   7
BRANCH   4   9
ATOM      9  O   LIG A   1     -10.028   8.389 128.322  0.00  0.00    -0.387 OA
ATOM     10  H   LIG A   1     -10.085   7.706 127.622  0.00  0.00    +0.210 HD
ENDBRANCH   4   9
BRANCH   3  11
ATOM     11  O   LIG A   1     -12.970   7.901 128.979  0.00  0.00    -0.374 OA
ATOM     12  C   LIG A   1     -13.794   7.544 127.877  0.00  0.00    +0.194 C 
ENDBRANCH   3  11
BRANCH   2  13
ATOM     13  O   LIG A   1     -12.710   6.955 131.468  0.00  0.00    -0.387 OA
ATOM     14  H   LIG A   1     -13.600   6.623 131.713  0.00  0.00    +0.210 HD
ENDBRANCH   2  13
BRANCH   6  15
ATOM     15  O   LIG A   1      -8.287   7.553 130.351  0.00  0.00    -0.387 OA
ATOM     16  H   LIG A   1      -7.922   7.873 129.500  0.00  0.00    +0.210 HD
ENDBRANCH   6  15
BRANCH   5  17
ATOM     17  O   LIG A   1      -8.848   5.025 131.510  0.00  0.00    -0.387 OA
ATOM     18  H   LIG A   1      -8.356   4.893 130.673  0.00  0.00    +0.210 HD
ENDBRANCH   5  17
TORSDOF 6
ENDMDL
MODEL 6
REMARK VINA RESULT:      -4.8      2.012      3.643
REMARK  Name = NuBBE_322
REMARK  7 active torsions:
REMARK  status: ('A' for Active; 'I' for Inactive)
REMARK    1  A    between atoms: O_1  and  C_2
REMARK    2  A    between atoms: C_4  and  O_13
REMARK    3  A    between atoms: C_6  and  O_11
REMARK    4  A    between atoms: C_8  and  O_10
REMARK    5  A    between atoms: O_11  and  C_12
REMARK    6  A    between atoms: C_14  and  O_19
REMARK    7  A    between atoms: C_16  and  O_18
REMARK                            x       y       z     vdW  Elec       q    Type
REMARK                         _______ _______ _______ _____ _____    ______ ____
ROOT
ATOM      1  C   LIG A   1      -8.640   6.855 131.025  0.00  0.00    +0.176 C 
ATOM      2  C   LIG A   1      -8.835   5.852 132.163  0.00  0.00    +0.177 C 
ATOM      3  C   LIG A   1      -9.465   4.520 131.701  0.00  0.00    +0.180 C 
ATOM      4  C   LIG A   1     -10.761   4.765 130.900  0.00  0.00    +0.177 C 
ATOM      5  C   LIG A   1      -9.951   7.091 130.266  0.00  0.00    +0.176 C 
ATOM      6  C   LIG A   1     -10.546   5.774 129.767  0.00  0.00    +0.176 C 
ENDROOT
BRANCH   1   7
ATOM      7  O   LIG A   1      -7.657   6.381 130.091  0.00  0.00    -0.387 OA
ATOM      8  H   LIG A   1      -7.882   6.764 129.222  0.00  0.00    +0.210 HD
ENDBRANCH   1   7
BRANCH   4   9
ATOM      9  O   LIG A   1     -11.223   3.544 130.292  0.00  0.00    -0.387 OA
ATOM     10  H   LIG A   1     -10.409   3.021 130.139  0.00  0.00    +0.210 HD
ENDBRANCH   4   9
BRANCH   3  11
ATOM     11  O   LIG A   1      -9.693   3.780 132.925  0.00  0.00    -0.374 OA
ATOM     12  C   LIG A   1      -8.946   2.573 133.014  0.00  0.00    +0.194 C 
ENDBRANCH   3  11
BRANCH   2  13
ATOM     13  O   LIG A   1      -9.663   6.443 133.174  0.00  0.00    -0.387 OA
ATOM     14  H   LIG A   1      -9.237   6.195 134.023  0.00  0.00    +0.210 HD
ENDBRANCH   2  13
BRANCH   6  15
ATOM     15  O   LIG A   1     -11.812   6.022 129.128  0.00  0.00    -0.387 OA
ATOM     16  H   LIG A   1     -12.280   5.162 129.148  0.00  0.00    +0.210 HD
ENDBRANCH   6  15
BRANCH   5  17
ATOM     17  O   LIG A   1      -9.708   7.925 129.119  0.00  0.00    -0.387 OA
ATOM     18  H   LIG A   1      -9.079   8.611 129.425  0.00  0.00    +0.210 HD
ENDBRANCH   5  17
TORSDOF 6
ENDMDL
MODEL 7
REMARK VINA RESULT:      -4.8      1.509      2.288
REMARK  Name = NuBBE_322
REMARK  7 active torsions:
REMARK  status: ('A' for Active; 'I' for Inactive)
REMARK    1  A    between atoms: O_1  and  C_2
REMARK    2  A    between atoms: C_4  and  O_13
REMARK    3  A    between atoms: C_6  and  O_11
REMARK    4  A    between atoms: C_8  and  O_10
REMARK    5  A    between atoms: O_11  and  C_12
REMARK    6  A    between atoms: C_14  and  O_19
REMARK    7  A    between atoms: C_16  and  O_18
REMARK                            x       y       z     vdW  Elec       q    Type
REMARK                         _______ _______ _______ _____ _____    ______ ____
ROOT
ATOM      1  C   LIG A   1     -12.714   6.820 130.329  0.00  0.00    +0.176 C 
ATOM      2  C   LIG A   1     -11.677   5.845 130.890  0.00  0.00    +0.177 C 
ATOM      3  C   LIG A   1     -10.270   6.467 131.033  0.00  0.00    +0.180 C 
ATOM      4  C   LIG A   1      -9.814   7.121 129.712  0.00  0.00    +0.177 C 
ATOM      5  C   LIG A   1     -12.237   7.432 129.006  0.00  0.00    +0.176 C 
ATOM      6  C   LIG A   1     -10.866   8.091 129.165  0.00  0.00    +0.176 C 
ENDROOT
BRANCH   1   7
ATOM      7  O   LIG A   1     -12.965   7.887 131.256  0.00  0.00    -0.387 OA
ATOM      8  H   LIG A   1     -12.728   7.555 132.142  0.00  0.00    +0.210 HD
ENDBRANCH   1   7
BRANCH   4   9
ATOM      9  O   LIG A   1      -8.606   7.881 129.911  0.00  0.00    -0.387 OA
ATOM     10  H   LIG A   1      -7.900   7.331 129.513  0.00  0.00    +0.210 HD
ENDBRANCH   4   9
BRANCH   3  11
ATOM     11  O   LIG A   1      -9.422   5.364 131.436  0.00  0.00    -0.374 OA
ATOM     12  C   LIG A   1      -8.947   5.463 132.772  0.00  0.00    +0.194 C 
ENDBRANCH   3  11
BRANCH   2  13
ATOM     13  O   LIG A   1     -11.603   4.695 130.037  0.00  0.00    -0.387 OA
ATOM     14  H   LIG A   1     -12.306   4.835 129.366  0.00  0.00    +0.210 HD
ENDBRANCH   2  13
BRANCH   6  15
ATOM     15  O   LIG A   1     -10.414   8.587 127.891  0.00  0.00    -0.387 OA
ATOM     16  H   LIG A   1      -9.559   9.028 128.079  0.00  0.00    +0.210 HD
ENDBRANCH   6  15
BRANCH   5  17
ATOM     17  O   LIG A   1     -13.164   8.446 128.576  0.00  0.00    -0.387 OA
ATOM     18  H   LIG A   1     -12.758   9.298 128.841  0.00  0.00    +0.210 HD
ENDBRANCH   5  17
TORSDOF 6
ENDMDL
MODEL 8
REMARK VINA RESULT:      -4.6      1.941      3.972
REMARK  Name = NuBBE_322
REMARK  7 active torsions:
REMARK  status: ('A' for Active; 'I' for Inactive)
REMARK    1  A    between atoms: O_1  and  C_2
REMARK    2  A    between atoms: C_4  and  O_13
REMARK    3  A    between atoms: C_6  and  O_11
REMARK    4  A    between atoms: C_8  and  O_10
REMARK    5  A    between atoms: O_11  and  C_12
REMARK    6  A    between atoms: C_14  and  O_19
REMARK    7  A    between atoms: C_16  and  O_18
REMARK                            x       y       z     vdW  Elec       q    Type
REMARK                         _______ _______ _______ _____ _____    ______ ____
ROOT
ATOM      1  C   LIG A   1      -8.206   5.926 130.332  0.00  0.00    +0.176 C 
ATOM      2  C   LIG A   1      -9.386   5.726 129.380  0.00  0.00    +0.177 C 
ATOM      3  C   LIG A   1     -10.736   6.182 129.977  0.00  0.00    +0.180 C 
ATOM      4  C   LIG A   1     -10.977   5.544 131.360  0.00  0.00    +0.177 C 
ATOM      5  C   LIG A   1      -8.471   5.259 131.687  0.00  0.00    +0.176 C 
ATOM      6  C   LIG A   1      -9.783   5.752 132.298  0.00  0.00    +0.176 C 
ENDROOT
BRANCH   1   7
ATOM      7  O   LIG A   1      -7.963   7.323 130.556  0.00  0.00    -0.387 OA
ATOM      8  H   LIG A   1      -8.586   7.613 131.248  0.00  0.00    +0.210 HD
ENDBRANCH   1   7
BRANCH   4   9
ATOM      9  O   LIG A   1     -12.123   6.136 132.001  0.00  0.00    -0.387 OA
ATOM     10  H   LIG A   1     -12.884   5.609 131.682  0.00  0.00    +0.210 HD
ENDBRANCH   4   9
BRANCH   3  11
ATOM     11  O   LIG A   1     -11.723   5.785 128.994  0.00  0.00    -0.374 OA
ATOM     12  C   LIG A   1     -12.550   6.851 128.546  0.00  0.00    +0.194 C 
ENDBRANCH   3  11
BRANCH   2  13
ATOM     13  O   LIG A   1      -9.471   4.340 129.020  0.00  0.00    -0.387 OA
ATOM     14  H   LIG A   1     -10.382   4.072 129.269  0.00  0.00    +0.210 HD
ENDBRANCH   2  13
BRANCH   6  15
ATOM     15  O   LIG A   1     -10.041   5.052 133.530  0.00  0.00    -0.387 OA
ATOM     16  H   LIG A   1      -9.548   4.209 133.451  0.00  0.00    +0.210 HD
ENDBRANCH   6  15
BRANCH   5  17
ATOM     17  O   LIG A   1      -7.411   5.583 132.606  0.00  0.00    -0.387 OA
ATOM     18  H   LIG A   1      -7.526   6.534 132.810  0.00  0.00    +0.210 HD
ENDBRANCH   5  17
TORSDOF 6
ENDMDL
MODEL 9
REMARK VINA RESULT:      -4.5      7.081      9.138
REMARK  Name = NuBBE_322
REMARK  7 active torsions:
REMARK  status: ('A' for Active; 'I' for Inactive)
REMARK    1  A    between atoms: O_1  and  C_2
REMARK    2  A    between atoms: C_4  and  O_13
REMARK    3  A    between atoms: C_6  and  O_11
REMARK    4  A    between atoms: C_8  and  O_10
REMARK    5  A    between atoms: O_11  and  C_12
REMARK    6  A    between atoms: C_14  and  O_19
REMARK    7  A    between atoms: C_16  and  O_18
REMARK                            x       y       z     vdW  Elec       q    Type
REMARK                         _______ _______ _______ _____ _____    ______ ____
ROOT
ATOM      1  C   LIG A   1      -7.359   1.912 124.579  0.00  0.00    +0.176 C 
ATOM      2  C   LIG A   1      -6.972   0.444 124.387  0.00  0.00    +0.177 C 
ATOM      3  C   LIG A   1      -7.824  -0.277 123.320  0.00  0.00    +0.180 C 
ATOM      4  C   LIG A   1      -9.331  -0.094 123.593  0.00  0.00    +0.177 C 
ATOM      5  C   LIG A   1      -8.858   2.054 124.870  0.00  0.00    +0.176 C 
ATOM      6  C   LIG A   1      -9.698   1.382 123.784  0.00  0.00    +0.176 C 
ENDROOT
BRANCH   1   7
ATOM      7  O   LIG A   1      -7.054   2.677 123.402  0.00  0.00    -0.387 OA
ATOM      8  H   LIG A   1      -6.198   3.117 123.564  0.00  0.00    +0.210 HD
ENDBRANCH   1   7
BRANCH   4   9
ATOM      9  O   LIG A   1     -10.112  -0.581 122.485  0.00  0.00    -0.387 OA
ATOM     10  H   LIG A   1     -11.019  -0.671 122.842  0.00  0.00    +0.210 HD
ENDBRANCH   4   9
BRANCH   3  11
ATOM     11  O   LIG A   1      -7.405  -1.662 123.392  0.00  0.00    -0.374 OA
ATOM     12  C   LIG A   1      -6.265  -1.959 122.594  0.00  0.00    +0.194 C 
ENDBRANCH   3  11
BRANCH   2  13
ATOM     13  O   LIG A   1      -7.100  -0.243 125.640  0.00  0.00    -0.387 OA
ATOM     14  H   LIG A   1      -6.566  -1.059 125.533  0.00  0.00    +0.210 HD
ENDBRANCH   2  13
BRANCH   6  15
ATOM     15  O   LIG A   1     -11.094   1.466 124.126  0.00  0.00    -0.387 OA
ATOM     16  H   LIG A   1     -11.200   0.886 124.909  0.00  0.00    +0.210 HD
ENDBRANCH   6  15
BRANCH   5  17
ATOM     17  O   LIG A   1      -9.218   3.447 124.904  0.00  0.00    -0.387 OA
ATOM     18  H   LIG A   1      -9.289   3.720 123.966  0.00  0.00    +0.210 HD
ENDBRANCH   5  17
TORSDOF 6
ENDMDL
