MODEL 1
REMARK VINA RESULT:      -9.2      0.000      0.000
REMARK  Name = NuBBE_124
REMARK  17 active torsions:
REMARK  status: ('A' for Active; 'I' for Inactive)
REMARK    1  A    between atoms: O_1  and  C_2
REMARK    2  A    between atoms: C_5  and  C_6
REMARK    3  A    between atoms: C_10  and  O_11
REMARK    4  A    between atoms: C_12  and  O_13
REMARK    5  A    between atoms: O_13  and  C_14
REMARK    6  A    between atoms: C_17  and  C_25
REMARK    7  A    between atoms: C_19  and  O_24
REMARK    8  A    between atoms: C_21  and  O_23
REMARK    9  A    between atoms: C_25  and  O_26
REMARK   10  A    between atoms: O_26  and  C_27
REMARK   11  A    between atoms: C_29  and  O_41
REMARK   12  A    between atoms: C_31  and  O_40
REMARK   13  A    between atoms: C_33  and  O_35
REMARK   14  A    between atoms: C_36  and  C_38
REMARK   15  A    between atoms: C_42  and  O_44
REMARK   16  A    between atoms: C_45  and  O_46
REMARK   17  A    between atoms: O_46  and  C_47
REMARK                            x       y       z     vdW  Elec       q    Type
REMARK                         _______ _______ _______ _____ _____    ______ ____
ROOT
ATOM      1  C   LIG A   1      -6.686   0.100 129.015  0.00  0.00    +0.340 C 
ATOM      2  O   LIG A   1      -7.799  -0.799 128.724  0.00  0.00    -0.331 OA
ATOM      3  C   LIG A   1      -7.464  -2.178 129.019  0.00  0.00    +0.179 C 
ATOM      4  C   LIG A   1      -7.133  -2.335 130.527  0.00  0.00    +0.177 C 
ATOM      5  C   LIG A   1      -7.251  -0.981 131.250  0.00  0.00    +0.180 C 
ATOM      6  C   LIG A   1      -6.362   0.053 130.541  0.00  0.00    +0.214 C 
ENDROOT
BRANCH   5   7
ATOM      7  O   LIG A   1      -8.616  -0.568 131.302  0.00  0.00    -0.386 OA
ATOM      8  H   LIG A   1      -8.641   0.309 131.741  0.00  0.00    +0.210 HD
ENDBRANCH   5   7
BRANCH   4   9
ATOM      9  O   LIG A   1      -5.781  -2.812 130.671  0.00  0.00    -0.387 OA
ATOM     10  H   LIG A   1      -5.807  -3.786 130.610  0.00  0.00    +0.210 HD
ENDBRANCH   4   9
BRANCH   6  11
ATOM     11  O   LIG A   1      -4.975  -0.265 130.782  0.00  0.00    -0.383 OA
ATOM     12  H   LIG A   1      -4.485   0.584 130.818  0.00  0.00    +0.210 HD
ENDBRANCH   6  11
BRANCH   1  13
ATOM     13  O   LIG A   1      -7.050   1.438 128.612  0.00  0.00    -0.454 OA
BRANCH  13  19
ATOM     14  C   LIG A   1      -7.110   3.312 122.496  0.00  0.00    +0.139 A 
ATOM     15  O   LIG A   1      -6.064   3.160 123.400  0.00  0.00    -0.454 OA
ATOM     16  C   LIG A   1      -6.341   2.698 124.664  0.00  0.00    +0.146 A 
ATOM     17  C   LIG A   1      -7.602   2.293 125.078  0.00  0.00    +0.109 A 
ATOM     18  C   LIG A   1      -7.812   1.880 126.408  0.00  0.00    +0.177 A 
ATOM     19  C   LIG A   1      -6.741   1.850 127.329  0.00  0.00    +0.207 A 
ATOM     20  C   LIG A   1      -5.459   2.218 126.875  0.00  0.00    +0.169 A 
ATOM     21  C   LIG A   1      -5.273   2.643 125.551  0.00  0.00    +0.096 A 
ATOM     22  C   LIG A   1      -8.363   2.897 122.764  0.00  0.00    +0.098 A 
ATOM     23  C   LIG A   1      -8.670   2.314 124.079  0.00  0.00    +0.197 A 
ATOM     24  O   LIG A   1      -9.793   1.873 124.338  0.00  0.00    -0.287 OA
BRANCH  14  28
ATOM     25  C   LIG A   1      -6.051   5.205 118.790  0.00  0.00    +0.117 A 
ATOM     26  C   LIG A   1      -5.144   5.196 119.841  0.00  0.00    +0.046 A 
ATOM     27  C   LIG A   1      -5.492   4.576 121.050  0.00  0.00    +0.015 A 
ATOM     28  C   LIG A   1      -6.741   3.953 121.217  0.00  0.00    +0.018 A 
ATOM     29  C   LIG A   1      -7.640   3.993 120.136  0.00  0.00    +0.015 A 
ATOM     30  C   LIG A   1      -7.295   4.610 118.928  0.00  0.00    +0.046 A 
BRANCH  25  31
ATOM     31  O   LIG A   1      -5.759   5.793 117.596  0.00  0.00    -0.507 OA
ATOM     32  H   LIG A   1      -6.271   6.615 117.519  0.00  0.00    +0.292 HD
ENDBRANCH  25  31
ENDBRANCH  14  28
BRANCH  18  33
ATOM     33  O   LIG A   1      -9.068   1.529 126.847  0.00  0.00    -0.503 OA
ATOM     34  H   LIG A   1      -9.704   2.232 126.583  0.00  0.00    +0.292 HD
ENDBRANCH  18  33
BRANCH  20  35
ATOM     35  O   LIG A   1      -4.385   2.079 127.712  0.00  0.00    -0.491 OA
ATOM     36  C   LIG A   1      -3.471   3.172 127.738  0.00  0.00    +0.277 C 
ENDBRANCH  20  35
ENDBRANCH  13  19
ENDBRANCH   1  13
BRANCH   3  37
ATOM     37  C   LIG A   1      -8.646  -3.104 128.638  0.00  0.00    +0.197 C 
BRANCH  37  38
ATOM     38  O   LIG A   1      -8.465  -3.646 127.325  0.00  0.00    -0.346 OA
BRANCH  38  39
ATOM     39  C   LIG A   1      -7.845  -2.727 126.401  0.00  0.00    +0.282 C 
ATOM     40  C   LIG A   1      -9.003  -2.099 125.577  0.00  0.00    +0.201 C 
ATOM     41  C   LIG A   1      -8.496  -1.325 124.362  0.00  0.00    +0.179 C 
ATOM     42  C   LIG A   1      -7.475  -2.150 123.577  0.00  0.00    +0.174 C 
ATOM     43  C   LIG A   1      -6.349  -2.551 124.532  0.00  0.00    +0.149 C 
ATOM     44  C   LIG A   1      -5.247  -3.302 123.791  0.00  0.00    +0.040 C 
ATOM     45  O   LIG A   1      -6.874  -3.386 125.578  0.00  0.00    -0.343 OA
BRANCH  42  46
ATOM     46  O   LIG A   1      -6.992  -1.369 122.481  0.00  0.00    -0.387 OA
ATOM     47  H   LIG A   1      -7.543  -0.560 122.483  0.00  0.00    +0.210 HD
ENDBRANCH  42  46
BRANCH  41  48
ATOM     48  O   LIG A   1      -9.588  -1.000 123.485  0.00  0.00    -0.386 OA
ATOM     49  H   LIG A   1      -9.834  -1.856 123.071  0.00  0.00    +0.210 HD
ENDBRANCH  41  48
BRANCH  40  50
ATOM     50  O   LIG A   1      -9.913  -3.110 125.084  0.00  0.00    -0.384 OA
ATOM     51  H   LIG A   1     -10.475  -2.647 124.427  0.00  0.00    +0.210 HD
ENDBRANCH  40  50
ENDBRANCH  38  39
ENDBRANCH  37  38
ENDBRANCH   3  37
TORSDOF 15
ENDMDL
MODEL 2
REMARK VINA RESULT:      -9.1      4.166      8.071
REMARK  Name = NuBBE_124
REMARK  17 active torsions:
REMARK  status: ('A' for Active; 'I' for Inactive)
REMARK    1  A    between atoms: O_1  and  C_2
REMARK    2  A    between atoms: C_5  and  C_6
REMARK    3  A    between atoms: C_10  and  O_11
REMARK    4  A    between atoms: C_12  and  O_13
REMARK    5  A    between atoms: O_13  and  C_14
REMARK    6  A    between atoms: C_17  and  C_25
REMARK    7  A    between atoms: C_19  and  O_24
REMARK    8  A    between atoms: C_21  and  O_23
REMARK    9  A    between atoms: C_25  and  O_26
REMARK   10  A    between atoms: O_26  and  C_27
REMARK   11  A    between atoms: C_29  and  O_41
REMARK   12  A    between atoms: C_31  and  O_40
REMARK   13  A    between atoms: C_33  and  O_35
REMARK   14  A    between atoms: C_36  and  C_38
REMARK   15  A    between atoms: C_42  and  O_44
REMARK   16  A    between atoms: C_45  and  O_46
REMARK   17  A    between atoms: O_46  and  C_47
REMARK                            x       y       z     vdW  Elec       q    Type
REMARK                         _______ _______ _______ _____ _____    ______ ____
ROOT
ATOM      1  C   LIG A   1      -3.661   5.583 128.872  0.00  0.00    +0.340 C 
ATOM      2  O   LIG A   1      -4.967   5.930 129.422  0.00  0.00    -0.331 OA
ATOM      3  C   LIG A   1      -4.900   6.162 130.852  0.00  0.00    +0.179 C 
ATOM      4  C   LIG A   1      -3.949   7.349 131.155  0.00  0.00    +0.177 C 
ATOM      5  C   LIG A   1      -3.357   7.913 129.851  0.00  0.00    +0.180 C 
ATOM      6  C   LIG A   1      -2.677   6.779 129.067  0.00  0.00    +0.214 C 
ENDROOT
BRANCH   5   7
ATOM      7  O   LIG A   1      -4.376   8.557 129.086  0.00  0.00    -0.386 OA
ATOM      8  H   LIG A   1      -4.912   7.854 128.661  0.00  0.00    +0.210 HD
ENDBRANCH   5   7
BRANCH   4   9
ATOM      9  O   LIG A   1      -2.865   6.890 131.986  0.00  0.00    -0.387 OA
ATOM     10  H   LIG A   1      -3.252   6.579 132.825  0.00  0.00    +0.210 HD
ENDBRANCH   4   9
BRANCH   6  11
ATOM     11  O   LIG A   1      -1.477   6.374 129.758  0.00  0.00    -0.383 OA
ATOM     12  H   LIG A   1      -1.262   5.465 129.456  0.00  0.00    +0.210 HD
ENDBRANCH   6  11
BRANCH   1  13
ATOM     13  O   LIG A   1      -3.814   5.273 127.470  0.00  0.00    -0.454 OA
BRANCH  13  19
ATOM     14  C   LIG A   1      -7.909   0.781 125.475  0.00  0.00    +0.139 A 
ATOM     15  O   LIG A   1      -6.593   0.693 125.920  0.00  0.00    -0.454 OA
ATOM     16  C   LIG A   1      -5.953   1.838 126.329  0.00  0.00    +0.146 A 
ATOM     17  C   LIG A   1      -6.567   3.081 126.402  0.00  0.00    +0.109 A 
ATOM     18  C   LIG A   1      -5.825   4.216 126.782  0.00  0.00    +0.177 A 
ATOM     19  C   LIG A   1      -4.457   4.101 127.116  0.00  0.00    +0.207 A 
ATOM     20  C   LIG A   1      -3.866   2.823 127.083  0.00  0.00    +0.169 A 
ATOM     21  C   LIG A   1      -4.617   1.707 126.685  0.00  0.00    +0.096 A 
ATOM     22  C   LIG A   1      -8.624   1.919 125.556  0.00  0.00    +0.098 A 
ATOM     23  C   LIG A   1      -7.991   3.141 126.074  0.00  0.00    +0.197 A 
ATOM     24  O   LIG A   1      -8.633   4.186 126.215  0.00  0.00    -0.287 OA
BRANCH  14  28
ATOM     25  C   LIG A   1      -9.489  -2.866 123.850  0.00  0.00    +0.117 A 
ATOM     26  C   LIG A   1      -9.337  -2.735 125.224  0.00  0.00    +0.046 A 
ATOM     27  C   LIG A   1      -8.822  -1.542 125.753  0.00  0.00    +0.015 A 
ATOM     28  C   LIG A   1      -8.463  -0.469 124.917  0.00  0.00    +0.018 A 
ATOM     29  C   LIG A   1      -8.617  -0.643 123.530  0.00  0.00    +0.015 A 
ATOM     30  C   LIG A   1      -9.132  -1.831 123.000  0.00  0.00    +0.046 A 
BRANCH  25  31
ATOM     31  O   LIG A   1      -9.985  -4.004 123.290  0.00  0.00    -0.507 OA
ATOM     32  H   LIG A   1     -10.432  -3.774 122.458  0.00  0.00    +0.292 HD
ENDBRANCH  25  31
ENDBRANCH  14  28
BRANCH  18  33
ATOM     33  O   LIG A   1      -6.407   5.463 126.806  0.00  0.00    -0.503 OA
ATOM     34  H   LIG A   1      -6.612   5.734 125.882  0.00  0.00    +0.292 HD
ENDBRANCH  18  33
BRANCH  20  35
ATOM     35  O   LIG A   1      -2.579   2.667 127.521  0.00  0.00    -0.491 OA
ATOM     36  C   LIG A   1      -1.558   2.984 126.578  0.00  0.00    +0.277 C 
ENDBRANCH  20  35
ENDBRANCH  13  19
ENDBRANCH   1  13
BRANCH   3  37
ATOM     37  C   LIG A   1      -6.315   6.464 131.407  0.00  0.00    +0.197 C 
BRANCH  37  38
ATOM     38  O   LIG A   1      -7.068   7.255 130.480  0.00  0.00    -0.346 OA
BRANCH  38  39
ATOM     39  C   LIG A   1      -8.495   7.070 130.590  0.00  0.00    +0.282 C 
ATOM     40  C   LIG A   1      -8.752   5.554 130.370  0.00  0.00    +0.201 C 
ATOM     41  C   LIG A   1     -10.232   5.241 130.166  0.00  0.00    +0.179 C 
ATOM     42  C   LIG A   1     -10.854   6.189 129.140  0.00  0.00    +0.174 C 
ATOM     43  C   LIG A   1     -10.615   7.626 129.610  0.00  0.00    +0.149 C 
ATOM     44  C   LIG A   1     -11.291   8.626 128.677  0.00  0.00    +0.040 C 
ATOM     45  O   LIG A   1      -9.203   7.893 129.654  0.00  0.00    -0.343 OA
BRANCH  42  46
ATOM     46  O   LIG A   1     -12.248   5.894 129.019  0.00  0.00    -0.387 OA
ATOM     47  H   LIG A   1     -12.680   6.760 128.878  0.00  0.00    +0.210 HD
ENDBRANCH  42  46
BRANCH  41  48
ATOM     48  O   LIG A   1     -10.398   3.892 129.696  0.00  0.00    -0.386 OA
ATOM     49  H   LIG A   1     -11.176   3.554 130.191  0.00  0.00    +0.210 HD
ENDBRANCH  41  48
BRANCH  40  50
ATOM     50  O   LIG A   1      -8.051   5.061 129.205  0.00  0.00    -0.384 OA
ATOM     51  H   LIG A   1      -7.145   4.860 129.521  0.00  0.00    +0.210 HD
ENDBRANCH  40  50
ENDBRANCH  38  39
ENDBRANCH  37  38
ENDBRANCH   3  37
TORSDOF 15
ENDMDL
MODEL 3
REMARK VINA RESULT:      -9.1      1.615      4.298
REMARK  Name = NuBBE_124
REMARK  17 active torsions:
REMARK  status: ('A' for Active; 'I' for Inactive)
REMARK    1  A    between atoms: O_1  and  C_2
REMARK    2  A    between atoms: C_5  and  C_6
REMARK    3  A    between atoms: C_10  and  O_11
REMARK    4  A    between atoms: C_12  and  O_13
REMARK    5  A    between atoms: O_13  and  C_14
REMARK    6  A    between atoms: C_17  and  C_25
REMARK    7  A    between atoms: C_19  and  O_24
REMARK    8  A    between atoms: C_21  and  O_23
REMARK    9  A    between atoms: C_25  and  O_26
REMARK   10  A    between atoms: O_26  and  C_27
REMARK   11  A    between atoms: C_29  and  O_41
REMARK   12  A    between atoms: C_31  and  O_40
REMARK   13  A    between atoms: C_33  and  O_35
REMARK   14  A    between atoms: C_36  and  C_38
REMARK   15  A    between atoms: C_42  and  O_44
REMARK   16  A    between atoms: C_45  and  O_46
REMARK   17  A    between atoms: O_46  and  C_47
REMARK                            x       y       z     vdW  Elec       q    Type
REMARK                         _______ _______ _______ _____ _____    ______ ____
ROOT
ATOM      1  C   LIG A   1      -7.883  -1.689 128.081  0.00  0.00    +0.340 C 
ATOM      2  O   LIG A   1      -7.160  -0.422 128.054  0.00  0.00    -0.331 OA
ATOM      3  C   LIG A   1      -6.791   0.012 129.387  0.00  0.00    +0.179 C 
ATOM      4  C   LIG A   1      -5.854  -1.033 130.048  0.00  0.00    +0.177 C 
ATOM      5  C   LIG A   1      -5.607  -2.216 129.095  0.00  0.00    +0.180 C 
ATOM      6  C   LIG A   1      -6.957  -2.807 128.656  0.00  0.00    +0.214 C 
ENDROOT
BRANCH   5   7
ATOM      7  O   LIG A   1      -4.820  -1.795 127.981  0.00  0.00    -0.386 OA
ATOM      8  H   LIG A   1      -5.438  -1.556 127.258  0.00  0.00    +0.210 HD
ENDBRANCH   5   7
BRANCH   4   9
ATOM      9  O   LIG A   1      -6.473  -1.537 131.248  0.00  0.00    -0.387 OA
ATOM     10  H   LIG A   1      -6.893  -0.780 131.699  0.00  0.00    +0.210 HD
ENDBRANCH   4   9
BRANCH   6  11
ATOM     11  O   LIG A   1      -7.569  -3.482 129.775  0.00  0.00    -0.383 OA
ATOM     12  H   LIG A   1      -8.275  -4.060 129.414  0.00  0.00    +0.210 HD
ENDBRANCH   6  11
BRANCH   1  13
ATOM     13  O   LIG A   1      -8.301  -2.016 126.738  0.00  0.00    -0.454 OA
BRANCH  13  19
ATOM     14  C   LIG A   1      -7.625   2.476 122.233  0.00  0.00    +0.139 A 
ATOM     15  O   LIG A   1      -6.793   1.430 122.619  0.00  0.00    -0.454 OA
ATOM     16  C   LIG A   1      -7.215   0.579 123.612  0.00  0.00    +0.146 A 
ATOM     17  C   LIG A   1      -8.466   0.649 124.209  0.00  0.00    +0.109 A 
ATOM     18  C   LIG A   1      -8.802  -0.229 125.257  0.00  0.00    +0.177 A 
ATOM     19  C   LIG A   1      -7.881  -1.206 125.699  0.00  0.00    +0.207 A 
ATOM     20  C   LIG A   1      -6.635  -1.293 125.046  0.00  0.00    +0.169 A 
ATOM     21  C   LIG A   1      -6.312  -0.397 124.016  0.00  0.00    +0.096 A 
ATOM     22  C   LIG A   1      -8.882   2.609 122.697  0.00  0.00    +0.098 A 
ATOM     23  C   LIG A   1      -9.393   1.659 123.697  0.00  0.00    +0.197 A 
ATOM     24  O   LIG A   1     -10.557   1.718 124.100  0.00  0.00    -0.287 OA
BRANCH  14  28
ATOM     25  C   LIG A   1      -5.878   5.203 119.413  0.00  0.00    +0.117 A 
ATOM     26  C   LIG A   1      -7.183   4.766 119.228  0.00  0.00    +0.046 A 
ATOM     27  C   LIG A   1      -7.752   3.876 120.152  0.00  0.00    +0.015 A 
ATOM     28  C   LIG A   1      -7.028   3.423 121.269  0.00  0.00    +0.018 A 
ATOM     29  C   LIG A   1      -5.704   3.876 121.416  0.00  0.00    +0.015 A 
ATOM     30  C   LIG A   1      -5.135   4.765 120.498  0.00  0.00    +0.046 A 
BRANCH  25  31
ATOM     31  O   LIG A   1      -5.283   6.068 118.545  0.00  0.00    -0.507 OA
ATOM     32  H   LIG A   1      -4.319   5.975 118.622  0.00  0.00    +0.292 HD
ENDBRANCH  25  31
ENDBRANCH  14  28
BRANCH  18  33
ATOM     33  O   LIG A   1     -10.018  -0.134 125.895  0.00  0.00    -0.503 OA
ATOM     34  H   LIG A   1      -9.889   0.326 126.755  0.00  0.00    +0.292 HD
ENDBRANCH  18  33
BRANCH  20  35
ATOM     35  O   LIG A   1      -5.778  -2.309 125.371  0.00  0.00    -0.491 OA
ATOM     36  C   LIG A   1      -5.363  -3.142 124.291  0.00  0.00    +0.277 C 
ENDBRANCH  20  35
ENDBRANCH  13  19
ENDBRANCH   1  13
BRANCH   3  37
ATOM     37  C   LIG A   1      -6.084   1.389 129.321  0.00  0.00    +0.197 C 
BRANCH  37  38
ATOM     38  O   LIG A   1      -7.037   2.455 129.387  0.00  0.00    -0.346 OA
BRANCH  38  39
ATOM     39  C   LIG A   1      -6.773   3.524 128.454  0.00  0.00    +0.282 C 
ATOM     40  C   LIG A   1      -8.086   3.729 127.650  0.00  0.00    +0.201 C 
ATOM     41  C   LIG A   1      -7.884   4.623 126.429  0.00  0.00    +0.179 C 
ATOM     42  C   LIG A   1      -6.659   4.181 125.626  0.00  0.00    +0.174 C 
ATOM     43  C   LIG A   1      -5.449   4.180 126.562  0.00  0.00    +0.149 C 
ATOM     44  C   LIG A   1      -4.171   3.836 125.803  0.00  0.00    +0.040 C 
ATOM     45  O   LIG A   1      -5.651   3.222 127.615  0.00  0.00    -0.343 OA
BRANCH  42  46
ATOM     46  O   LIG A   1      -6.479   5.074 124.524  0.00  0.00    -0.387 OA
ATOM     47  H   LIG A   1      -6.287   4.496 123.758  0.00  0.00    +0.210 HD
ENDBRANCH  42  46
BRANCH  41  48
ATOM     48  O   LIG A   1      -9.035   4.563 125.569  0.00  0.00    -0.386 OA
ATOM     49  H   LIG A   1      -8.766   5.055 124.763  0.00  0.00    +0.210 HD
ENDBRANCH  41  48
BRANCH  40  50
ATOM     50  O   LIG A   1      -8.616   2.471 127.170  0.00  0.00    -0.384 OA
ATOM     51  H   LIG A   1      -9.067   2.691 126.328  0.00  0.00    +0.210 HD
ENDBRANCH  40  50
ENDBRANCH  38  39
ENDBRANCH  37  38
ENDBRANCH   3  37
TORSDOF 15
ENDMDL
MODEL 4
REMARK VINA RESULT:      -9.0      3.966      6.891
REMARK  Name = NuBBE_124
REMARK  17 active torsions:
REMARK  status: ('A' for Active; 'I' for Inactive)
REMARK    1  A    between atoms: O_1  and  C_2
REMARK    2  A    between atoms: C_5  and  C_6
REMARK    3  A    between atoms: C_10  and  O_11
REMARK    4  A    between atoms: C_12  and  O_13
REMARK    5  A    between atoms: O_13  and  C_14
REMARK    6  A    between atoms: C_17  and  C_25
REMARK    7  A    between atoms: C_19  and  O_24
REMARK    8  A    between atoms: C_21  and  O_23
REMARK    9  A    between atoms: C_25  and  O_26
REMARK   10  A    between atoms: O_26  and  C_27
REMARK   11  A    between atoms: C_29  and  O_41
REMARK   12  A    between atoms: C_31  and  O_40
REMARK   13  A    between atoms: C_33  and  O_35
REMARK   14  A    between atoms: C_36  and  C_38
REMARK   15  A    between atoms: C_42  and  O_44
REMARK   16  A    between atoms: C_45  and  O_46
REMARK   17  A    between atoms: O_46  and  C_47
REMARK                            x       y       z     vdW  Elec       q    Type
REMARK                         _______ _______ _______ _____ _____    ______ ____
ROOT
ATOM      1  C   LIG A   1      -4.235   4.023 130.552  0.00  0.00    +0.340 C 
ATOM      2  O   LIG A   1      -5.544   4.660 130.662  0.00  0.00    -0.331 OA
ATOM      3  C   LIG A   1      -5.490   5.853 131.484  0.00  0.00    +0.179 C 
ATOM      4  C   LIG A   1      -4.527   6.893 130.852  0.00  0.00    +0.177 C 
ATOM      5  C   LIG A   1      -3.915   6.342 129.552  0.00  0.00    +0.180 C 
ATOM      6  C   LIG A   1      -3.240   4.991 129.840  0.00  0.00    +0.214 C 
ENDROOT
BRANCH   5   7
ATOM      7  O   LIG A   1      -4.918   6.235 128.542  0.00  0.00    -0.386 OA
ATOM      8  H   LIG A   1      -5.695   6.751 128.845  0.00  0.00    +0.210 HD
ENDBRANCH   5   7
BRANCH   4   9
ATOM      9  O   LIG A   1      -3.458   7.175 131.776  0.00  0.00    -0.387 OA
ATOM     10  H   LIG A   1      -3.278   8.132 131.732  0.00  0.00    +0.210 HD
ENDBRANCH   4   9
BRANCH   6  11
ATOM     11  O   LIG A   1      -2.052   5.209 130.630  0.00  0.00    -0.383 OA
ATOM     12  H   LIG A   1      -2.331   5.666 131.452  0.00  0.00    +0.210 HD
ENDBRANCH   6  11
BRANCH   1  13
ATOM     13  O   LIG A   1      -4.376   2.796 129.803  0.00  0.00    -0.454 OA
BRANCH  13  19
ATOM     14  C   LIG A   1      -6.970   3.211 123.970  0.00  0.00    +0.139 A 
ATOM     15  O   LIG A   1      -5.642   3.182 124.385  0.00  0.00    -0.454 OA
ATOM     16  C   LIG A   1      -5.369   3.048 125.725  0.00  0.00    +0.146 A 
ATOM     17  C   LIG A   1      -6.343   2.859 126.696  0.00  0.00    +0.109 A 
ATOM     18  C   LIG A   1      -5.983   2.783 128.056  0.00  0.00    +0.177 A 
ATOM     19  C   LIG A   1      -4.627   2.874 128.446  0.00  0.00    +0.207 A 
ATOM     20  C   LIG A   1      -3.651   3.017 127.440  0.00  0.00    +0.169 A 
ATOM     21  C   LIG A   1      -4.031   3.108 126.093  0.00  0.00    +0.096 A 
ATOM     22  C   LIG A   1      -7.995   2.978 124.811  0.00  0.00    +0.098 A 
ATOM     23  C   LIG A   1      -7.727   2.742 126.238  0.00  0.00    +0.197 A 
ATOM     24  O   LIG A   1      -8.638   2.470 127.024  0.00  0.00    -0.287 OA
BRANCH  14  28
ATOM     25  C   LIG A   1      -7.552   4.103 119.810  0.00  0.00    +0.117 A 
ATOM     26  C   LIG A   1      -6.277   4.171 120.355  0.00  0.00    +0.046 A 
ATOM     27  C   LIG A   1      -6.089   3.878 121.714  0.00  0.00    +0.015 A 
ATOM     28  C   LIG A   1      -7.168   3.507 122.537  0.00  0.00    +0.018 A 
ATOM     29  C   LIG A   1      -8.447   3.463 121.953  0.00  0.00    +0.015 A 
ATOM     30  C   LIG A   1      -8.638   3.753 120.598  0.00  0.00    +0.046 A 
BRANCH  25  31
ATOM     31  O   LIG A   1      -7.784   4.378 118.496  0.00  0.00    -0.507 OA
ATOM     32  H   LIG A   1      -6.952   4.281 118.004  0.00  0.00    +0.292 HD
ENDBRANCH  25  31
ENDBRANCH  14  28
BRANCH  18  33
ATOM     33  O   LIG A   1      -6.943   2.651 129.032  0.00  0.00    -0.503 OA
ATOM     34  H   LIG A   1      -7.491   1.860 128.833  0.00  0.00    +0.292 HD
ENDBRANCH  18  33
BRANCH  20  35
ATOM     35  O   LIG A   1      -2.326   2.982 127.783  0.00  0.00    -0.491 OA
ATOM     36  C   LIG A   1      -1.402   3.076 126.701  0.00  0.00    +0.277 C 
ENDBRANCH  20  35
ENDBRANCH  13  19
ENDBRANCH   1  13
BRANCH   3  37
ATOM     37  C   LIG A   1      -6.907   6.462 131.628  0.00  0.00    +0.197 C 
BRANCH  37  38
ATOM     38  O   LIG A   1      -7.532   6.606 130.347  0.00  0.00    -0.346 OA
BRANCH  38  39
ATOM     39  C   LIG A   1      -8.956   6.824 130.422  0.00  0.00    +0.282 C 
ATOM     40  C   LIG A   1      -9.608   5.414 130.440  0.00  0.00    +0.201 C 
ATOM     41  C   LIG A   1     -11.118   5.471 130.223  0.00  0.00    +0.179 C 
ATOM     42  C   LIG A   1     -11.465   6.361 129.030  0.00  0.00    +0.174 C 
ATOM     43  C   LIG A   1     -10.852   7.743 129.270  0.00  0.00    +0.149 C 
ATOM     44  C   LIG A   1     -11.237   8.712 128.156  0.00  0.00    +0.040 C 
ATOM     45  O   LIG A   1      -9.419   7.633 129.333  0.00  0.00    -0.343 OA
BRANCH  42  46
ATOM     46  O   LIG A   1     -12.887   6.426 128.895  0.00  0.00    -0.387 OA
ATOM     47  H   LIG A   1     -13.238   5.997 129.702  0.00  0.00    +0.210 HD
ENDBRANCH  42  46
BRANCH  41  48
ATOM     48  O   LIG A   1     -11.638   4.153 129.973  0.00  0.00    -0.386 OA
ATOM     49  H   LIG A   1     -11.489   3.667 130.813  0.00  0.00    +0.210 HD
ENDBRANCH  41  48
BRANCH  40  50
ATOM     50  O   LIG A   1      -9.064   4.564 129.403  0.00  0.00    -0.384 OA
ATOM     51  H   LIG A   1      -9.101   5.105 128.587  0.00  0.00    +0.210 HD
ENDBRANCH  40  50
ENDBRANCH  38  39
ENDBRANCH  37  38
ENDBRANCH   3  37
TORSDOF 15
ENDMDL
MODEL 5
REMARK VINA RESULT:      -9.0      4.319      6.707
REMARK  Name = NuBBE_124
REMARK  17 active torsions:
REMARK  status: ('A' for Active; 'I' for Inactive)
REMARK    1  A    between atoms: O_1  and  C_2
REMARK    2  A    between atoms: C_5  and  C_6
REMARK    3  A    between atoms: C_10  and  O_11
REMARK    4  A    between atoms: C_12  and  O_13
REMARK    5  A    between atoms: O_13  and  C_14
REMARK    6  A    between atoms: C_17  and  C_25
REMARK    7  A    between atoms: C_19  and  O_24
REMARK    8  A    between atoms: C_21  and  O_23
REMARK    9  A    between atoms: C_25  and  O_26
REMARK   10  A    between atoms: O_26  and  C_27
REMARK   11  A    between atoms: C_29  and  O_41
REMARK   12  A    between atoms: C_31  and  O_40
REMARK   13  A    between atoms: C_33  and  O_35
REMARK   14  A    between atoms: C_36  and  C_38
REMARK   15  A    between atoms: C_42  and  O_44
REMARK   16  A    between atoms: C_45  and  O_46
REMARK   17  A    between atoms: O_46  and  C_47
REMARK                            x       y       z     vdW  Elec       q    Type
REMARK                         _______ _______ _______ _____ _____    ______ ____
ROOT
ATOM      1  C   LIG A   1      -7.199   2.456 130.181  0.00  0.00    +0.340 C 
ATOM      2  O   LIG A   1      -8.570   2.942 130.055  0.00  0.00    -0.331 OA
ATOM      3  C   LIG A   1      -8.887   3.917 131.079  0.00  0.00    +0.179 C 
ATOM      4  C   LIG A   1      -7.953   5.150 130.950  0.00  0.00    +0.177 C 
ATOM      5  C   LIG A   1      -6.967   4.960 129.783  0.00  0.00    +0.180 C 
ATOM      6  C   LIG A   1      -6.204   3.639 129.970  0.00  0.00    +0.214 C 
ENDROOT
BRANCH   5   7
ATOM      7  O   LIG A   1      -7.665   5.003 128.538  0.00  0.00    -0.386 OA
ATOM      8  H   LIG A   1      -7.654   4.095 128.164  0.00  0.00    +0.210 HD
ENDBRANCH   5   7
BRANCH   4   9
ATOM      9  O   LIG A   1      -7.195   5.302 132.166  0.00  0.00    -0.387 OA
ATOM     10  H   LIG A   1      -7.045   4.409 132.530  0.00  0.00    +0.210 HD
ENDBRANCH   4   9
BRANCH   6  11
ATOM     11  O   LIG A   1      -5.290   3.770 131.080  0.00  0.00    -0.383 OA
ATOM     12  H   LIG A   1      -4.384   3.815 130.706  0.00  0.00    +0.210 HD
ENDBRANCH   6  11
BRANCH   1  13
ATOM     13  O   LIG A   1      -6.979   1.424 129.195  0.00  0.00    -0.454 OA
BRANCH  13  19
ATOM     14  C   LIG A   1      -7.064   3.194 123.048  0.00  0.00    +0.139 A 
ATOM     15  O   LIG A   1      -6.009   3.009 123.936  0.00  0.00    -0.454 OA
ATOM     16  C   LIG A   1      -6.284   2.581 125.213  0.00  0.00    +0.146 A 
ATOM     17  C   LIG A   1      -7.555   2.243 125.657  0.00  0.00    +0.109 A 
ATOM     18  C   LIG A   1      -7.760   1.864 126.997  0.00  0.00    +0.177 A 
ATOM     19  C   LIG A   1      -6.674   1.799 127.900  0.00  0.00    +0.207 A 
ATOM     20  C   LIG A   1      -5.385   2.099 127.417  0.00  0.00    +0.169 A 
ATOM     21  C   LIG A   1      -5.204   2.492 126.082  0.00  0.00    +0.096 A 
ATOM     22  C   LIG A   1      -8.329   2.842 123.346  0.00  0.00    +0.098 A 
ATOM     23  C   LIG A   1      -8.639   2.298 124.676  0.00  0.00    +0.197 A 
ATOM     24  O   LIG A   1      -9.776   1.914 124.962  0.00  0.00    -0.287 OA
BRANCH  14  28
ATOM     25  C   LIG A   1      -5.986   4.971 119.290  0.00  0.00    +0.117 A 
ATOM     26  C   LIG A   1      -5.077   4.978 120.339  0.00  0.00    +0.046 A 
ATOM     27  C   LIG A   1      -5.431   4.395 121.566  0.00  0.00    +0.015 A 
ATOM     28  C   LIG A   1      -6.689   3.795 121.752  0.00  0.00    +0.018 A 
ATOM     29  C   LIG A   1      -7.589   3.819 120.672  0.00  0.00    +0.015 A 
ATOM     30  C   LIG A   1      -7.239   4.398 119.447  0.00  0.00    +0.046 A 
BRANCH  25  31
ATOM     31  O   LIG A   1      -5.689   5.522 118.081  0.00  0.00    -0.507 OA
ATOM     32  H   LIG A   1      -4.785   5.877 118.112  0.00  0.00    +0.292 HD
ENDBRANCH  25  31
ENDBRANCH  14  28
BRANCH  18  33
ATOM     33  O   LIG A   1      -9.023   1.579 127.464  0.00  0.00    -0.503 OA
ATOM     34  H   LIG A   1      -8.993   0.731 127.961  0.00  0.00    +0.292 HD
ENDBRANCH  18  33
BRANCH  20  35
ATOM     35  O   LIG A   1      -4.304   1.924 128.237  0.00  0.00    -0.491 OA
ATOM     36  C   LIG A   1      -3.198   2.791 128.002  0.00  0.00    +0.277 C 
ENDBRANCH  20  35
ENDBRANCH  13  19
ENDBRANCH   1  13
BRANCH   3  37
ATOM     37  C   LIG A   1     -10.366   4.360 130.950  0.00  0.00    +0.197 C 
BRANCH  37  38
ATOM     38  O   LIG A   1     -10.703   4.619 129.583  0.00  0.00    -0.346 OA
BRANCH  38  39
ATOM     39  C   LIG A   1     -11.679   5.669 129.417  0.00  0.00    +0.282 C 
ATOM     40  C   LIG A   1     -11.111   6.618 128.326  0.00  0.00    +0.201 C 
ATOM     41  C   LIG A   1     -11.884   7.932 128.242  0.00  0.00    +0.179 C 
ATOM     42  C   LIG A   1     -12.081   8.539 129.632  0.00  0.00    +0.174 C 
ATOM     43  C   LIG A   1     -12.779   7.500 130.513  0.00  0.00    +0.149 C 
ATOM     44  C   LIG A   1     -13.090   8.074 131.892  0.00  0.00    +0.040 C 
ATOM     45  O   LIG A   1     -11.939   6.342 130.656  0.00  0.00    -0.343 OA
BRANCH  42  46
ATOM     46  O   LIG A   1     -12.851   9.737 129.511  0.00  0.00    -0.387 OA
ATOM     47  H   LIG A   1     -13.783   9.440 129.490  0.00  0.00    +0.210 HD
ENDBRANCH  42  46
BRANCH  41  48
ATOM     48  O   LIG A   1     -11.171   8.880 127.430  0.00  0.00    -0.386 OA
ATOM     49  H   LIG A   1     -10.646   8.327 126.811  0.00  0.00    +0.210 HD
ENDBRANCH  41  48
BRANCH  40  50
ATOM     50  O   LIG A   1      -9.728   6.956 128.585  0.00  0.00    -0.384 OA
ATOM     51  H   LIG A   1      -9.694   7.934 128.536  0.00  0.00    +0.210 HD
ENDBRANCH  40  50
ENDBRANCH  38  39
ENDBRANCH  37  38
ENDBRANCH   3  37
TORSDOF 15
ENDMDL
MODEL 6
REMARK VINA RESULT:      -8.9      2.449      5.455
REMARK  Name = NuBBE_124
REMARK  17 active torsions:
REMARK  status: ('A' for Active; 'I' for Inactive)
REMARK    1  A    between atoms: O_1  and  C_2
REMARK    2  A    between atoms: C_5  and  C_6
REMARK    3  A    between atoms: C_10  and  O_11
REMARK    4  A    between atoms: C_12  and  O_13
REMARK    5  A    between atoms: O_13  and  C_14
REMARK    6  A    between atoms: C_17  and  C_25
REMARK    7  A    between atoms: C_19  and  O_24
REMARK    8  A    between atoms: C_21  and  O_23
REMARK    9  A    between atoms: C_25  and  O_26
REMARK   10  A    between atoms: O_26  and  C_27
REMARK   11  A    between atoms: C_29  and  O_41
REMARK   12  A    between atoms: C_31  and  O_40
REMARK   13  A    between atoms: C_33  and  O_35
REMARK   14  A    between atoms: C_36  and  C_38
REMARK   15  A    between atoms: C_42  and  O_44
REMARK   16  A    between atoms: C_45  and  O_46
REMARK   17  A    between atoms: O_46  and  C_47
REMARK                            x       y       z     vdW  Elec       q    Type
REMARK                         _______ _______ _______ _____ _____    ______ ____
ROOT
ATOM      1  C   LIG A   1      -7.250  -1.931 128.219  0.00  0.00    +0.340 C 
ATOM      2  O   LIG A   1      -7.573  -1.219 129.451  0.00  0.00    -0.331 OA
ATOM      3  C   LIG A   1      -6.606  -1.493 130.496  0.00  0.00    +0.179 C 
ATOM      4  C   LIG A   1      -5.196  -1.021 130.054  0.00  0.00    +0.177 C 
ATOM      5  C   LIG A   1      -5.248  -0.415 128.640  0.00  0.00    +0.180 C 
ATOM      6  C   LIG A   1      -5.875  -1.432 127.673  0.00  0.00    +0.214 C 
ENDROOT
BRANCH   5   7
ATOM      7  O   LIG A   1      -5.965   0.819 128.658  0.00  0.00    -0.386 OA
ATOM      8  H   LIG A   1      -5.957   1.149 129.582  0.00  0.00    +0.210 HD
ENDBRANCH   5   7
BRANCH   4   9
ATOM      9  O   LIG A   1      -4.301  -2.150 130.034  0.00  0.00    -0.387 OA
ATOM     10  H   LIG A   1      -4.159  -2.427 130.958  0.00  0.00    +0.210 HD
ENDBRANCH   4   9
BRANCH   6  11
ATOM     11  O   LIG A   1      -4.956  -2.526 127.468  0.00  0.00    -0.383 OA
ATOM     12  H   LIG A   1      -4.264  -2.211 126.848  0.00  0.00    +0.210 HD
ENDBRANCH   6  11
BRANCH   1  13
ATOM     13  O   LIG A   1      -8.298  -1.691 127.254  0.00  0.00    -0.454 OA
BRANCH  13  19
ATOM     14  C   LIG A   1      -7.166   2.913 122.959  0.00  0.00    +0.139 A 
ATOM     15  O   LIG A   1      -7.085   1.527 122.864  0.00  0.00    -0.454 OA
ATOM     16  C   LIG A   1      -7.428   0.766 123.955  0.00  0.00    +0.146 A 
ATOM     17  C   LIG A   1      -7.931   1.293 125.137  0.00  0.00    +0.109 A 
ATOM     18  C   LIG A   1      -8.209   0.447 126.228  0.00  0.00    +0.177 A 
ATOM     19  C   LIG A   1      -8.002  -0.947 126.127  0.00  0.00    +0.207 A 
ATOM     20  C   LIG A   1      -7.538  -1.467 124.903  0.00  0.00    +0.169 A 
ATOM     21  C   LIG A   1      -7.250  -0.607 123.833  0.00  0.00    +0.096 A 
ATOM     22  C   LIG A   1      -7.695   3.533 124.031  0.00  0.00    +0.098 A 
ATOM     23  C   LIG A   1      -8.153   2.738 125.180  0.00  0.00    +0.197 A 
ATOM     24  O   LIG A   1      -8.694   3.270 126.153  0.00  0.00    -0.287 OA
BRANCH  14  28
ATOM     25  C   LIG A   1      -5.644   5.084 119.581  0.00  0.00    +0.117 A 
ATOM     26  C   LIG A   1      -4.874   4.974 120.731  0.00  0.00    +0.046 A 
ATOM     27  C   LIG A   1      -5.373   4.263 121.833  0.00  0.00    +0.015 A 
ATOM     28  C   LIG A   1      -6.638   3.650 121.793  0.00  0.00    +0.018 A 
ATOM     29  C   LIG A   1      -7.396   3.794 120.617  0.00  0.00    +0.015 A 
ATOM     30  C   LIG A   1      -6.901   4.501 119.516  0.00  0.00    +0.046 A 
BRANCH  25  31
ATOM     31  O   LIG A   1      -5.203   5.762 118.485  0.00  0.00    -0.507 OA
ATOM     32  H   LIG A   1      -4.386   6.234 118.717  0.00  0.00    +0.292 HD
ENDBRANCH  25  31
ENDBRANCH  14  28
BRANCH  18  33
ATOM     33  O   LIG A   1      -8.655   0.963 127.423  0.00  0.00    -0.503 OA
ATOM     34  H   LIG A   1      -9.613   0.761 127.517  0.00  0.00    +0.292 HD
ENDBRANCH  18  33
BRANCH  20  35
ATOM     35  O   LIG A   1      -7.449  -2.823 124.741  0.00  0.00    -0.491 OA
ATOM     36  C   LIG A   1      -8.602  -3.461 124.194  0.00  0.00    +0.277 C 
ENDBRANCH  20  35
ENDBRANCH  13  19
ENDBRANCH   1  13
BRANCH   3  37
ATOM     37  C   LIG A   1      -7.019  -0.771 131.804  0.00  0.00    +0.197 C 
BRANCH  37  38
ATOM     38  O   LIG A   1      -6.918   0.650 131.655  0.00  0.00    -0.346 OA
BRANCH  38  39
ATOM     39  C   LIG A   1      -8.094   1.361 132.094  0.00  0.00    +0.282 C 
ATOM     40  C   LIG A   1      -8.775   1.903 130.806  0.00  0.00    +0.201 C 
ATOM     41  C   LIG A   1      -9.870   2.921 131.115  0.00  0.00    +0.179 C 
ATOM     42  C   LIG A   1      -9.374   3.970 132.111  0.00  0.00    +0.174 C 
ATOM     43  C   LIG A   1      -8.876   3.243 133.362  0.00  0.00    +0.149 C 
ATOM     44  C   LIG A   1      -8.449   4.238 134.438  0.00  0.00    +0.040 C 
ATOM     45  O   LIG A   1      -7.761   2.401 133.023  0.00  0.00    -0.343 OA
BRANCH  42  46
ATOM     46  O   LIG A   1     -10.443   4.871 132.409  0.00  0.00    -0.387 OA
ATOM     47  H   LIG A   1     -10.880   5.040 131.549  0.00  0.00    +0.210 HD
ENDBRANCH  42  46
BRANCH  41  48
ATOM     48  O   LIG A   1     -10.279   3.595 129.912  0.00  0.00    -0.386 OA
ATOM     49  H   LIG A   1      -9.720   3.201 129.207  0.00  0.00    +0.210 HD
ENDBRANCH  41  48
BRANCH  40  50
ATOM     50  O   LIG A   1      -7.822   2.556 129.936  0.00  0.00    -0.384 OA
ATOM     51  H   LIG A   1      -7.615   3.406 130.380  0.00  0.00    +0.210 HD
ENDBRANCH  40  50
ENDBRANCH  38  39
ENDBRANCH  37  38
ENDBRANCH   3  37
TORSDOF 15
ENDMDL
MODEL 7
REMARK VINA RESULT:      -8.8      1.364      2.028
REMARK  Name = NuBBE_124
REMARK  17 active torsions:
REMARK  status: ('A' for Active; 'I' for Inactive)
REMARK    1  A    between atoms: O_1  and  C_2
REMARK    2  A    between atoms: C_5  and  C_6
REMARK    3  A    between atoms: C_10  and  O_11
REMARK    4  A    between atoms: C_12  and  O_13
REMARK    5  A    between atoms: O_13  and  C_14
REMARK    6  A    between atoms: C_17  and  C_25
REMARK    7  A    between atoms: C_19  and  O_24
REMARK    8  A    between atoms: C_21  and  O_23
REMARK    9  A    between atoms: C_25  and  O_26
REMARK   10  A    between atoms: O_26  and  C_27
REMARK   11  A    between atoms: C_29  and  O_41
REMARK   12  A    between atoms: C_31  and  O_40
REMARK   13  A    between atoms: C_33  and  O_35
REMARK   14  A    between atoms: C_36  and  C_38
REMARK   15  A    between atoms: C_42  and  O_44
REMARK   16  A    between atoms: C_45  and  O_46
REMARK   17  A    between atoms: O_46  and  C_47
REMARK                            x       y       z     vdW  Elec       q    Type
REMARK                         _______ _______ _______ _____ _____    ______ ____
ROOT
ATOM      1  C   LIG A   1      -4.818   1.034 130.241  0.00  0.00    +0.340 C 
ATOM      2  O   LIG A   1      -5.066   0.063 129.180  0.00  0.00    -0.331 OA
ATOM      3  C   LIG A   1      -4.713  -1.282 129.593  0.00  0.00    +0.179 C 
ATOM      4  C   LIG A   1      -5.573  -1.708 130.813  0.00  0.00    +0.177 C 
ATOM      5  C   LIG A   1      -6.531  -0.574 131.220  0.00  0.00    +0.180 C 
ATOM      6  C   LIG A   1      -5.724   0.710 131.469  0.00  0.00    +0.214 C 
ENDROOT
BRANCH   5   7
ATOM      7  O   LIG A   1      -7.532  -0.392 130.219  0.00  0.00    -0.386 OA
ATOM      8  H   LIG A   1      -8.343  -0.075 130.670  0.00  0.00    +0.210 HD
ENDBRANCH   5   7
BRANCH   4   9
ATOM      9  O   LIG A   1      -4.707  -1.996 131.928  0.00  0.00    -0.387 OA
ATOM     10  H   LIG A   1      -4.296  -1.155 132.203  0.00  0.00    +0.210 HD
ENDBRANCH   4   9
BRANCH   6  11
ATOM     11  O   LIG A   1      -4.949   0.560 132.678  0.00  0.00    -0.383 OA
ATOM     12  H   LIG A   1      -4.695  -0.385 132.744  0.00  0.00    +0.210 HD
ENDBRANCH   6  11
BRANCH   1  13
ATOM     13  O   LIG A   1      -5.099   2.357 129.736  0.00  0.00    -0.454 OA
BRANCH  13  19
ATOM     14  C   LIG A   1      -7.183   3.034 123.725  0.00  0.00    +0.139 A 
ATOM     15  O   LIG A   1      -5.903   3.095 124.266  0.00  0.00    -0.454 OA
ATOM     16  C   LIG A   1      -5.740   2.871 125.612  0.00  0.00    +0.146 A 
ATOM     17  C   LIG A   1      -6.773   2.505 126.464  0.00  0.00    +0.109 A 
ATOM     18  C   LIG A   1      -6.531   2.344 127.842  0.00  0.00    +0.177 A 
ATOM     19  C   LIG A   1      -5.233   2.530 128.371  0.00  0.00    +0.207 A 
ATOM     20  C   LIG A   1      -4.190   2.853 127.481  0.00  0.00    +0.169 A 
ATOM     21  C   LIG A   1      -4.454   3.026 126.114  0.00  0.00    +0.096 A 
ATOM     22  C   LIG A   1      -8.251   2.630 124.440  0.00  0.00    +0.098 A 
ATOM     23  C   LIG A   1      -8.090   2.297 125.863  0.00  0.00    +0.197 A 
ATOM     24  O   LIG A   1      -9.035   1.871 126.532  0.00  0.00    -0.287 OA
BRANCH  14  28
ATOM     25  C   LIG A   1      -7.462   4.165 119.592  0.00  0.00    +0.117 A 
ATOM     26  C   LIG A   1      -8.613   3.826 120.290  0.00  0.00    +0.046 A 
ATOM     27  C   LIG A   1      -8.519   3.458 121.641  0.00  0.00    +0.015 A 
ATOM     28  C   LIG A   1      -7.281   3.434 122.307  0.00  0.00    +0.018 A 
ATOM     29  C   LIG A   1      -6.134   3.770 121.564  0.00  0.00    +0.015 A 
ATOM     30  C   LIG A   1      -6.224   4.139 120.217  0.00  0.00    +0.046 A 
BRANCH  25  31
ATOM     31  O   LIG A   1      -7.501   4.530 118.280  0.00  0.00    -0.507 OA
ATOM     32  H   LIG A   1      -7.253   5.467 118.208  0.00  0.00    +0.292 HD
ENDBRANCH  25  31
ENDBRANCH  14  28
BRANCH  18  33
ATOM     33  O   LIG A   1      -7.556   2.036 128.706  0.00  0.00    -0.503 OA
ATOM     34  H   LIG A   1      -7.287   1.266 129.256  0.00  0.00    +0.292 HD
ENDBRANCH  18  33
BRANCH  20  35
ATOM     35  O   LIG A   1      -2.905   2.915 127.949  0.00  0.00    -0.491 OA
ATOM     36  C   LIG A   1      -1.888   3.049 126.958  0.00  0.00    +0.277 C 
ENDBRANCH  20  35
ENDBRANCH  13  19
ENDBRANCH   1  13
BRANCH   3  37
ATOM     37  C   LIG A   1      -4.930  -2.271 128.421  0.00  0.00    +0.197 C 
BRANCH  37  38
ATOM     38  O   LIG A   1      -6.327  -2.485 128.188  0.00  0.00    -0.346 OA
BRANCH  38  39
ATOM     39  C   LIG A   1      -6.776  -2.014 126.900  0.00  0.00    +0.282 C 
ATOM     40  C   LIG A   1      -8.279  -2.395 126.802  0.00  0.00    +0.201 C 
ATOM     41  C   LIG A   1      -8.828  -2.226 125.388  0.00  0.00    +0.179 C 
ATOM     42  C   LIG A   1      -7.898  -2.872 124.361  0.00  0.00    +0.174 C 
ATOM     43  C   LIG A   1      -6.504  -2.262 124.528  0.00  0.00    +0.149 C 
ATOM     44  C   LIG A   1      -5.543  -2.798 123.471  0.00  0.00    +0.040 C 
ATOM     45  O   LIG A   1      -5.994  -2.571 125.836  0.00  0.00    -0.343 OA
BRANCH  42  46
ATOM     46  O   LIG A   1      -8.423  -2.647 123.050  0.00  0.00    -0.387 OA
ATOM     47  H   LIG A   1      -9.394  -2.614 123.169  0.00  0.00    +0.210 HD
ENDBRANCH  42  46
BRANCH  41  48
ATOM     48  O   LIG A   1     -10.123  -2.842 125.277  0.00  0.00    -0.386 OA
ATOM     49  H   LIG A   1     -10.644  -2.220 124.723  0.00  0.00    +0.210 HD
ENDBRANCH  41  48
BRANCH  40  50
ATOM     50  O   LIG A   1      -8.503  -3.773 127.182  0.00  0.00    -0.384 OA
ATOM     51  H   LIG A   1      -9.469  -3.839 127.336  0.00  0.00    +0.210 HD
ENDBRANCH  40  50
ENDBRANCH  38  39
ENDBRANCH  37  38
ENDBRANCH   3  37
TORSDOF 15
ENDMDL
MODEL 8
REMARK VINA RESULT:      -8.5      4.674      7.058
REMARK  Name = NuBBE_124
REMARK  17 active torsions:
REMARK  status: ('A' for Active; 'I' for Inactive)
REMARK    1  A    between atoms: O_1  and  C_2
REMARK    2  A    between atoms: C_5  and  C_6
REMARK    3  A    between atoms: C_10  and  O_11
REMARK    4  A    between atoms: C_12  and  O_13
REMARK    5  A    between atoms: O_13  and  C_14
REMARK    6  A    between atoms: C_17  and  C_25
REMARK    7  A    between atoms: C_19  and  O_24
REMARK    8  A    between atoms: C_21  and  O_23
REMARK    9  A    between atoms: C_25  and  O_26
REMARK   10  A    between atoms: O_26  and  C_27
REMARK   11  A    between atoms: C_29  and  O_41
REMARK   12  A    between atoms: C_31  and  O_40
REMARK   13  A    between atoms: C_33  and  O_35
REMARK   14  A    between atoms: C_36  and  C_38
REMARK   15  A    between atoms: C_42  and  O_44
REMARK   16  A    between atoms: C_45  and  O_46
REMARK   17  A    between atoms: O_46  and  C_47
REMARK                            x       y       z     vdW  Elec       q    Type
REMARK                         _______ _______ _______ _____ _____    ______ ____
ROOT
ATOM      1  C   LIG A   1      -7.278   2.912 131.709  0.00  0.00    +0.340 C 
ATOM      2  O   LIG A   1      -8.394   3.223 130.822  0.00  0.00    -0.331 OA
ATOM      3  C   LIG A   1      -9.631   3.397 131.559  0.00  0.00    +0.179 C 
ATOM      4  C   LIG A   1      -9.497   4.580 132.554  0.00  0.00    +0.177 C 
ATOM      5  C   LIG A   1      -8.092   5.203 132.466  0.00  0.00    +0.180 C 
ATOM      6  C   LIG A   1      -7.034   4.108 132.682  0.00  0.00    +0.214 C 
ENDROOT
BRANCH   5   7
ATOM      7  O   LIG A   1      -7.926   5.868 131.214  0.00  0.00    -0.386 OA
ATOM      8  H   LIG A   1      -7.907   5.179 130.516  0.00  0.00    +0.210 HD
ENDBRANCH   5   7
BRANCH   4   9
ATOM      9  O   LIG A   1      -9.697   4.096 133.897  0.00  0.00    -0.387 OA
ATOM     10  H   LIG A   1      -9.460   3.150 133.905  0.00  0.00    +0.210 HD
ENDBRANCH   4   9
BRANCH   6  11
ATOM     11  O   LIG A   1      -7.059   3.686 134.062  0.00  0.00    -0.383 OA
ATOM     12  H   LIG A   1      -7.521   4.385 134.571  0.00  0.00    +0.210 HD
ENDBRANCH   6  11
BRANCH   1  13
ATOM     13  O   LIG A   1      -6.104   2.659 130.909  0.00  0.00    -0.454 OA
BRANCH  13  19
ATOM     14  C   LIG A   1      -6.830   2.649 124.553  0.00  0.00    +0.139 A 
ATOM     15  O   LIG A   1      -6.419   3.649 125.429  0.00  0.00    -0.454 OA
ATOM     16  C   LIG A   1      -6.318   3.357 126.768  0.00  0.00    +0.146 A 
ATOM     17  C   LIG A   1      -6.525   2.091 127.300  0.00  0.00    +0.109 A 
ATOM     18  C   LIG A   1      -6.452   1.887 128.691  0.00  0.00    +0.177 A 
ATOM     19  C   LIG A   1      -6.144   2.959 129.560  0.00  0.00    +0.207 A 
ATOM     20  C   LIG A   1      -5.889   4.224 128.995  0.00  0.00    +0.169 A 
ATOM     21  C   LIG A   1      -5.983   4.412 127.607  0.00  0.00    +0.096 A 
ATOM     22  C   LIG A   1      -7.001   1.372 124.943  0.00  0.00    +0.098 A 
ATOM     23  C   LIG A   1      -6.812   1.011 126.356  0.00  0.00    +0.197 A 
ATOM     24  O   LIG A   1      -6.906  -0.159 126.737  0.00  0.00    -0.287 OA
BRANCH  14  28
ATOM     25  C   LIG A   1      -7.475   3.907 120.498  0.00  0.00    +0.117 A 
ATOM     26  C   LIG A   1      -8.551   3.484 121.265  0.00  0.00    +0.046 A 
ATOM     27  C   LIG A   1      -8.339   3.075 122.590  0.00  0.00    +0.015 A 
ATOM     28  C   LIG A   1      -7.054   3.092 123.162  0.00  0.00    +0.018 A 
ATOM     29  C   LIG A   1      -5.985   3.514 122.350  0.00  0.00    +0.015 A 
ATOM     30  C   LIG A   1      -6.194   3.924 121.029  0.00  0.00    +0.046 A 
BRANCH  25  31
ATOM     31  O   LIG A   1      -7.631   4.315 119.207  0.00  0.00    -0.507 OA
ATOM     32  H   LIG A   1      -8.523   4.073 118.908  0.00  0.00    +0.292 HD
ENDBRANCH  25  31
ENDBRANCH  14  28
BRANCH  18  33
ATOM     33  O   LIG A   1      -6.710   0.651 129.236  0.00  0.00    -0.503 OA
ATOM     34  H   LIG A   1      -7.150   0.090 128.557  0.00  0.00    +0.292 HD
ENDBRANCH  18  33
BRANCH  20  35
ATOM     35  O   LIG A   1      -5.467   5.246 129.802  0.00  0.00    -0.491 OA
ATOM     36  C   LIG A   1      -4.297   5.936 129.371  0.00  0.00    +0.277 C 
ENDBRANCH  20  35
ENDBRANCH  13  19
ENDBRANCH   1  13
BRANCH   3  37
ATOM     37  C   LIG A   1     -10.800   3.663 130.578  0.00  0.00    +0.197 C 
BRANCH  37  38
ATOM     38  O   LIG A   1     -10.433   4.645 129.602  0.00  0.00    -0.346 OA
BRANCH  38  39
ATOM     39  C   LIG A   1     -11.446   5.650 129.386  0.00  0.00    +0.282 C 
ATOM     40  C   LIG A   1     -10.847   6.651 128.359  0.00  0.00    +0.201 C 
ATOM     41  C   LIG A   1     -11.675   7.928 128.244  0.00  0.00    +0.179 C 
ATOM     42  C   LIG A   1     -12.003   8.492 129.627  0.00  0.00    +0.174 C 
ATOM     43  C   LIG A   1     -12.712   7.400 130.433  0.00  0.00    +0.149 C 
ATOM     44  C   LIG A   1     -13.151   7.926 131.796  0.00  0.00    +0.040 C 
ATOM     45  O   LIG A   1     -11.828   6.281 130.615  0.00  0.00    -0.343 OA
BRANCH  42  46
ATOM     46  O   LIG A   1     -12.820   9.655 129.474  0.00  0.00    -0.387 OA
ATOM     47  H   LIG A   1     -13.696   9.316 129.198  0.00  0.00    +0.210 HD
ENDBRANCH  42  46
BRANCH  41  48
ATOM     48  O   LIG A   1     -10.952   8.929 127.506  0.00  0.00    -0.386 OA
ATOM     49  H   LIG A   1     -11.349   8.905 126.608  0.00  0.00    +0.210 HD
ENDBRANCH  41  48
BRANCH  40  50
ATOM     50  O   LIG A   1      -9.505   7.048 128.726  0.00  0.00    -0.384 OA
ATOM     51  H   LIG A   1      -9.294   6.519 129.524  0.00  0.00    +0.210 HD
ENDBRANCH  40  50
ENDBRANCH  38  39
ENDBRANCH  37  38
ENDBRANCH   3  37
TORSDOF 15
ENDMDL
MODEL 9
REMARK VINA RESULT:      -8.5      1.119      1.958
REMARK  Name = NuBBE_124
REMARK  17 active torsions:
REMARK  status: ('A' for Active; 'I' for Inactive)
REMARK    1  A    between atoms: O_1  and  C_2
REMARK    2  A    between atoms: C_5  and  C_6
REMARK    3  A    between atoms: C_10  and  O_11
REMARK    4  A    between atoms: C_12  and  O_13
REMARK    5  A    between atoms: O_13  and  C_14
REMARK    6  A    between atoms: C_17  and  C_25
REMARK    7  A    between atoms: C_19  and  O_24
REMARK    8  A    between atoms: C_21  and  O_23
REMARK    9  A    between atoms: C_25  and  O_26
REMARK   10  A    between atoms: O_26  and  C_27
REMARK   11  A    between atoms: C_29  and  O_41
REMARK   12  A    between atoms: C_31  and  O_40
REMARK   13  A    between atoms: C_33  and  O_35
REMARK   14  A    between atoms: C_36  and  C_38
REMARK   15  A    between atoms: C_42  and  O_44
REMARK   16  A    between atoms: C_45  and  O_46
REMARK   17  A    between atoms: O_46  and  C_47
REMARK                            x       y       z     vdW  Elec       q    Type
REMARK                         _______ _______ _______ _____ _____    ______ ____
ROOT
ATOM      1  C   LIG A   1      -6.296   1.087 129.204  0.00  0.00    +0.340 C 
ATOM      2  O   LIG A   1      -6.445  -0.204 128.539  0.00  0.00    -0.331 OA
ATOM      3  C   LIG A   1      -5.550  -1.199 129.095  0.00  0.00    +0.179 C 
ATOM      4  C   LIG A   1      -5.867  -1.421 130.598  0.00  0.00    +0.177 C 
ATOM      5  C   LIG A   1      -7.027  -0.513 131.044  0.00  0.00    +0.180 C 
ATOM      6  C   LIG A   1      -6.689   0.948 130.708  0.00  0.00    +0.214 C 
ENDROOT
BRANCH   5   7
ATOM      7  O   LIG A   1      -8.246  -0.935 130.433  0.00  0.00    -0.386 OA
ATOM      8  H   LIG A   1      -8.016  -1.596 129.746  0.00  0.00    +0.210 HD
ENDBRANCH   5   7
BRANCH   4   9
ATOM      9  O   LIG A   1      -4.705  -1.095 131.383  0.00  0.00    -0.387 OA
ATOM     10  H   LIG A   1      -4.816  -1.513 132.258  0.00  0.00    +0.210 HD
ENDBRANCH   4   9
BRANCH   6  11
ATOM     11  O   LIG A   1      -5.633   1.406 131.579  0.00  0.00    -0.383 OA
ATOM     12  H   LIG A   1      -5.567   2.379 131.467  0.00  0.00    +0.210 HD
ENDBRANCH   6  11
BRANCH   1  13
ATOM     13  O   LIG A   1      -7.142   2.052 128.544  0.00  0.00    -0.454 OA
BRANCH  13  19
ATOM     14  C   LIG A   1      -7.134   3.464 122.304  0.00  0.00    +0.139 A 
ATOM     15  O   LIG A   1      -6.146   3.588 123.275  0.00  0.00    -0.454 OA
ATOM     16  C   LIG A   1      -6.416   3.164 124.554  0.00  0.00    +0.146 A 
ATOM     17  C   LIG A   1      -7.599   2.540 124.927  0.00  0.00    +0.109 A 
ATOM     18  C   LIG A   1      -7.818   2.183 126.272  0.00  0.00    +0.177 A 
ATOM     19  C   LIG A   1      -6.830   2.432 127.251  0.00  0.00    +0.207 A 
ATOM     20  C   LIG A   1      -5.617   3.021 126.843  0.00  0.00    +0.169 A 
ATOM     21  C   LIG A   1      -5.425   3.386 125.502  0.00  0.00    +0.096 A 
ATOM     22  C   LIG A   1      -8.296   2.822 122.533  0.00  0.00    +0.098 A 
ATOM     23  C   LIG A   1      -8.575   2.279 123.871  0.00  0.00    +0.197 A 
ATOM     24  O   LIG A   1      -9.604   1.637 124.099  0.00  0.00    -0.287 OA
BRANCH  14  28
ATOM     25  C   LIG A   1      -6.175   5.225 118.507  0.00  0.00    +0.117 A 
ATOM     26  C   LIG A   1      -7.414   4.626 118.693  0.00  0.00    +0.046 A 
ATOM     27  C   LIG A   1      -7.725   4.052 119.935  0.00  0.00    +0.015 A 
ATOM     28  C   LIG A   1      -6.809   4.080 121.002  0.00  0.00    +0.018 A 
ATOM     29  C   LIG A   1      -5.559   4.683 120.772  0.00  0.00    +0.015 A 
ATOM     30  C   LIG A   1      -5.246   5.257 119.535  0.00  0.00    +0.046 A 
BRANCH  25  31
ATOM     31  O   LIG A   1      -5.827   5.796 117.320  0.00  0.00    -0.507 OA
ATOM     32  H   LIG A   1      -4.878   5.651 117.169  0.00  0.00    +0.292 HD
ENDBRANCH  25  31
ENDBRANCH  14  28
BRANCH  18  33
ATOM     33  O   LIG A   1      -9.007   1.614 126.665  0.00  0.00    -0.503 OA
ATOM     34  H   LIG A   1      -9.343   1.045 125.936  0.00  0.00    +0.292 HD
ENDBRANCH  18  33
BRANCH  20  35
ATOM     35  O   LIG A   1      -4.600   3.158 127.748  0.00  0.00    -0.491 OA
ATOM     36  C   LIG A   1      -3.709   4.248 127.522  0.00  0.00    +0.277 C 
ENDBRANCH  20  35
ENDBRANCH  13  19
ENDBRANCH   1  13
BRANCH   3  37
ATOM     37  C   LIG A   1      -5.694  -2.534 128.322  0.00  0.00    +0.197 C 
BRANCH  37  38
ATOM     38  O   LIG A   1      -5.094  -2.437 127.025  0.00  0.00    -0.346 OA
BRANCH  38  39
ATOM     39  C   LIG A   1      -6.021  -2.669 125.942  0.00  0.00    +0.282 C 
ATOM     40  C   LIG A   1      -5.738  -1.562 124.889  0.00  0.00    +0.201 C 
ATOM     41  C   LIG A   1      -6.824  -1.490 123.819  0.00  0.00    +0.179 C 
ATOM     42  C   LIG A   1      -8.215  -1.482 124.453  0.00  0.00    +0.174 C 
ATOM     43  C   LIG A   1      -8.344  -2.723 125.340  0.00  0.00    +0.149 C 
ATOM     44  C   LIG A   1      -9.745  -2.826 125.935  0.00  0.00    +0.040 C 
ATOM     45  O   LIG A   1      -7.378  -2.661 126.403  0.00  0.00    -0.343 OA
BRANCH  42  46
ATOM     46  O   LIG A   1      -9.199  -1.466 123.416  0.00  0.00    -0.387 OA
ATOM     47  H   LIG A   1     -10.037  -1.713 123.857  0.00  0.00    +0.210 HD
ENDBRANCH  42  46
BRANCH  41  48
ATOM     48  O   LIG A   1      -6.676  -0.294 123.035  0.00  0.00    -0.386 OA
ATOM     49  H   LIG A   1      -6.051  -0.545 122.320  0.00  0.00    +0.210 HD
ENDBRANCH  41  48
BRANCH  40  50
ATOM     50  O   LIG A   1      -5.660  -0.254 125.502  0.00  0.00    -0.384 OA
ATOM     51  H   LIG A   1      -5.142   0.290 124.873  0.00  0.00    +0.210 HD
ENDBRANCH  40  50
ENDBRANCH  38  39
ENDBRANCH  37  38
ENDBRANCH   3  37
TORSDOF 15
ENDMDL
