MODEL 1
REMARK VINA RESULT:      -7.3      0.000      0.000
REMARK  Name = NuBBE_2475
REMARK  12 active torsions:
REMARK  status: ('A' for Active; 'I' for Inactive)
REMARK    1  A    between atoms: C_1  and  O_2
REMARK    2  A    between atoms: O_2  and  C_3
REMARK    3  A    between atoms: C_5  and  C_6
REMARK    4  A    between atoms: C_6  and  C_7
REMARK    5  A    between atoms: C_9  and  C_11
REMARK    6  A    between atoms: C_11  and  O_12
REMARK    7  A    between atoms: C_13  and  C_15
REMARK    8  A    between atoms: C_18  and  O_19
REMARK    9  A    between atoms: O_19  and  C_20
REMARK   10  A    between atoms: C_21  and  O_22
REMARK   11  A    between atoms: O_22  and  C_23
REMARK   12  A    between atoms: C_29  and  O_30
REMARK                            x       y       z     vdW  Elec       q    Type
REMARK                         _______ _______ _______ _____ _____    ______ ____
ROOT
ATOM      1  C   LIG A   1      -8.818   3.739 131.193  0.00  0.00    +0.027 C 
ATOM      2  C   LIG A   1      -9.184   5.238 131.217  0.00  0.00    +0.053 C 
ATOM      3  C   LIG A   1     -10.709   5.196 131.078  0.00  0.00    +0.154 C 
ATOM      4  O   LIG A   1     -10.987   4.066 130.232  0.00  0.00    -0.371 OA
ATOM      5  C   LIG A   1      -9.791   3.275 130.110  0.00  0.00    +0.165 C 
ENDROOT
BRANCH   3   6
ATOM      6  C   LIG A   1     -11.334   6.468 130.547  0.00  0.00    -0.015 A 
ATOM      7  C   LIG A   1     -12.411   7.112 131.161  0.00  0.00    +0.010 A 
ATOM      8  C   LIG A   1     -12.955   8.272 130.596  0.00  0.00    +0.050 A 
ATOM      9  C   LIG A   1     -12.484   8.782 129.378  0.00  0.00    +0.162 A 
ATOM     10  C   LIG A   1     -11.413   8.136 128.744  0.00  0.00    +0.162 A 
ATOM     11  C   LIG A   1     -10.825   7.024 129.364  0.00  0.00    +0.055 A 
BRANCH   9  12
ATOM     12  O   LIG A   1     -13.148   9.906 128.960  0.00  0.00    -0.491 OA
ATOM     13  C   LIG A   1     -13.440  10.888 129.946  0.00  0.00    +0.277 C 
ENDBRANCH   9  12
BRANCH  10  14
ATOM     14  O   LIG A   1     -10.929   8.620 127.555  0.00  0.00    -0.491 OA
ATOM     15  C   LIG A   1     -10.895   7.676 126.488  0.00  0.00    +0.277 C 
ENDBRANCH  10  14
ENDBRANCH   3   6
BRANCH   1  16
ATOM     16  C   LIG A   1      -9.040   2.965 132.526  0.00  0.00    +0.041 C 
BRANCH  16  19
ATOM     17  C   LIG A   1      -7.430  -0.553 132.483  0.00  0.00    +0.162 A 
ATOM     18  C   LIG A   1      -8.286   0.536 132.219  0.00  0.00    +0.053 A 
ATOM     19  C   LIG A   1      -8.066   1.814 132.791  0.00  0.00    -0.043 A 
ATOM     20  C   LIG A   1      -6.980   1.969 133.653  0.00  0.00    +0.007 A 
ATOM     21  C   LIG A   1      -6.114   0.897 133.920  0.00  0.00    +0.049 A 
ATOM     22  C   LIG A   1      -6.337  -0.354 133.327  0.00  0.00    +0.159 A 
BRANCH  17  24
ATOM     23  C   LIG A   1      -7.288  -1.964 130.556  0.00  0.00    +0.277 C 
ATOM     24  O   LIG A   1      -7.796  -1.727 131.864  0.00  0.00    -0.491 OA
ENDBRANCH  17  24
BRANCH  22  25
ATOM     25  O   LIG A   1      -5.448  -1.352 133.610  0.00  0.00    -0.503 OA
ATOM     26  H   LIG A   1      -5.878  -2.060 134.100  0.00  0.00    +0.292 HD
ENDBRANCH  22  25
ENDBRANCH  16  19
ENDBRANCH   1  16
BRANCH   2  27
ATOM     27  C   LIG A   1      -8.693   6.093 132.378  0.00  0.00    +0.162 C 
BRANCH  27  28
ATOM     28  O   LIG A   1      -9.721   6.234 133.348  0.00  0.00    -0.395 OA
ATOM     29  H   LIG A   1      -9.339   6.724 134.099  0.00  0.00    +0.209 HD
ENDBRANCH  27  28
ENDBRANCH   2  27
TORSDOF 9
ENDMDL
MODEL 2
REMARK VINA RESULT:      -7.3      0.697      1.740
REMARK  Name = NuBBE_2475
REMARK  12 active torsions:
REMARK  status: ('A' for Active; 'I' for Inactive)
REMARK    1  A    between atoms: C_1  and  O_2
REMARK    2  A    between atoms: O_2  and  C_3
REMARK    3  A    between atoms: C_5  and  C_6
REMARK    4  A    between atoms: C_6  and  C_7
REMARK    5  A    between atoms: C_9  and  C_11
REMARK    6  A    between atoms: C_11  and  O_12
REMARK    7  A    between atoms: C_13  and  C_15
REMARK    8  A    between atoms: C_18  and  O_19
REMARK    9  A    between atoms: O_19  and  C_20
REMARK   10  A    between atoms: C_21  and  O_22
REMARK   11  A    between atoms: O_22  and  C_23
REMARK   12  A    between atoms: C_29  and  O_30
REMARK                            x       y       z     vdW  Elec       q    Type
REMARK                         _______ _______ _______ _____ _____    ______ ____
ROOT
ATOM      1  C   LIG A   1      -9.014   3.791 131.120  0.00  0.00    +0.027 C 
ATOM      2  C   LIG A   1      -9.347   5.298 131.151  0.00  0.00    +0.053 C 
ATOM      3  C   LIG A   1     -10.874   5.289 131.026  0.00  0.00    +0.154 C 
ATOM      4  O   LIG A   1     -11.185   4.168 130.180  0.00  0.00    -0.371 OA
ATOM      5  C   LIG A   1     -10.008   3.351 130.046  0.00  0.00    +0.165 C 
ENDROOT
BRANCH   3   6
ATOM      6  C   LIG A   1     -11.476   6.576 130.504  0.00  0.00    -0.015 A 
ATOM      7  C   LIG A   1     -12.480   7.283 131.171  0.00  0.00    +0.010 A 
ATOM      8  C   LIG A   1     -13.009   8.453 130.613  0.00  0.00    +0.050 A 
ATOM      9  C   LIG A   1     -12.597   8.912 129.353  0.00  0.00    +0.162 A 
ATOM     10  C   LIG A   1     -11.601   8.203 128.667  0.00  0.00    +0.162 A 
ATOM     11  C   LIG A   1     -11.023   7.080 129.276  0.00  0.00    +0.055 A 
BRANCH   9  12
ATOM     12  O   LIG A   1     -13.237  10.056 128.950  0.00  0.00    -0.491 OA
ATOM     13  C   LIG A   1     -13.513  11.029 129.950  0.00  0.00    +0.277 C 
ENDBRANCH   9  12
BRANCH  10  14
ATOM     14  O   LIG A   1     -11.177   8.636 127.437  0.00  0.00    -0.491 OA
ATOM     15  C   LIG A   1     -10.937   7.605 126.482  0.00  0.00    +0.277 C 
ENDBRANCH  10  14
ENDBRANCH   3   6
BRANCH   1  16
ATOM     16  C   LIG A   1      -9.241   3.019 132.454  0.00  0.00    +0.041 C 
BRANCH  16  19
ATOM     17  C   LIG A   1      -6.472   0.467 133.344  0.00  0.00    +0.162 A 
ATOM     18  C   LIG A   1      -7.219   1.659 133.245  0.00  0.00    +0.053 A 
ATOM     19  C   LIG A   1      -8.475   1.700 132.590  0.00  0.00    -0.043 A 
ATOM     20  C   LIG A   1      -8.955   0.522 132.016  0.00  0.00    +0.007 A 
ATOM     21  C   LIG A   1      -8.227  -0.674 132.113  0.00  0.00    +0.049 A 
ATOM     22  C   LIG A   1      -6.996  -0.698 132.784  0.00  0.00    +0.159 A 
BRANCH  17  24
ATOM     23  C   LIG A   1      -5.225   1.469 135.124  0.00  0.00    +0.277 C 
ATOM     24  O   LIG A   1      -5.266   0.604 133.994  0.00  0.00    -0.491 OA
ENDBRANCH  17  24
BRANCH  22  25
ATOM     25  O   LIG A   1      -6.346  -1.897 132.861  0.00  0.00    -0.503 OA
ATOM     26  H   LIG A   1      -6.942  -2.587 133.169  0.00  0.00    +0.292 HD
ENDBRANCH  22  25
ENDBRANCH  16  19
ENDBRANCH   1  16
BRANCH   2  27
ATOM     27  C   LIG A   1      -8.827   6.139 132.309  0.00  0.00    +0.162 C 
BRANCH  27  28
ATOM     28  O   LIG A   1      -9.839   6.291 133.294  0.00  0.00    -0.395 OA
ATOM     29  H   LIG A   1      -9.431   6.093 134.156  0.00  0.00    +0.209 HD
ENDBRANCH  27  28
ENDBRANCH   2  27
TORSDOF 9
ENDMDL
MODEL 3
REMARK VINA RESULT:      -7.2      1.611      2.603
REMARK  Name = NuBBE_2475
REMARK  12 active torsions:
REMARK  status: ('A' for Active; 'I' for Inactive)
REMARK    1  A    between atoms: C_1  and  O_2
REMARK    2  A    between atoms: O_2  and  C_3
REMARK    3  A    between atoms: C_5  and  C_6
REMARK    4  A    between atoms: C_6  and  C_7
REMARK    5  A    between atoms: C_9  and  C_11
REMARK    6  A    between atoms: C_11  and  O_12
REMARK    7  A    between atoms: C_13  and  C_15
REMARK    8  A    between atoms: C_18  and  O_19
REMARK    9  A    between atoms: O_19  and  C_20
REMARK   10  A    between atoms: C_21  and  O_22
REMARK   11  A    between atoms: O_22  and  C_23
REMARK   12  A    between atoms: C_29  and  O_30
REMARK                            x       y       z     vdW  Elec       q    Type
REMARK                         _______ _______ _______ _____ _____    ______ ____
ROOT
ATOM      1  C   LIG A   1      -8.878   3.738 131.257  0.00  0.00    +0.027 C 
ATOM      2  C   LIG A   1      -9.224   5.242 131.252  0.00  0.00    +0.053 C 
ATOM      3  C   LIG A   1     -10.748   5.217 131.104  0.00  0.00    +0.154 C 
ATOM      4  O   LIG A   1     -11.037   4.077 130.277  0.00  0.00    -0.371 OA
ATOM      5  C   LIG A   1      -9.851   3.267 130.176  0.00  0.00    +0.165 C 
ENDROOT
BRANCH   3   6
ATOM      6  C   LIG A   1     -11.354   6.488 130.548  0.00  0.00    -0.015 A 
ATOM      7  C   LIG A   1     -12.444   7.141 131.127  0.00  0.00    +0.010 A 
ATOM      8  C   LIG A   1     -12.968   8.299 130.539  0.00  0.00    +0.050 A 
ATOM      9  C   LIG A   1     -12.461   8.798 129.331  0.00  0.00    +0.162 A 
ATOM     10  C   LIG A   1     -11.376   8.143 128.731  0.00  0.00    +0.162 A 
ATOM     11  C   LIG A   1     -10.810   7.033 129.375  0.00  0.00    +0.055 A 
BRANCH   9  12
ATOM     12  O   LIG A   1     -13.109   9.922 128.887  0.00  0.00    -0.491 OA
ATOM     13  C   LIG A   1     -13.477  10.885 129.866  0.00  0.00    +0.277 C 
ENDBRANCH   9  12
BRANCH  10  14
ATOM     14  O   LIG A   1     -10.858   8.616 127.553  0.00  0.00    -0.491 OA
ATOM     15  C   LIG A   1     -10.979   7.732 126.441  0.00  0.00    +0.277 C 
ENDBRANCH  10  14
ENDBRANCH   3   6
BRANCH   1  16
ATOM     16  C   LIG A   1      -9.118   2.991 132.602  0.00  0.00    +0.041 C 
BRANCH  16  19
ATOM     17  C   LIG A   1      -6.001   3.015 134.894  0.00  0.00    +0.162 A 
ATOM     18  C   LIG A   1      -7.190   3.396 134.240  0.00  0.00    +0.053 A 
ATOM     19  C   LIG A   1      -7.855   2.531 133.336  0.00  0.00    -0.043 A 
ATOM     20  C   LIG A   1      -7.286   1.282 133.084  0.00  0.00    +0.007 A 
ATOM     21  C   LIG A   1      -6.107   0.885 133.732  0.00  0.00    +0.049 A 
ATOM     22  C   LIG A   1      -5.476   1.747 134.640  0.00  0.00    +0.159 A 
BRANCH  17  24
ATOM     23  C   LIG A   1      -4.770   5.055 135.113  0.00  0.00    +0.277 C 
ATOM     24  O   LIG A   1      -5.473   3.978 135.724  0.00  0.00    -0.491 OA
ENDBRANCH  17  24
BRANCH  22  25
ATOM     25  O   LIG A   1      -4.343   1.294 135.254  0.00  0.00    -0.503 OA
ATOM     26  H   LIG A   1      -3.652   1.964 135.228  0.00  0.00    +0.292 HD
ENDBRANCH  22  25
ENDBRANCH  16  19
ENDBRANCH   1  16
BRANCH   2  27
ATOM     27  C   LIG A   1      -8.729   6.110 132.401  0.00  0.00    +0.162 C 
BRANCH  27  28
ATOM     28  O   LIG A   1      -9.761   6.285 133.360  0.00  0.00    -0.395 OA
ATOM     29  H   LIG A   1      -9.565   7.107 133.845  0.00  0.00    +0.209 HD
ENDBRANCH  27  28
ENDBRANCH   2  27
TORSDOF 9
ENDMDL
MODEL 4
REMARK VINA RESULT:      -7.1      1.121      9.115
REMARK  Name = NuBBE_2475
REMARK  12 active torsions:
REMARK  status: ('A' for Active; 'I' for Inactive)
REMARK    1  A    between atoms: C_1  and  O_2
REMARK    2  A    between atoms: O_2  and  C_3
REMARK    3  A    between atoms: C_5  and  C_6
REMARK    4  A    between atoms: C_6  and  C_7
REMARK    5  A    between atoms: C_9  and  C_11
REMARK    6  A    between atoms: C_11  and  O_12
REMARK    7  A    between atoms: C_13  and  C_15
REMARK    8  A    between atoms: C_18  and  O_19
REMARK    9  A    between atoms: O_19  and  C_20
REMARK   10  A    between atoms: C_21  and  O_22
REMARK   11  A    between atoms: O_22  and  C_23
REMARK   12  A    between atoms: C_29  and  O_30
REMARK                            x       y       z     vdW  Elec       q    Type
REMARK                         _______ _______ _______ _____ _____    ______ ____
ROOT
ATOM      1  C   LIG A   1      -9.400   5.692 131.979  0.00  0.00    +0.027 C 
ATOM      2  C   LIG A   1      -9.175   4.277 131.406  0.00  0.00    +0.053 C 
ATOM      3  C   LIG A   1      -9.330   3.400 132.653  0.00  0.00    +0.154 C 
ATOM      4  O   LIG A   1      -8.806   4.182 133.741  0.00  0.00    -0.371 OA
ATOM      5  C   LIG A   1      -8.636   5.540 133.294  0.00  0.00    +0.165 C 
ENDROOT
BRANCH   3   6
ATOM      6  C   LIG A   1      -8.668   2.043 132.562  0.00  0.00    -0.015 A 
ATOM      7  C   LIG A   1      -9.268   0.930 131.966  0.00  0.00    +0.010 A 
ATOM      8  C   LIG A   1      -8.606  -0.302 131.943  0.00  0.00    +0.050 A 
ATOM      9  C   LIG A   1      -7.360  -0.474 132.565  0.00  0.00    +0.162 A 
ATOM     10  C   LIG A   1      -6.754   0.631 133.180  0.00  0.00    +0.162 A 
ATOM     11  C   LIG A   1      -7.393   1.878 133.123  0.00  0.00    +0.055 A 
BRANCH   9  12
ATOM     12  O   LIG A   1      -6.870  -1.751 132.468  0.00  0.00    -0.491 OA
ATOM     13  C   LIG A   1      -7.411  -2.720 133.357  0.00  0.00    +0.277 C 
ENDBRANCH   9  12
BRANCH  10  14
ATOM     14  O   LIG A   1      -5.533   0.490 133.789  0.00  0.00    -0.491 OA
ATOM     15  C   LIG A   1      -5.583   0.214 135.187  0.00  0.00    +0.277 C 
ENDBRANCH  10  14
ENDBRANCH   3   6
BRANCH   1  16
ATOM     16  C   LIG A   1     -10.883   6.096 132.227  0.00  0.00    +0.041 C 
BRANCH  16  19
ATOM     17  C   LIG A   1     -11.308   8.275 129.058  0.00  0.00    +0.162 A 
ATOM     18  C   LIG A   1     -10.799   7.354 129.997  0.00  0.00    +0.053 A 
ATOM     19  C   LIG A   1     -11.484   7.063 131.203  0.00  0.00    -0.043 A 
ATOM     20  C   LIG A   1     -12.680   7.735 131.458  0.00  0.00    +0.007 A 
ATOM     21  C   LIG A   1     -13.203   8.649 130.530  0.00  0.00    +0.049 A 
ATOM     22  C   LIG A   1     -12.521   8.906 129.332  0.00  0.00    +0.159 A 
BRANCH  17  24
ATOM     23  C   LIG A   1     -10.861   7.743 126.769  0.00  0.00    +0.277 C 
ATOM     24  O   LIG A   1     -10.512   8.456 127.950  0.00  0.00    -0.491 OA
ENDBRANCH  17  24
BRANCH  22  25
ATOM     25  O   LIG A   1     -13.092   9.791 128.462  0.00  0.00    -0.503 OA
ATOM     26  H   LIG A   1     -13.581  10.470 128.939  0.00  0.00    +0.292 HD
ENDBRANCH  22  25
ENDBRANCH  16  19
ENDBRANCH   1  16
BRANCH   2  27
ATOM     27  C   LIG A   1     -10.020   3.823 130.224  0.00  0.00    +0.162 C 
BRANCH  27  28
ATOM     28  O   LIG A   1     -11.293   3.383 130.675  0.00  0.00    -0.395 OA
ATOM     29  H   LIG A   1     -11.863   4.171 130.737  0.00  0.00    +0.209 HD
ENDBRANCH  27  28
ENDBRANCH   2  27
TORSDOF 9
ENDMDL
MODEL 5
REMARK VINA RESULT:      -6.9      5.751      7.690
REMARK  Name = NuBBE_2475
REMARK  12 active torsions:
REMARK  status: ('A' for Active; 'I' for Inactive)
REMARK    1  A    between atoms: C_1  and  O_2
REMARK    2  A    between atoms: O_2  and  C_3
REMARK    3  A    between atoms: C_5  and  C_6
REMARK    4  A    between atoms: C_6  and  C_7
REMARK    5  A    between atoms: C_9  and  C_11
REMARK    6  A    between atoms: C_11  and  O_12
REMARK    7  A    between atoms: C_13  and  C_15
REMARK    8  A    between atoms: C_18  and  O_19
REMARK    9  A    between atoms: O_19  and  C_20
REMARK   10  A    between atoms: C_21  and  O_22
REMARK   11  A    between atoms: O_22  and  C_23
REMARK   12  A    between atoms: C_29  and  O_30
REMARK                            x       y       z     vdW  Elec       q    Type
REMARK                         _______ _______ _______ _____ _____    ______ ____
ROOT
ATOM      1  C   LIG A   1      -7.573  -2.827 127.613  0.00  0.00    +0.027 C 
ATOM      2  C   LIG A   1      -7.009  -1.519 127.019  0.00  0.00    +0.053 C 
ATOM      3  C   LIG A   1      -8.281  -0.811 126.542  0.00  0.00    +0.154 C 
ATOM      4  O   LIG A   1      -9.165  -1.860 126.108  0.00  0.00    -0.371 OA
ATOM      5  C   LIG A   1      -8.644  -3.121 126.563  0.00  0.00    +0.165 C 
ENDROOT
BRANCH   3   6
ATOM      6  C   LIG A   1      -8.064   0.229 125.464  0.00  0.00    -0.015 A 
ATOM      7  C   LIG A   1      -7.341  -0.013 124.293  0.00  0.00    +0.010 A 
ATOM      8  C   LIG A   1      -7.158   1.007 123.353  0.00  0.00    +0.050 A 
ATOM      9  C   LIG A   1      -7.636   2.306 123.581  0.00  0.00    +0.162 A 
ATOM     10  C   LIG A   1      -8.350   2.565 124.760  0.00  0.00    +0.162 A 
ATOM     11  C   LIG A   1      -8.596   1.513 125.653  0.00  0.00    +0.055 A 
BRANCH   9  12
ATOM     12  O   LIG A   1      -7.345   3.184 122.569  0.00  0.00    -0.491 OA
ATOM     13  C   LIG A   1      -6.056   3.784 122.584  0.00  0.00    +0.277 C 
ENDBRANCH   9  12
BRANCH  10  14
ATOM     14  O   LIG A   1      -8.834   3.826 125.002  0.00  0.00    -0.491 OA
ATOM     15  C   LIG A   1      -7.995   4.650 125.809  0.00  0.00    +0.277 C 
ENDBRANCH  10  14
ENDBRANCH   3   6
BRANCH   1  16
ATOM     16  C   LIG A   1      -8.190  -2.713 129.038  0.00  0.00    +0.041 C 
BRANCH  16  19
ATOM     17  C   LIG A   1      -6.721  -3.330 132.564  0.00  0.00    +0.162 A 
ATOM     18  C   LIG A   1      -7.521  -2.849 131.508  0.00  0.00    +0.053 A 
ATOM     19  C   LIG A   1      -7.339  -3.290 130.173  0.00  0.00    -0.043 A 
ATOM     20  C   LIG A   1      -6.319  -4.207 129.918  0.00  0.00    +0.007 A 
ATOM     21  C   LIG A   1      -5.518  -4.700 130.960  0.00  0.00    +0.049 A 
ATOM     22  C   LIG A   1      -5.729  -4.269 132.277  0.00  0.00    +0.159 A 
BRANCH  17  24
ATOM     23  C   LIG A   1      -8.139  -3.314 134.491  0.00  0.00    +0.277 C 
ATOM     24  O   LIG A   1      -7.015  -2.786 133.794  0.00  0.00    -0.491 OA
ENDBRANCH  17  24
BRANCH  22  25
ATOM     25  O   LIG A   1      -4.930  -4.801 133.249  0.00  0.00    -0.503 OA
ATOM     26  H   LIG A   1      -5.107  -4.386 134.099  0.00  0.00    +0.292 HD
ENDBRANCH  22  25
ENDBRANCH  16  19
ENDBRANCH   1  16
BRANCH   2  27
ATOM     27  C   LIG A   1      -6.107  -0.650 127.886  0.00  0.00    +0.162 C 
BRANCH  27  28
ATOM     28  O   LIG A   1      -4.866  -1.304 128.107  0.00  0.00    -0.395 OA
ATOM     29  H   LIG A   1      -4.169  -0.715 127.767  0.00  0.00    +0.209 HD
ENDBRANCH  27  28
ENDBRANCH   2  27
TORSDOF 9
ENDMDL
MODEL 6
REMARK VINA RESULT:      -6.7      6.988     11.109
REMARK  Name = NuBBE_2475
REMARK  12 active torsions:
REMARK  status: ('A' for Active; 'I' for Inactive)
REMARK    1  A    between atoms: C_1  and  O_2
REMARK    2  A    between atoms: O_2  and  C_3
REMARK    3  A    between atoms: C_5  and  C_6
REMARK    4  A    between atoms: C_6  and  C_7
REMARK    5  A    between atoms: C_9  and  C_11
REMARK    6  A    between atoms: C_11  and  O_12
REMARK    7  A    between atoms: C_13  and  C_15
REMARK    8  A    between atoms: C_18  and  O_19
REMARK    9  A    between atoms: O_19  and  C_20
REMARK   10  A    between atoms: C_21  and  O_22
REMARK   11  A    between atoms: O_22  and  C_23
REMARK   12  A    between atoms: C_29  and  O_30
REMARK                            x       y       z     vdW  Elec       q    Type
REMARK                         _______ _______ _______ _____ _____    ______ ____
ROOT
ATOM      1  C   LIG A   1      -8.950  -1.365 125.638  0.00  0.00    +0.027 C 
ATOM      2  C   LIG A   1      -8.222  -1.106 126.974  0.00  0.00    +0.053 C 
ATOM      3  C   LIG A   1      -7.441  -2.409 127.169  0.00  0.00    +0.154 C 
ATOM      4  O   LIG A   1      -8.274  -3.444 126.618  0.00  0.00    -0.371 OA
ATOM      5  C   LIG A   1      -9.329  -2.830 125.855  0.00  0.00    +0.165 C 
ENDROOT
BRANCH   3   6
ATOM      6  C   LIG A   1      -7.045  -2.703 128.600  0.00  0.00    -0.015 A 
ATOM      7  C   LIG A   1      -7.948  -2.705 129.666  0.00  0.00    +0.010 A 
ATOM      8  C   LIG A   1      -7.503  -2.960 130.968  0.00  0.00    +0.050 A 
ATOM      9  C   LIG A   1      -6.143  -3.157 131.250  0.00  0.00    +0.162 A 
ATOM     10  C   LIG A   1      -5.224  -3.143 130.191  0.00  0.00    +0.162 A 
ATOM     11  C   LIG A   1      -5.696  -2.968 128.882  0.00  0.00    +0.055 A 
BRANCH   9  12
ATOM     12  O   LIG A   1      -5.883  -3.367 132.580  0.00  0.00    -0.491 OA
ATOM     13  C   LIG A   1      -6.997  -3.638 133.421  0.00  0.00    +0.277 C 
ENDBRANCH   9  12
BRANCH  10  14
ATOM     14  O   LIG A   1      -3.890  -3.340 130.440  0.00  0.00    -0.491 OA
ATOM     15  C   LIG A   1      -3.085  -3.561 129.285  0.00  0.00    +0.277 C 
ENDBRANCH  10  14
ENDBRANCH   3   6
BRANCH   1  16
ATOM     16  C   LIG A   1      -8.091  -1.186 124.351  0.00  0.00    +0.041 C 
BRANCH  16  19
ATOM     17  C   LIG A   1      -7.287   2.303 122.885  0.00  0.00    +0.162 A 
ATOM     18  C   LIG A   1      -7.154   1.042 123.502  0.00  0.00    +0.053 A 
ATOM     19  C   LIG A   1      -8.252   0.156 123.632  0.00  0.00    -0.043 A 
ATOM     20  C   LIG A   1      -9.493   0.574 123.150  0.00  0.00    +0.007 A 
ATOM     21  C   LIG A   1      -9.640   1.823 122.527  0.00  0.00    +0.049 A 
ATOM     22  C   LIG A   1      -8.536   2.676 122.388  0.00  0.00    +0.159 A 
BRANCH  17  24
ATOM     23  C   LIG A   1      -5.962   4.036 123.869  0.00  0.00    +0.277 C 
ATOM     24  O   LIG A   1      -6.129   3.048 122.858  0.00  0.00    -0.491 OA
ENDBRANCH  17  24
BRANCH  22  25
ATOM     25  O   LIG A   1      -8.739   3.869 121.755  0.00  0.00    -0.503 OA
ATOM     26  H   LIG A   1      -8.195   4.559 122.148  0.00  0.00    +0.292 HD
ENDBRANCH  22  25
ENDBRANCH  16  19
ENDBRANCH   1  16
BRANCH   2  27
ATOM     27  C   LIG A   1      -7.373   0.151 127.112  0.00  0.00    +0.162 C 
BRANCH  27  28
ATOM     28  O   LIG A   1      -7.656   0.798 128.344  0.00  0.00    -0.395 OA
ATOM     29  H   LIG A   1      -6.879   1.342 128.566  0.00  0.00    +0.209 HD
ENDBRANCH  27  28
ENDBRANCH   2  27
TORSDOF 9
ENDMDL
MODEL 7
REMARK VINA RESULT:      -6.7      1.010      1.859
REMARK  Name = NuBBE_2475
REMARK  12 active torsions:
REMARK  status: ('A' for Active; 'I' for Inactive)
REMARK    1  A    between atoms: C_1  and  O_2
REMARK    2  A    between atoms: O_2  and  C_3
REMARK    3  A    between atoms: C_5  and  C_6
REMARK    4  A    between atoms: C_6  and  C_7
REMARK    5  A    between atoms: C_9  and  C_11
REMARK    6  A    between atoms: C_11  and  O_12
REMARK    7  A    between atoms: C_13  and  C_15
REMARK    8  A    between atoms: C_18  and  O_19
REMARK    9  A    between atoms: O_19  and  C_20
REMARK   10  A    between atoms: C_21  and  O_22
REMARK   11  A    between atoms: O_22  and  C_23
REMARK   12  A    between atoms: C_29  and  O_30
REMARK                            x       y       z     vdW  Elec       q    Type
REMARK                         _______ _______ _______ _____ _____    ______ ____
ROOT
ATOM      1  C   LIG A   1      -8.642   4.093 132.825  0.00  0.00    +0.027 C 
ATOM      2  C   LIG A   1      -9.662   4.463 131.727  0.00  0.00    +0.053 C 
ATOM      3  C   LIG A   1      -9.249   5.896 131.380  0.00  0.00    +0.154 C 
ATOM      4  O   LIG A   1      -8.786   6.474 132.613  0.00  0.00    -0.371 OA
ATOM      5  C   LIG A   1      -8.613   5.422 133.579  0.00  0.00    +0.165 C 
ENDROOT
BRANCH   3   6
ATOM      6  C   LIG A   1     -10.334   6.732 130.735  0.00  0.00    -0.015 A 
ATOM      7  C   LIG A   1     -11.617   6.876 131.270  0.00  0.00    +0.010 A 
ATOM      8  C   LIG A   1     -12.578   7.644 130.603  0.00  0.00    +0.050 A 
ATOM      9  C   LIG A   1     -12.308   8.234 129.360  0.00  0.00    +0.162 A 
ATOM     10  C   LIG A   1     -11.029   8.084 128.804  0.00  0.00    +0.162 A 
ATOM     11  C   LIG A   1     -10.052   7.381 129.524  0.00  0.00    +0.055 A 
BRANCH   9  12
ATOM     12  O   LIG A   1     -13.370   8.926 128.838  0.00  0.00    -0.491 OA
ATOM     13  C   LIG A   1     -13.455  10.311 129.152  0.00  0.00    +0.277 C 
ENDBRANCH   9  12
BRANCH  10  14
ATOM     14  O   LIG A   1     -10.738   8.657 127.593  0.00  0.00    -0.491 OA
ATOM     15  C   LIG A   1     -10.902   7.802 126.464  0.00  0.00    +0.277 C 
ENDBRANCH  10  14
ENDBRANCH   3   6
BRANCH   1  16
ATOM     16  C   LIG A   1      -7.222   3.692 132.325  0.00  0.00    +0.041 C 
BRANCH  16  19
ATOM     17  C   LIG A   1      -6.535  -0.072 131.753  0.00  0.00    +0.162 A 
ATOM     18  C   LIG A   1      -6.857   1.283 131.534  0.00  0.00    +0.053 A 
ATOM     19  C   LIG A   1      -6.819   2.237 132.581  0.00  0.00    -0.043 A 
ATOM     20  C   LIG A   1      -6.474   1.797 133.859  0.00  0.00    +0.007 A 
ATOM     21  C   LIG A   1      -6.144   0.453 134.092  0.00  0.00    +0.049 A 
ATOM     22  C   LIG A   1      -6.165  -0.472 133.038  0.00  0.00    +0.159 A 
BRANCH  17  24
ATOM     23  C   LIG A   1      -7.867  -1.563 130.439  0.00  0.00    +0.277 C 
ATOM     24  O   LIG A   1      -6.639  -0.870 130.636  0.00  0.00    -0.491 OA
ENDBRANCH  17  24
BRANCH  22  25
ATOM     25  O   LIG A   1      -5.814  -1.760 133.325  0.00  0.00    -0.503 OA
ATOM     26  H   LIG A   1      -6.426  -2.145 133.962  0.00  0.00    +0.292 HD
ENDBRANCH  22  25
ENDBRANCH  16  19
ENDBRANCH   1  16
BRANCH   2  27
ATOM     27  C   LIG A   1      -9.799   3.548 130.517  0.00  0.00    +0.162 C 
BRANCH  27  28
ATOM     28  O   LIG A   1     -11.157   3.482 130.107  0.00  0.00    -0.395 OA
ATOM     29  H   LIG A   1     -11.172   3.032 129.243  0.00  0.00    +0.209 HD
ENDBRANCH  27  28
ENDBRANCH   2  27
TORSDOF 9
ENDMDL
MODEL 8
REMARK VINA RESULT:      -6.7      2.937      4.451
REMARK  Name = NuBBE_2475
REMARK  12 active torsions:
REMARK  status: ('A' for Active; 'I' for Inactive)
REMARK    1  A    between atoms: C_1  and  O_2
REMARK    2  A    between atoms: O_2  and  C_3
REMARK    3  A    between atoms: C_5  and  C_6
REMARK    4  A    between atoms: C_6  and  C_7
REMARK    5  A    between atoms: C_9  and  C_11
REMARK    6  A    between atoms: C_11  and  O_12
REMARK    7  A    between atoms: C_13  and  C_15
REMARK    8  A    between atoms: C_18  and  O_19
REMARK    9  A    between atoms: O_19  and  C_20
REMARK   10  A    between atoms: C_21  and  O_22
REMARK   11  A    between atoms: O_22  and  C_23
REMARK   12  A    between atoms: C_29  and  O_30
REMARK                            x       y       z     vdW  Elec       q    Type
REMARK                         _______ _______ _______ _____ _____    ______ ____
ROOT
ATOM      1  C   LIG A   1      -8.692   4.195 132.848  0.00  0.00    +0.027 C 
ATOM      2  C   LIG A   1      -9.697   4.531 131.726  0.00  0.00    +0.053 C 
ATOM      3  C   LIG A   1      -9.298   5.964 131.360  0.00  0.00    +0.154 C 
ATOM      4  O   LIG A   1      -8.866   6.570 132.591  0.00  0.00    -0.371 OA
ATOM      5  C   LIG A   1      -8.694   5.537 133.579  0.00  0.00    +0.165 C 
ENDROOT
BRANCH   3   6
ATOM      6  C   LIG A   1     -10.383   6.772 130.682  0.00  0.00    -0.015 A 
ATOM      7  C   LIG A   1     -11.671   6.924 131.203  0.00  0.00    +0.010 A 
ATOM      8  C   LIG A   1     -12.632   7.665 130.505  0.00  0.00    +0.050 A 
ATOM      9  C   LIG A   1     -12.355   8.218 129.246  0.00  0.00    +0.162 A 
ATOM     10  C   LIG A   1     -11.071   8.060 128.706  0.00  0.00    +0.162 A 
ATOM     11  C   LIG A   1     -10.095   7.386 129.454  0.00  0.00    +0.055 A 
BRANCH   9  12
ATOM     12  O   LIG A   1     -13.418   8.888 128.695  0.00  0.00    -0.491 OA
ATOM     13  C   LIG A   1     -13.531  10.274 128.991  0.00  0.00    +0.277 C 
ENDBRANCH   9  12
BRANCH  10  14
ATOM     14  O   LIG A   1     -10.774   8.598 127.480  0.00  0.00    -0.491 OA
ATOM     15  C   LIG A   1     -10.989   7.730 126.370  0.00  0.00    +0.277 C 
ENDBRANCH  10  14
ENDBRANCH   3   6
BRANCH   1  16
ATOM     16  C   LIG A   1      -7.258   3.806 132.380  0.00  0.00    +0.041 C 
BRANCH  16  19
ATOM     17  C   LIG A   1      -4.439   6.442 132.660  0.00  0.00    +0.162 A 
ATOM     18  C   LIG A   1      -5.516   5.673 132.172  0.00  0.00    +0.053 A 
ATOM     19  C   LIG A   1      -6.123   4.659 132.954  0.00  0.00    -0.043 A 
ATOM     20  C   LIG A   1      -5.610   4.417 134.229  0.00  0.00    +0.007 A 
ATOM     21  C   LIG A   1      -4.544   5.178 134.731  0.00  0.00    +0.049 A 
ATOM     22  C   LIG A   1      -3.971   6.192 133.951  0.00  0.00    +0.159 A 
BRANCH  17  24
ATOM     23  C   LIG A   1      -2.976   6.930 130.831  0.00  0.00    +0.277 C 
ATOM     24  O   LIG A   1      -3.953   7.371 131.768  0.00  0.00    -0.491 OA
ENDBRANCH  17  24
BRANCH  22  25
ATOM     25  O   LIG A   1      -2.949   6.911 134.504  0.00  0.00    -0.503 OA
ATOM     26  H   LIG A   1      -2.140   6.795 133.997  0.00  0.00    +0.292 HD
ENDBRANCH  22  25
ENDBRANCH  16  19
ENDBRANCH   1  16
BRANCH   2  27
ATOM     27  C   LIG A   1      -9.799   3.593 130.530  0.00  0.00    +0.162 C 
BRANCH  27  28
ATOM     28  O   LIG A   1     -11.151   3.488 130.108  0.00  0.00    -0.395 OA
ATOM     29  H   LIG A   1     -11.152   3.552 129.136  0.00  0.00    +0.209 HD
ENDBRANCH  27  28
ENDBRANCH   2  27
TORSDOF 9
ENDMDL
MODEL 9
REMARK VINA RESULT:      -6.6      6.382     11.593
REMARK  Name = NuBBE_2475
REMARK  12 active torsions:
REMARK  status: ('A' for Active; 'I' for Inactive)
REMARK    1  A    between atoms: C_1  and  O_2
REMARK    2  A    between atoms: O_2  and  C_3
REMARK    3  A    between atoms: C_5  and  C_6
REMARK    4  A    between atoms: C_6  and  C_7
REMARK    5  A    between atoms: C_9  and  C_11
REMARK    6  A    between atoms: C_11  and  O_12
REMARK    7  A    between atoms: C_13  and  C_15
REMARK    8  A    between atoms: C_18  and  O_19
REMARK    9  A    between atoms: O_19  and  C_20
REMARK   10  A    between atoms: C_21  and  O_22
REMARK   11  A    between atoms: O_22  and  C_23
REMARK   12  A    between atoms: C_29  and  O_30
REMARK                            x       y       z     vdW  Elec       q    Type
REMARK                         _______ _______ _______ _____ _____    ______ ____
ROOT
ATOM      1  C   LIG A   1      -8.017   1.067 124.456  0.00  0.00    +0.027 C 
ATOM      2  C   LIG A   1      -7.865   0.651 125.934  0.00  0.00    +0.053 C 
ATOM      3  C   LIG A   1      -6.763  -0.411 125.853  0.00  0.00    +0.154 C 
ATOM      4  O   LIG A   1      -6.964  -1.079 124.596  0.00  0.00    -0.371 OA
ATOM      5  C   LIG A   1      -7.890  -0.311 123.807  0.00  0.00    +0.165 C 
ENDROOT
BRANCH   3   6
ATOM      6  C   LIG A   1      -6.732  -1.384 127.012  0.00  0.00    -0.015 A 
ATOM      7  C   LIG A   1      -7.879  -1.943 127.581  0.00  0.00    +0.010 A 
ATOM      8  C   LIG A   1      -7.774  -2.815 128.671  0.00  0.00    +0.050 A 
ATOM      9  C   LIG A   1      -6.534  -3.103 129.259  0.00  0.00    +0.162 A 
ATOM     10  C   LIG A   1      -5.376  -2.536 128.707  0.00  0.00    +0.162 A 
ATOM     11  C   LIG A   1      -5.490  -1.730 127.566  0.00  0.00    +0.055 A 
BRANCH   9  12
ATOM     12  O   LIG A   1      -6.620  -3.954 130.331  0.00  0.00    -0.491 OA
ATOM     13  C   LIG A   1      -6.784  -3.363 131.614  0.00  0.00    +0.277 C 
ENDBRANCH   9  12
BRANCH  10  14
ATOM     14  O   LIG A   1      -4.151  -2.807 129.261  0.00  0.00    -0.491 OA
ATOM     15  C   LIG A   1      -3.644  -1.798 130.130  0.00  0.00    +0.277 C 
ENDBRANCH  10  14
ENDBRANCH   3   6
BRANCH   1  16
ATOM     16  C   LIG A   1      -6.939   2.051 123.913  0.00  0.00    +0.041 C 
BRANCH  16  19
ATOM     17  C   LIG A   1      -6.513   3.887 120.534  0.00  0.00    +0.162 A 
ATOM     18  C   LIG A   1      -6.235   3.230 121.750  0.00  0.00    +0.053 A 
ATOM     19  C   LIG A   1      -7.268   2.716 122.574  0.00  0.00    -0.043 A 
ATOM     20  C   LIG A   1      -8.588   2.898 122.161  0.00  0.00    +0.007 A 
ATOM     21  C   LIG A   1      -8.881   3.544 120.950  0.00  0.00    +0.049 A 
ATOM     22  C   LIG A   1      -7.844   4.025 120.138  0.00  0.00    +0.159 A 
BRANCH  17  24
ATOM     23  C   LIG A   1      -4.791   5.537 120.341  0.00  0.00    +0.277 C 
ATOM     24  O   LIG A   1      -5.399   4.341 119.865  0.00  0.00    -0.491 OA
ENDBRANCH  17  24
BRANCH  22  25
ATOM     25  O   LIG A   1      -8.194   4.626 118.962  0.00  0.00    -0.503 OA
ATOM     26  H   LIG A   1      -8.831   5.330 119.117  0.00  0.00    +0.292 HD
ENDBRANCH  22  25
ENDBRANCH  16  19
ENDBRANCH   1  16
BRANCH   2  27
ATOM     27  C   LIG A   1      -7.606   1.731 126.975  0.00  0.00    +0.162 C 
BRANCH  27  28
ATOM     28  O   LIG A   1      -8.646   2.698 126.943  0.00  0.00    -0.395 OA
ATOM     29  H   LIG A   1      -8.627   3.108 126.059  0.00  0.00    +0.209 HD
ENDBRANCH  27  28
ENDBRANCH   2  27
TORSDOF 9
ENDMDL
