MODEL 1
REMARK VINA RESULT:      -6.1      0.000      0.000
REMARK  Name = NuBBE_1428
REMARK  7 active torsions:
REMARK  status: ('A' for Active; 'I' for Inactive)
REMARK    1  A    between atoms: C_1  and  C_2
REMARK    2  A    between atoms: C_2  and  O_21
REMARK    3  A    between atoms: C_5  and  C_18
REMARK    4  A    between atoms: C_8  and  C_14
REMARK    5  A    between atoms: C_14  and  C_15
REMARK    6  A    between atoms: C_18  and  C_19
REMARK    7  A    between atoms: C_18  and  C_20
REMARK                            x       y       z     vdW  Elec       q    Type
REMARK                         _______ _______ _______ _____ _____    ______ ____
ROOT
ATOM      1  C   LIG A   1      -5.292  -3.165 123.584  0.00  0.00    +0.041 C 
ATOM      2  C   LIG A   1      -6.628  -2.474 123.867  0.00  0.00    +0.066 C 
ATOM      3  C   LIG A   1      -7.628  -3.480 124.455  0.00  0.00    +0.035 C 
ATOM      4  C   LIG A   1      -8.878  -2.807 125.026  0.00  0.00    +0.007 C 
ATOM      5  C   LIG A   1      -8.518  -1.807 126.158  0.00  0.00    -0.004 C 
ATOM      6  C   LIG A   1      -7.707  -0.675 125.440  0.00  0.00    +0.008 C 
ATOM      7  C   LIG A   1      -7.135   0.548 126.185  0.00  0.00    +0.059 C 
ATOM      8  C   LIG A   1      -5.665   0.212 126.486  0.00  0.00    +0.011 C 
ATOM      9  C   LIG A   1      -5.362  -1.090 125.735  0.00  0.00    +0.007 C 
ATOM     10  C   LIG A   1      -6.458  -1.169 124.673  0.00  0.00    +0.024 C 
ENDROOT
BRANCH   7  11
ATOM     11  C   LIG A   1      -7.964   1.167 127.301  0.00  0.00    +0.134 C 
ATOM     12  C   LIG A   1      -7.227   1.656 128.522  0.00  0.00    +0.086 C 
ATOM     13  O   LIG A   1      -9.165   1.416 127.167  0.00  0.00    -0.297 OA
ENDBRANCH   7  11
BRANCH   5  14
ATOM     14  C   LIG A   1      -7.952  -2.575 127.409  0.00  0.00    -0.014 C 
ATOM     15  C   LIG A   1      -8.801  -3.826 127.734  0.00  0.00    +0.007 C 
ATOM     16  C   LIG A   1      -7.884  -1.776 128.710  0.00  0.00    +0.007 C 
ENDBRANCH   5  14
BRANCH   2  17
ATOM     17  O   LIG A   1      -7.139  -2.093 122.573  0.00  0.00    -0.389 OA
ATOM     18  H   LIG A   1      -6.789  -2.712 121.910  0.00  0.00    +0.210 HD
ENDBRANCH   2  17
TORSDOF 3
ENDMDL
MODEL 2
REMARK VINA RESULT:      -5.8      2.209      4.049
REMARK  Name = NuBBE_1428
REMARK  7 active torsions:
REMARK  status: ('A' for Active; 'I' for Inactive)
REMARK    1  A    between atoms: C_1  and  C_2
REMARK    2  A    between atoms: C_2  and  O_21
REMARK    3  A    between atoms: C_5  and  C_18
REMARK    4  A    between atoms: C_8  and  C_14
REMARK    5  A    between atoms: C_14  and  C_15
REMARK    6  A    between atoms: C_18  and  C_19
REMARK    7  A    between atoms: C_18  and  C_20
REMARK                            x       y       z     vdW  Elec       q    Type
REMARK                         _______ _______ _______ _____ _____    ______ ____
ROOT
ATOM      1  C   LIG A   1      -9.021   2.278 123.656  0.00  0.00    +0.041 C 
ATOM      2  C   LIG A   1      -9.440   0.845 123.994  0.00  0.00    +0.066 C 
ATOM      3  C   LIG A   1      -9.032  -0.105 122.858  0.00  0.00    +0.035 C 
ATOM      4  C   LIG A   1      -9.157  -1.580 123.248  0.00  0.00    +0.007 C 
ATOM      5  C   LIG A   1      -8.264  -1.922 124.471  0.00  0.00    -0.004 C 
ATOM      6  C   LIG A   1      -8.889  -1.108 125.655  0.00  0.00    +0.008 C 
ATOM      7  C   LIG A   1      -8.319  -1.140 127.087  0.00  0.00    +0.059 C 
ATOM      8  C   LIG A   1      -7.419   0.101 127.213  0.00  0.00    +0.011 C 
ATOM      9  C   LIG A   1      -7.649   0.927 125.942  0.00  0.00    +0.007 C 
ATOM     10  C   LIG A   1      -8.985   0.415 125.404  0.00  0.00    +0.024 C 
ENDROOT
BRANCH   7  11
ATOM     11  C   LIG A   1      -7.786  -2.460 127.624  0.00  0.00    +0.134 C 
ATOM     12  C   LIG A   1      -8.717  -3.646 127.597  0.00  0.00    +0.086 C 
ATOM     13  O   LIG A   1      -6.599  -2.617 127.921  0.00  0.00    -0.297 OA
ENDBRANCH   7  11
BRANCH   5  14
ATOM     14  C   LIG A   1      -6.742  -1.805 124.089  0.00  0.00    -0.014 C 
ATOM     15  C   LIG A   1      -6.541  -1.851 122.557  0.00  0.00    +0.007 C 
ATOM     16  C   LIG A   1      -5.825  -2.888 124.656  0.00  0.00    +0.007 C 
ENDBRANCH   5  14
BRANCH   2  17
ATOM     17  O   LIG A   1     -10.882   0.866 124.016  0.00  0.00    -0.389 OA
ATOM     18  H   LIG A   1     -11.209   0.445 123.204  0.00  0.00    +0.210 HD
ENDBRANCH   2  17
TORSDOF 3
ENDMDL
MODEL 3
REMARK VINA RESULT:      -5.7      1.792      4.398
REMARK  Name = NuBBE_1428
REMARK  7 active torsions:
REMARK  status: ('A' for Active; 'I' for Inactive)
REMARK    1  A    between atoms: C_1  and  C_2
REMARK    2  A    between atoms: C_2  and  O_21
REMARK    3  A    between atoms: C_5  and  C_18
REMARK    4  A    between atoms: C_8  and  C_14
REMARK    5  A    between atoms: C_14  and  C_15
REMARK    6  A    between atoms: C_18  and  C_19
REMARK    7  A    between atoms: C_18  and  C_20
REMARK                            x       y       z     vdW  Elec       q    Type
REMARK                         _______ _______ _______ _____ _____    ______ ____
ROOT
ATOM      1  C   LIG A   1      -6.642   1.735 128.147  0.00  0.00    +0.041 C 
ATOM      2  C   LIG A   1      -6.049   0.457 127.547  0.00  0.00    +0.066 C 
ATOM      3  C   LIG A   1      -5.802  -0.580 128.652  0.00  0.00    +0.035 C 
ATOM      4  C   LIG A   1      -5.487  -1.970 128.098  0.00  0.00    +0.007 C 
ATOM      5  C   LIG A   1      -6.647  -2.510 127.219  0.00  0.00    -0.004 C 
ATOM      6  C   LIG A   1      -6.682  -1.549 125.981  0.00  0.00    +0.008 C 
ATOM      7  C   LIG A   1      -7.695  -1.703 124.829  0.00  0.00    +0.059 C 
ATOM      8  C   LIG A   1      -8.841  -0.727 125.138  0.00  0.00    +0.011 C 
ATOM      9  C   LIG A   1      -8.377   0.113 126.334  0.00  0.00    +0.007 C 
ATOM     10  C   LIG A   1      -6.858  -0.054 126.336  0.00  0.00    +0.024 C 
ENDROOT
BRANCH   7  11
ATOM     11  C   LIG A   1      -8.062  -3.108 124.374  0.00  0.00    +0.134 C 
ATOM     12  C   LIG A   1      -9.445  -3.314 123.808  0.00  0.00    +0.086 C 
ATOM     13  O   LIG A   1      -7.230  -4.017 124.310  0.00  0.00    -0.297 OA
ENDBRANCH   7  11
BRANCH   5  14
ATOM     14  C   LIG A   1      -7.922  -2.783 128.100  0.00  0.00    -0.014 C 
ATOM     15  C   LIG A   1      -7.535  -3.314 129.500  0.00  0.00    +0.007 C 
ATOM     16  C   LIG A   1      -8.919  -3.795 127.538  0.00  0.00    +0.007 C 
ENDBRANCH   5  14
BRANCH   2  17
ATOM     17  O   LIG A   1      -4.753   0.840 127.043  0.00  0.00    -0.389 OA
ATOM     18  H   LIG A   1      -4.200   0.044 126.981  0.00  0.00    +0.210 HD
ENDBRANCH   2  17
TORSDOF 3
ENDMDL
MODEL 4
REMARK VINA RESULT:      -5.6      1.909      3.085
REMARK  Name = NuBBE_1428
REMARK  7 active torsions:
REMARK  status: ('A' for Active; 'I' for Inactive)
REMARK    1  A    between atoms: C_1  and  C_2
REMARK    2  A    between atoms: C_2  and  O_21
REMARK    3  A    between atoms: C_5  and  C_18
REMARK    4  A    between atoms: C_8  and  C_14
REMARK    5  A    between atoms: C_14  and  C_15
REMARK    6  A    between atoms: C_18  and  C_19
REMARK    7  A    between atoms: C_18  and  C_20
REMARK                            x       y       z     vdW  Elec       q    Type
REMARK                         _______ _______ _______ _____ _____    ______ ____
ROOT
ATOM      1  C   LIG A   1      -8.328  -3.827 124.356  0.00  0.00    +0.041 C 
ATOM      2  C   LIG A   1      -8.720  -2.699 125.313  0.00  0.00    +0.066 C 
ATOM      3  C   LIG A   1      -7.952  -2.838 126.636  0.00  0.00    +0.035 C 
ATOM      4  C   LIG A   1      -8.074  -1.597 127.523  0.00  0.00    +0.007 C 
ATOM      5  C   LIG A   1      -7.526  -0.331 126.809  0.00  0.00    -0.004 C 
ATOM      6  C   LIG A   1      -8.507  -0.101 125.609  0.00  0.00    +0.008 C 
ATOM      7  C   LIG A   1      -8.348   1.060 124.607  0.00  0.00    +0.059 C 
ATOM      8  C   LIG A   1      -7.606   0.476 123.393  0.00  0.00    +0.011 C 
ATOM      9  C   LIG A   1      -7.539  -1.039 123.622  0.00  0.00    +0.007 C 
ATOM     10  C   LIG A   1      -8.638  -1.308 124.649  0.00  0.00    +0.024 C 
ENDROOT
BRANCH   7  11
ATOM     11  C   LIG A   1      -7.889   2.412 125.135  0.00  0.00    +0.134 C 
ATOM     12  C   LIG A   1      -6.832   3.141 124.347  0.00  0.00    +0.086 C 
ATOM     13  O   LIG A   1      -8.458   2.978 126.072  0.00  0.00    -0.297 OA
ENDBRANCH   7  11
BRANCH   5  14
ATOM     14  C   LIG A   1      -5.970  -0.446 126.606  0.00  0.00    -0.014 C 
ATOM     15  C   LIG A   1      -5.319  -1.304 127.716  0.00  0.00    +0.007 C 
ATOM     16  C   LIG A   1      -5.198   0.872 126.600  0.00  0.00    +0.007 C 
ENDBRANCH   5  14
BRANCH   2  17
ATOM     17  O   LIG A   1     -10.112  -2.927 125.618  0.00  0.00    -0.389 OA
ATOM     18  H   LIG A   1     -10.637  -2.731 124.824  0.00  0.00    +0.210 HD
ENDBRANCH   2  17
TORSDOF 3
ENDMDL
MODEL 5
REMARK VINA RESULT:      -5.6      2.337      3.818
REMARK  Name = NuBBE_1428
REMARK  7 active torsions:
REMARK  status: ('A' for Active; 'I' for Inactive)
REMARK    1  A    between atoms: C_1  and  C_2
REMARK    2  A    between atoms: C_2  and  O_21
REMARK    3  A    between atoms: C_5  and  C_18
REMARK    4  A    between atoms: C_8  and  C_14
REMARK    5  A    between atoms: C_14  and  C_15
REMARK    6  A    between atoms: C_18  and  C_19
REMARK    7  A    between atoms: C_18  and  C_20
REMARK                            x       y       z     vdW  Elec       q    Type
REMARK                         _______ _______ _______ _____ _____    ______ ____
ROOT
ATOM      1  C   LIG A   1      -5.643  -1.205 127.812  0.00  0.00    +0.041 C 
ATOM      2  C   LIG A   1      -5.746  -0.690 126.374  0.00  0.00    +0.066 C 
ATOM      3  C   LIG A   1      -5.605  -1.856 125.385  0.00  0.00    +0.035 C 
ATOM      4  C   LIG A   1      -5.983  -1.467 123.955  0.00  0.00    +0.007 C 
ATOM      5  C   LIG A   1      -7.453  -0.973 123.869  0.00  0.00    -0.004 C 
ATOM      6  C   LIG A   1      -7.470   0.357 124.698  0.00  0.00    +0.008 C 
ATOM      7  C   LIG A   1      -8.741   1.206 124.893  0.00  0.00    +0.059 C 
ATOM      8  C   LIG A   1      -9.321   0.797 126.257  0.00  0.00    +0.011 C 
ATOM      9  C   LIG A   1      -8.275  -0.115 126.909  0.00  0.00    +0.007 C 
ATOM     10  C   LIG A   1      -6.983   0.207 126.158  0.00  0.00    +0.024 C 
ENDROOT
BRANCH   7  11
ATOM     11  C   LIG A   1      -9.707   1.341 123.723  0.00  0.00    +0.134 C 
ATOM     12  C   LIG A   1      -9.212   2.064 122.497  0.00  0.00    +0.086 C 
ATOM     13  O   LIG A   1     -10.791   0.753 123.696  0.00  0.00    -0.297 OA
ENDBRANCH   7  11
BRANCH   5  14
ATOM     14  C   LIG A   1      -8.447  -2.156 124.167  0.00  0.00    -0.014 C 
ATOM     15  C   LIG A   1      -7.697  -3.501 124.304  0.00  0.00    +0.007 C 
ATOM     16  C   LIG A   1      -9.533  -2.396 123.120  0.00  0.00    +0.007 C 
ENDBRANCH   5  14
BRANCH   2  17
ATOM     17  O   LIG A   1      -4.590   0.152 126.189  0.00  0.00    -0.389 OA
ATOM     18  H   LIG A   1      -4.840   1.068 126.394  0.00  0.00    +0.210 HD
ENDBRANCH   2  17
TORSDOF 3
ENDMDL
MODEL 6
REMARK VINA RESULT:      -5.5      1.842      3.510
REMARK  Name = NuBBE_1428
REMARK  7 active torsions:
REMARK  status: ('A' for Active; 'I' for Inactive)
REMARK    1  A    between atoms: C_1  and  C_2
REMARK    2  A    between atoms: C_2  and  O_21
REMARK    3  A    between atoms: C_5  and  C_18
REMARK    4  A    between atoms: C_8  and  C_14
REMARK    5  A    between atoms: C_14  and  C_15
REMARK    6  A    between atoms: C_18  and  C_19
REMARK    7  A    between atoms: C_18  and  C_20
REMARK                            x       y       z     vdW  Elec       q    Type
REMARK                         _______ _______ _______ _____ _____    ______ ____
ROOT
ATOM      1  C   LIG A   1      -9.000  -3.040 123.496  0.00  0.00    +0.041 C 
ATOM      2  C   LIG A   1      -7.777  -2.472 124.222  0.00  0.00    +0.066 C 
ATOM      3  C   LIG A   1      -7.674  -0.959 123.978  0.00  0.00    +0.035 C 
ATOM      4  C   LIG A   1      -6.656  -0.281 124.896  0.00  0.00    +0.007 C 
ATOM      5  C   LIG A   1      -7.020  -0.476 126.393  0.00  0.00    -0.004 C 
ATOM      6  C   LIG A   1      -6.863  -2.016 126.638  0.00  0.00    +0.008 C 
ATOM      7  C   LIG A   1      -7.130  -2.678 128.004  0.00  0.00    +0.059 C 
ATOM      8  C   LIG A   1      -8.567  -3.222 127.939  0.00  0.00    +0.011 C 
ATOM      9  C   LIG A   1      -9.023  -3.052 126.485  0.00  0.00    +0.007 C 
ATOM     10  C   LIG A   1      -7.719  -2.903 125.703  0.00  0.00    +0.024 C 
ENDROOT
BRANCH   7  11
ATOM     11  C   LIG A   1      -6.709  -1.933 129.262  0.00  0.00    +0.134 C 
ATOM     12  C   LIG A   1      -7.739  -1.778 130.353  0.00  0.00    +0.086 C 
ATOM     13  O   LIG A   1      -5.538  -1.605 129.471  0.00  0.00    -0.297 OA
ENDBRANCH   7  11
BRANCH   5  14
ATOM     14  C   LIG A   1      -8.347   0.294 126.739  0.00  0.00    -0.014 C 
ATOM     15  C   LIG A   1      -8.686   1.347 125.659  0.00  0.00    +0.007 C 
ATOM     16  C   LIG A   1      -8.355   1.051 128.066  0.00  0.00    +0.007 C 
ENDBRANCH   5  14
BRANCH   2  17
ATOM     17  O   LIG A   1      -6.638  -3.074 123.574  0.00  0.00    -0.389 OA
ATOM     18  H   LIG A   1      -6.144  -2.377 123.110  0.00  0.00    +0.210 HD
ENDBRANCH   2  17
TORSDOF 3
ENDMDL
MODEL 7
REMARK VINA RESULT:      -5.5      6.340      9.153
REMARK  Name = NuBBE_1428
REMARK  7 active torsions:
REMARK  status: ('A' for Active; 'I' for Inactive)
REMARK    1  A    between atoms: C_1  and  C_2
REMARK    2  A    between atoms: C_2  and  O_21
REMARK    3  A    between atoms: C_5  and  C_18
REMARK    4  A    between atoms: C_8  and  C_14
REMARK    5  A    between atoms: C_14  and  C_15
REMARK    6  A    between atoms: C_18  and  C_19
REMARK    7  A    between atoms: C_18  and  C_20
REMARK                            x       y       z     vdW  Elec       q    Type
REMARK                         _______ _______ _______ _____ _____    ______ ____
ROOT
ATOM      1  C   LIG A   1     -11.680   6.909 129.887  0.00  0.00    +0.041 C 
ATOM      2  C   LIG A   1     -11.088   5.907 130.881  0.00  0.00    +0.066 C 
ATOM      3  C   LIG A   1     -11.176   4.484 130.310  0.00  0.00    +0.035 C 
ATOM      4  C   LIG A   1     -10.352   3.474 131.111  0.00  0.00    +0.007 C 
ATOM      5  C   LIG A   1      -8.848   3.861 131.139  0.00  0.00    -0.004 C 
ATOM      6  C   LIG A   1      -8.802   5.199 131.954  0.00  0.00    +0.008 C 
ATOM      7  C   LIG A   1      -7.494   5.963 132.236  0.00  0.00    +0.059 C 
ATOM      8  C   LIG A   1      -7.401   7.059 131.162  0.00  0.00    +0.011 C 
ATOM      9  C   LIG A   1      -8.742   7.043 130.418  0.00  0.00    +0.007 C 
ATOM     10  C   LIG A   1      -9.691   6.328 131.380  0.00  0.00    +0.024 C 
ENDROOT
BRANCH   7  11
ATOM     11  C   LIG A   1      -6.238   5.158 132.539  0.00  0.00    +0.134 C 
ATOM     12  C   LIG A   1      -4.918   5.747 132.110  0.00  0.00    +0.086 C 
ATOM     13  O   LIG A   1      -6.260   4.146 133.245  0.00  0.00    -0.297 OA
ENDBRANCH   7  11
BRANCH   5  14
ATOM     14  C   LIG A   1      -8.223   3.736 129.701  0.00  0.00    -0.014 C 
ATOM     15  C   LIG A   1      -8.695   2.446 128.992  0.00  0.00    +0.007 C 
ATOM     16  C   LIG A   1      -6.697   3.706 129.636  0.00  0.00    +0.007 C 
ENDBRANCH   5  14
BRANCH   2  17
ATOM     17  O   LIG A   1     -11.964   5.947 132.026  0.00  0.00    -0.389 OA
ATOM     18  H   LIG A   1     -12.813   5.544 131.779  0.00  0.00    +0.210 HD
ENDBRANCH   2  17
TORSDOF 3
ENDMDL
MODEL 8
REMARK VINA RESULT:      -5.2      2.149      4.730
REMARK  Name = NuBBE_1428
REMARK  7 active torsions:
REMARK  status: ('A' for Active; 'I' for Inactive)
REMARK    1  A    between atoms: C_1  and  C_2
REMARK    2  A    between atoms: C_2  and  O_21
REMARK    3  A    between atoms: C_5  and  C_18
REMARK    4  A    between atoms: C_8  and  C_14
REMARK    5  A    between atoms: C_14  and  C_15
REMARK    6  A    between atoms: C_18  and  C_19
REMARK    7  A    between atoms: C_18  and  C_20
REMARK                            x       y       z     vdW  Elec       q    Type
REMARK                         _______ _______ _______ _____ _____    ______ ____
ROOT
ATOM      1  C   LIG A   1      -5.732   2.478 125.647  0.00  0.00    +0.041 C 
ATOM      2  C   LIG A   1      -7.023   1.780 126.084  0.00  0.00    +0.066 C 
ATOM      3  C   LIG A   1      -8.207   2.295 125.253  0.00  0.00    +0.035 C 
ATOM      4  C   LIG A   1      -9.467   1.444 125.430  0.00  0.00    +0.007 C 
ATOM      5  C   LIG A   1      -9.222  -0.030 125.010  0.00  0.00    -0.004 C 
ATOM      6  C   LIG A   1      -8.186  -0.570 126.055  0.00  0.00    +0.008 C 
ATOM      7  C   LIG A   1      -7.640  -2.011 126.026  0.00  0.00    +0.059 C 
ATOM      8  C   LIG A   1      -6.290  -1.940 125.294  0.00  0.00    +0.011 C 
ATOM      9  C   LIG A   1      -5.986  -0.449 125.102  0.00  0.00    +0.007 C 
ATOM     10  C   LIG A   1      -6.873   0.245 126.135  0.00  0.00    +0.024 C 
ENDROOT
BRANCH   7  11
ATOM     11  C   LIG A   1      -8.593  -3.137 125.650  0.00  0.00    +0.134 C 
ATOM     12  C   LIG A   1      -8.054  -4.235 124.768  0.00  0.00    +0.086 C 
ATOM     13  O   LIG A   1      -9.709  -3.252 126.162  0.00  0.00    -0.297 OA
ENDBRANCH   7  11
BRANCH   5  14
ATOM     14  C   LIG A   1      -8.972  -0.125 123.460  0.00  0.00    -0.014 C 
ATOM     15  C   LIG A   1      -9.924   0.809 122.678  0.00  0.00    +0.007 C 
ATOM     16  C   LIG A   1      -9.149  -1.508 122.837  0.00  0.00    +0.007 C 
ENDBRANCH   5  14
BRANCH   2  17
ATOM     17  O   LIG A   1      -7.249   2.216 127.440  0.00  0.00    -0.389 OA
ATOM     18  H   LIG A   1      -6.742   3.031 127.590  0.00  0.00    +0.210 HD
ENDBRANCH   2  17
TORSDOF 3
ENDMDL
MODEL 9
REMARK VINA RESULT:      -5.2      6.812      8.927
REMARK  Name = NuBBE_1428
REMARK  7 active torsions:
REMARK  status: ('A' for Active; 'I' for Inactive)
REMARK    1  A    between atoms: C_1  and  C_2
REMARK    2  A    between atoms: C_2  and  O_21
REMARK    3  A    between atoms: C_5  and  C_18
REMARK    4  A    between atoms: C_8  and  C_14
REMARK    5  A    between atoms: C_14  and  C_15
REMARK    6  A    between atoms: C_18  and  C_19
REMARK    7  A    between atoms: C_18  and  C_20
REMARK                            x       y       z     vdW  Elec       q    Type
REMARK                         _______ _______ _______ _____ _____    ______ ____
ROOT
ATOM      1  C   LIG A   1      -4.061   4.206 126.418  0.00  0.00    +0.041 C 
ATOM      2  C   LIG A   1      -3.128   4.478 127.601  0.00  0.00    +0.066 C 
ATOM      3  C   LIG A   1      -2.918   5.990 127.771  0.00  0.00    +0.035 C 
ATOM      4  C   LIG A   1      -2.238   6.347 129.094  0.00  0.00    +0.007 C 
ATOM      5  C   LIG A   1      -3.073   5.863 130.311  0.00  0.00    -0.004 C 
ATOM      6  C   LIG A   1      -3.038   4.300 130.216  0.00  0.00    +0.008 C 
ATOM      7  C   LIG A   1      -3.748   3.382 131.231  0.00  0.00    +0.059 C 
ATOM      8  C   LIG A   1      -5.097   3.009 130.595  0.00  0.00    +0.011 C 
ATOM      9  C   LIG A   1      -5.053   3.539 129.156  0.00  0.00    +0.007 C 
ATOM     10  C   LIG A   1      -3.562   3.728 128.877  0.00  0.00    +0.024 C 
ENDROOT
BRANCH   7  11
ATOM     11  C   LIG A   1      -3.742   3.787 132.698  0.00  0.00    +0.134 C 
ATOM     12  C   LIG A   1      -2.463   4.360 133.254  0.00  0.00    +0.086 C 
ATOM     13  O   LIG A   1      -4.772   3.806 133.377  0.00  0.00    -0.297 OA
ENDBRANCH   7  11
BRANCH   5  14
ATOM     14  C   LIG A   1      -4.424   6.665 130.403  0.00  0.00    -0.014 C 
ATOM     15  C   LIG A   1      -4.236   8.137 129.973  0.00  0.00    +0.007 C 
ATOM     16  C   LIG A   1      -5.077   6.719 131.783  0.00  0.00    +0.007 C 
ENDBRANCH   5  14
BRANCH   2  17
ATOM     17  O   LIG A   1      -1.853   3.925 127.213  0.00  0.00    -0.389 OA
ATOM     18  H   LIG A   1      -1.823   2.995 127.492  0.00  0.00    +0.210 HD
ENDBRANCH   2  17
TORSDOF 3
ENDMDL
