MODEL 1
REMARK VINA RESULT:      -5.8      0.000      0.000
REMARK  Name = NuBBE_1793
REMARK  15 active torsions:
REMARK  status: ('A' for Active; 'I' for Inactive)
REMARK    1  A    between atoms: C_4  and  C_5
REMARK    2  A    between atoms: C_5  and  C_6
REMARK    3  A    between atoms: C_6  and  C_7
REMARK    4  A    between atoms: C_6  and  O_9
REMARK    5  A    between atoms: C_7  and  O_8
REMARK    6  A    between atoms: C_11  and  C_12
REMARK    7  A    between atoms: C_12  and  C_13
REMARK    8  A    between atoms: C_13  and  C_14
REMARK    9  A    between atoms: C_14  and  C_15
REMARK   10  A    between atoms: C_15  and  C_16
REMARK   11  A    between atoms: C_16  and  C_17
REMARK   12  A    between atoms: C_17  and  C_18
REMARK   13  A    between atoms: C_18  and  C_19
REMARK   14  A    between atoms: C_19  and  C_20
REMARK   15  A    between atoms: C_20  and  C_21
REMARK                            x       y       z     vdW  Elec       q    Type
REMARK                         _______ _______ _______ _____ _____    ______ ____
ROOT
ATOM      1  O   LIG A   1     -10.726   0.775 122.564  0.00  0.00    -0.251 OA
ATOM      2  C   LIG A   1      -9.765   0.028 122.908  0.00  0.00    +0.311 C 
ATOM      3  O   LIG A   1      -9.857  -1.321 122.924  0.00  0.00    -0.461 OA
ATOM      4  C   LIG A   1      -8.396   0.512 123.263  0.00  0.00    +0.104 C 
ATOM      5  C   LIG A   1      -7.705  -0.783 123.594  0.00  0.00    +0.059 C 
ATOM      6  C   LIG A   1      -8.887  -1.694 123.891  0.00  0.00    +0.177 C 
ENDROOT
BRANCH   4   7
ATOM      7  C   LIG A   1      -8.325   1.601 124.345  0.00  0.00    +0.048 C 
BRANCH   7   8
ATOM      8  C   LIG A   1      -8.019   3.052 123.911  0.00  0.00    +0.141 C 
BRANCH   8   9
ATOM      9  O   LIG A   1      -8.737   3.291 122.684  0.00  0.00    -0.390 OA
ATOM     10  H   LIG A   1      -9.107   4.192 122.719  0.00  0.00    +0.210 HD
ENDBRANCH   8   9
BRANCH   8  11
ATOM     11  C   LIG A   1      -6.542   3.422 123.615  0.00  0.00    +0.187 C 
BRANCH  11  12
ATOM     12  O   LIG A   1      -6.191   4.771 123.727  0.00  0.00    -0.393 OA
ATOM     13  H   LIG A   1      -5.242   4.946 123.765  0.00  0.00    +0.209 HD
ENDBRANCH  11  12
ENDBRANCH   8  11
ENDBRANCH   7   8
ENDBRANCH   4   7
BRANCH   6  14
ATOM     14  C   LIG A   1      -8.447  -3.127 123.883  0.00  0.00    +0.045 C 
BRANCH  14  15
ATOM     15  C   LIG A   1      -8.279  -3.688 125.274  0.00  0.00    +0.003 C 
BRANCH  15  16
ATOM     16  C   LIG A   1      -9.126  -3.155 126.427  0.00  0.00    +0.000 C 
BRANCH  16  17
ATOM     17  C   LIG A   1      -8.925  -3.927 127.748  0.00  0.00    -0.000 C 
BRANCH  17  18
ATOM     18  C   LIG A   1      -8.463  -3.346 129.099  0.00  0.00    -0.000 C 
BRANCH  18  19
ATOM     19  C   LIG A   1      -7.025  -3.594 129.588  0.00  0.00    -0.000 C 
BRANCH  19  20
ATOM     20  C   LIG A   1      -5.933  -2.526 129.477  0.00  0.00    -0.000 C 
BRANCH  20  21
ATOM     21  C   LIG A   1      -4.948  -2.574 128.279  0.00  0.00    -0.000 C 
BRANCH  21  22
ATOM     22  C   LIG A   1      -5.536  -2.013 126.986  0.00  0.00    -0.003 C 
ATOM     23  C   LIG A   1      -5.975  -0.578 126.837  0.00  0.00    +0.004 C 
ENDBRANCH  21  22
ENDBRANCH  20  21
ENDBRANCH  19  20
ENDBRANCH  18  19
ENDBRANCH  17  18
ENDBRANCH  16  17
ENDBRANCH  15  16
ENDBRANCH  14  15
ENDBRANCH   6  14
TORSDOF 14
ENDMDL
MODEL 2
REMARK VINA RESULT:      -5.8      2.596      4.163
REMARK  Name = NuBBE_1793
REMARK  15 active torsions:
REMARK  status: ('A' for Active; 'I' for Inactive)
REMARK    1  A    between atoms: C_4  and  C_5
REMARK    2  A    between atoms: C_5  and  C_6
REMARK    3  A    between atoms: C_6  and  C_7
REMARK    4  A    between atoms: C_6  and  O_9
REMARK    5  A    between atoms: C_7  and  O_8
REMARK    6  A    between atoms: C_11  and  C_12
REMARK    7  A    between atoms: C_12  and  C_13
REMARK    8  A    between atoms: C_13  and  C_14
REMARK    9  A    between atoms: C_14  and  C_15
REMARK   10  A    between atoms: C_15  and  C_16
REMARK   11  A    between atoms: C_16  and  C_17
REMARK   12  A    between atoms: C_17  and  C_18
REMARK   13  A    between atoms: C_18  and  C_19
REMARK   14  A    between atoms: C_19  and  C_20
REMARK   15  A    between atoms: C_20  and  C_21
REMARK                            x       y       z     vdW  Elec       q    Type
REMARK                         _______ _______ _______ _____ _____    ______ ____
ROOT
ATOM      1  O   LIG A   1      -8.893   3.406 121.759  0.00  0.00    -0.251 OA
ATOM      2  C   LIG A   1      -8.381   2.797 122.741  0.00  0.00    +0.311 C 
ATOM      3  O   LIG A   1      -9.123   2.248 123.730  0.00  0.00    -0.461 OA
ATOM      4  C   LIG A   1      -6.919   2.534 122.911  0.00  0.00    +0.104 C 
ATOM      5  C   LIG A   1      -6.903   1.814 124.232  0.00  0.00    +0.059 C 
ATOM      6  C   LIG A   1      -8.231   2.249 124.834  0.00  0.00    +0.177 C 
ENDROOT
BRANCH   4   7
ATOM      7  C   LIG A   1      -5.997   3.759 122.809  0.00  0.00    +0.048 C 
BRANCH   7   8
ATOM      8  C   LIG A   1      -5.188   3.967 121.508  0.00  0.00    +0.141 C 
BRANCH   8   9
ATOM      9  O   LIG A   1      -4.081   4.833 121.827  0.00  0.00    -0.390 OA
ATOM     10  H   LIG A   1      -4.420   5.743 121.906  0.00  0.00    +0.210 HD
ENDBRANCH   8   9
BRANCH   8  11
ATOM     11  C   LIG A   1      -5.911   4.632 120.307  0.00  0.00    +0.187 C 
BRANCH  11  12
ATOM     12  O   LIG A   1      -6.852   3.856 119.624  0.00  0.00    -0.393 OA
ATOM     13  H   LIG A   1      -6.552   2.971 119.377  0.00  0.00    +0.209 HD
ENDBRANCH  11  12
ENDBRANCH   8  11
ENDBRANCH   7   8
ENDBRANCH   4   7
BRANCH   6  14
ATOM     14  C   LIG A   1      -8.589   1.359 125.986  0.00  0.00    +0.045 C 
BRANCH  14  15
ATOM     15  C   LIG A   1      -8.921  -0.047 125.549  0.00  0.00    +0.003 C 
BRANCH  15  16
ATOM     16  C   LIG A   1      -8.645  -1.227 126.475  0.00  0.00    +0.000 C 
BRANCH  16  17
ATOM     17  C   LIG A   1      -9.200  -2.568 125.950  0.00  0.00    -0.000 C 
BRANCH  17  18
ATOM     18  C   LIG A   1      -9.294  -3.018 124.478  0.00  0.00    -0.000 C 
BRANCH  18  19
ATOM     19  C   LIG A   1      -8.009  -3.294 123.678  0.00  0.00    -0.000 C 
BRANCH  19  20
ATOM     20  C   LIG A   1      -7.135  -2.163 123.127  0.00  0.00    -0.000 C 
BRANCH  20  21
ATOM     21  C   LIG A   1      -5.595  -2.347 123.093  0.00  0.00    -0.000 C 
BRANCH  21  22
ATOM     22  C   LIG A   1      -5.091  -3.430 124.046  0.00  0.00    -0.003 C 
ATOM     23  C   LIG A   1      -4.377  -4.672 123.576  0.00  0.00    +0.004 C 
ENDBRANCH  21  22
ENDBRANCH  20  21
ENDBRANCH  19  20
ENDBRANCH  18  19
ENDBRANCH  17  18
ENDBRANCH  16  17
ENDBRANCH  15  16
ENDBRANCH  14  15
ENDBRANCH   6  14
TORSDOF 14
ENDMDL
MODEL 3
REMARK VINA RESULT:      -5.8      7.930      9.947
REMARK  Name = NuBBE_1793
REMARK  15 active torsions:
REMARK  status: ('A' for Active; 'I' for Inactive)
REMARK    1  A    between atoms: C_4  and  C_5
REMARK    2  A    between atoms: C_5  and  C_6
REMARK    3  A    between atoms: C_6  and  C_7
REMARK    4  A    between atoms: C_6  and  O_9
REMARK    5  A    between atoms: C_7  and  O_8
REMARK    6  A    between atoms: C_11  and  C_12
REMARK    7  A    between atoms: C_12  and  C_13
REMARK    8  A    between atoms: C_13  and  C_14
REMARK    9  A    between atoms: C_14  and  C_15
REMARK   10  A    between atoms: C_15  and  C_16
REMARK   11  A    between atoms: C_16  and  C_17
REMARK   12  A    between atoms: C_17  and  C_18
REMARK   13  A    between atoms: C_18  and  C_19
REMARK   14  A    between atoms: C_19  and  C_20
REMARK   15  A    between atoms: C_20  and  C_21
REMARK                            x       y       z     vdW  Elec       q    Type
REMARK                         _______ _______ _______ _____ _____    ______ ____
ROOT
ATOM      1  O   LIG A   1     -13.082   7.072 131.827  0.00  0.00    -0.251 OA
ATOM      2  C   LIG A   1     -11.972   6.606 131.441  0.00  0.00    +0.311 C 
ATOM      3  O   LIG A   1     -10.874   6.583 132.230  0.00  0.00    -0.461 OA
ATOM      4  C   LIG A   1     -11.736   5.958 130.115  0.00  0.00    +0.104 C 
ATOM      5  C   LIG A   1     -10.271   5.628 130.207  0.00  0.00    +0.059 C 
ATOM      6  C   LIG A   1      -9.809   6.590 131.292  0.00  0.00    +0.177 C 
ENDROOT
BRANCH   4   7
ATOM      7  C   LIG A   1     -12.160   6.770 128.881  0.00  0.00    +0.048 C 
BRANCH   7   8
ATOM      8  C   LIG A   1     -11.099   7.642 128.173  0.00  0.00    +0.141 C 
BRANCH   8   9
ATOM      9  O   LIG A   1     -11.483   9.019 128.358  0.00  0.00    -0.390 OA
ATOM     10  H   LIG A   1     -12.368   9.142 127.969  0.00  0.00    +0.210 HD
ENDBRANCH   8   9
BRANCH   8  11
ATOM     11  C   LIG A   1     -10.917   7.457 126.642  0.00  0.00    +0.187 C 
BRANCH  11  12
ATOM     12  O   LIG A   1     -11.909   6.740 125.968  0.00  0.00    -0.393 OA
ATOM     13  H   LIG A   1     -12.189   7.120 125.125  0.00  0.00    +0.209 HD
ENDBRANCH  11  12
ENDBRANCH   8  11
ENDBRANCH   7   8
ENDBRANCH   4   7
BRANCH   6  14
ATOM     14  C   LIG A   1      -8.461   6.178 131.804  0.00  0.00    +0.045 C 
BRANCH  14  15
ATOM     15  C   LIG A   1      -7.333   6.898 131.108  0.00  0.00    +0.003 C 
BRANCH  15  16
ATOM     16  C   LIG A   1      -6.007   6.188 130.852  0.00  0.00    +0.000 C 
BRANCH  16  17
ATOM     17  C   LIG A   1      -4.791   6.910 131.469  0.00  0.00    -0.000 C 
BRANCH  17  18
ATOM     18  C   LIG A   1      -3.774   7.805 130.733  0.00  0.00    -0.000 C 
BRANCH  18  19
ATOM     19  C   LIG A   1      -3.836   7.935 129.201  0.00  0.00    -0.000 C 
BRANCH  19  20
ATOM     20  C   LIG A   1      -3.527   6.757 128.271  0.00  0.00    -0.000 C 
BRANCH  20  21
ATOM     21  C   LIG A   1      -2.476   5.703 128.712  0.00  0.00    -0.000 C 
BRANCH  21  22
ATOM     22  C   LIG A   1      -2.805   4.286 128.248  0.00  0.00    -0.003 C 
ATOM     23  C   LIG A   1      -2.196   3.661 127.017  0.00  0.00    +0.004 C 
ENDBRANCH  21  22
ENDBRANCH  20  21
ENDBRANCH  19  20
ENDBRANCH  18  19
ENDBRANCH  17  18
ENDBRANCH  16  17
ENDBRANCH  15  16
ENDBRANCH  14  15
ENDBRANCH   6  14
TORSDOF 14
ENDMDL
MODEL 4
REMARK VINA RESULT:      -5.8      1.679      2.237
REMARK  Name = NuBBE_1793
REMARK  15 active torsions:
REMARK  status: ('A' for Active; 'I' for Inactive)
REMARK    1  A    between atoms: C_4  and  C_5
REMARK    2  A    between atoms: C_5  and  C_6
REMARK    3  A    between atoms: C_6  and  C_7
REMARK    4  A    between atoms: C_6  and  O_9
REMARK    5  A    between atoms: C_7  and  O_8
REMARK    6  A    between atoms: C_11  and  C_12
REMARK    7  A    between atoms: C_12  and  C_13
REMARK    8  A    between atoms: C_13  and  C_14
REMARK    9  A    between atoms: C_14  and  C_15
REMARK   10  A    between atoms: C_15  and  C_16
REMARK   11  A    between atoms: C_16  and  C_17
REMARK   12  A    between atoms: C_17  and  C_18
REMARK   13  A    between atoms: C_18  and  C_19
REMARK   14  A    between atoms: C_19  and  C_20
REMARK   15  A    between atoms: C_20  and  C_21
REMARK                            x       y       z     vdW  Elec       q    Type
REMARK                         _______ _______ _______ _____ _____    ______ ____
ROOT
ATOM      1  O   LIG A   1     -10.607   1.778 124.853  0.00  0.00    -0.251 OA
ATOM      2  C   LIG A   1      -9.716   1.107 124.258  0.00  0.00    +0.311 C 
ATOM      3  O   LIG A   1      -9.947  -0.123 123.743  0.00  0.00    -0.461 OA
ATOM      4  C   LIG A   1      -8.331   1.594 123.973  0.00  0.00    +0.104 C 
ATOM      5  C   LIG A   1      -7.736   0.398 123.282  0.00  0.00    +0.059 C 
ATOM      6  C   LIG A   1      -8.659  -0.718 123.753  0.00  0.00    +0.177 C 
ENDROOT
BRANCH   4   7
ATOM      7  C   LIG A   1      -7.543   2.127 125.180  0.00  0.00    +0.048 C 
BRANCH   7   8
ATOM      8  C   LIG A   1      -7.540   3.650 125.444  0.00  0.00    +0.141 C 
BRANCH   8   9
ATOM      9  O   LIG A   1      -8.800   4.168 124.972  0.00  0.00    -0.390 OA
ATOM     10  H   LIG A   1      -8.784   4.163 123.998  0.00  0.00    +0.210 HD
ENDBRANCH   8   9
BRANCH   8  11
ATOM     11  C   LIG A   1      -6.446   4.503 124.747  0.00  0.00    +0.187 C 
BRANCH  11  12
ATOM     12  O   LIG A   1      -6.495   5.885 124.951  0.00  0.00    -0.393 OA
ATOM     13  H   LIG A   1      -7.296   6.319 124.631  0.00  0.00    +0.209 HD
ENDBRANCH  11  12
ENDBRANCH   8  11
ENDBRANCH   7   8
ENDBRANCH   4   7
BRANCH   6  14
ATOM     14  C   LIG A   1      -8.474  -1.933 122.895  0.00  0.00    +0.045 C 
BRANCH  14  15
ATOM     15  C   LIG A   1      -9.183  -3.145 123.449  0.00  0.00    +0.003 C 
BRANCH  15  16
ATOM     16  C   LIG A   1      -8.664  -3.830 124.710  0.00  0.00    +0.000 C 
BRANCH  16  17
ATOM     17  C   LIG A   1      -9.262  -3.259 126.013  0.00  0.00    -0.000 C 
BRANCH  17  18
ATOM     18  C   LIG A   1      -8.484  -2.764 127.250  0.00  0.00    -0.000 C 
BRANCH  18  19
ATOM     19  C   LIG A   1      -7.490  -1.598 127.113  0.00  0.00    -0.000 C 
BRANCH  19  20
ATOM     20  C   LIG A   1      -6.012  -1.824 126.780  0.00  0.00    -0.000 C 
BRANCH  20  21
ATOM     21  C   LIG A   1      -5.543  -1.704 125.305  0.00  0.00    -0.000 C 
BRANCH  21  22
ATOM     22  C   LIG A   1      -5.235  -3.050 124.653  0.00  0.00    -0.003 C 
ATOM     23  C   LIG A   1      -4.738  -3.183 123.235  0.00  0.00    +0.004 C 
ENDBRANCH  21  22
ENDBRANCH  20  21
ENDBRANCH  19  20
ENDBRANCH  18  19
ENDBRANCH  17  18
ENDBRANCH  16  17
ENDBRANCH  15  16
ENDBRANCH  14  15
ENDBRANCH   6  14
TORSDOF 14
ENDMDL
MODEL 5
REMARK VINA RESULT:      -5.7      4.475      6.997
REMARK  Name = NuBBE_1793
REMARK  15 active torsions:
REMARK  status: ('A' for Active; 'I' for Inactive)
REMARK    1  A    between atoms: C_4  and  C_5
REMARK    2  A    between atoms: C_5  and  C_6
REMARK    3  A    between atoms: C_6  and  C_7
REMARK    4  A    between atoms: C_6  and  O_9
REMARK    5  A    between atoms: C_7  and  O_8
REMARK    6  A    between atoms: C_11  and  C_12
REMARK    7  A    between atoms: C_12  and  C_13
REMARK    8  A    between atoms: C_13  and  C_14
REMARK    9  A    between atoms: C_14  and  C_15
REMARK   10  A    between atoms: C_15  and  C_16
REMARK   11  A    between atoms: C_16  and  C_17
REMARK   12  A    between atoms: C_17  and  C_18
REMARK   13  A    between atoms: C_18  and  C_19
REMARK   14  A    between atoms: C_19  and  C_20
REMARK   15  A    between atoms: C_20  and  C_21
REMARK                            x       y       z     vdW  Elec       q    Type
REMARK                         _______ _______ _______ _____ _____    ______ ____
ROOT
ATOM      1  O   LIG A   1      -7.170  -2.809 131.446  0.00  0.00    -0.251 OA
ATOM      2  C   LIG A   1      -7.342  -2.796 130.193  0.00  0.00    +0.311 C 
ATOM      3  O   LIG A   1      -8.503  -3.172 129.611  0.00  0.00    -0.461 OA
ATOM      4  C   LIG A   1      -6.340  -2.299 129.201  0.00  0.00    +0.104 C 
ATOM      5  C   LIG A   1      -7.067  -2.538 127.906  0.00  0.00    +0.059 C 
ATOM      6  C   LIG A   1      -8.090  -3.588 128.318  0.00  0.00    +0.177 C 
ENDROOT
BRANCH   4   7
ATOM      7  C   LIG A   1      -4.934  -2.912 129.299  0.00  0.00    +0.048 C 
BRANCH   7   8
ATOM      8  C   LIG A   1      -3.802  -2.064 129.920  0.00  0.00    +0.141 C 
BRANCH   8   9
ATOM      9  O   LIG A   1      -2.553  -2.598 129.436  0.00  0.00    -0.390 OA
ATOM     10  H   LIG A   1      -2.031  -1.863 129.067  0.00  0.00    +0.210 HD
ENDBRANCH   8   9
BRANCH   8  11
ATOM     11  C   LIG A   1      -3.680  -2.042 131.467  0.00  0.00    +0.187 C 
BRANCH  11  12
ATOM     12  O   LIG A   1      -4.302  -3.080 132.166  0.00  0.00    -0.393 OA
ATOM     13  H   LIG A   1      -3.737  -3.547 132.796  0.00  0.00    +0.209 HD
ENDBRANCH  11  12
ENDBRANCH   8  11
ENDBRANCH   7   8
ENDBRANCH   4   7
BRANCH   6  14
ATOM     14  C   LIG A   1      -9.160  -3.700 127.275  0.00  0.00    +0.045 C 
BRANCH  14  15
ATOM     15  C   LIG A   1      -8.865  -2.867 126.052  0.00  0.00    +0.003 C 
BRANCH  15  16
ATOM     16  C   LIG A   1      -9.044  -3.457 124.656  0.00  0.00    +0.000 C 
BRANCH  16  17
ATOM     17  C   LIG A   1      -9.054  -2.397 123.535  0.00  0.00    -0.000 C 
BRANCH  17  18
ATOM     18  C   LIG A   1      -7.959  -2.160 122.475  0.00  0.00    -0.000 C 
BRANCH  18  19
ATOM     19  C   LIG A   1      -6.691  -1.372 122.848  0.00  0.00    -0.000 C 
BRANCH  19  20
ATOM     20  C   LIG A   1      -6.082  -1.428 124.252  0.00  0.00    -0.000 C 
BRANCH  20  21
ATOM     21  C   LIG A   1      -5.275  -2.684 124.676  0.00  0.00    -0.000 C 
BRANCH  21  22
ATOM     22  C   LIG A   1      -4.609  -3.403 123.505  0.00  0.00    -0.003 C 
ATOM     23  C   LIG A   1      -4.380  -4.894 123.478  0.00  0.00    +0.004 C 
ENDBRANCH  21  22
ENDBRANCH  20  21
ENDBRANCH  19  20
ENDBRANCH  18  19
ENDBRANCH  17  18
ENDBRANCH  16  17
ENDBRANCH  15  16
ENDBRANCH  14  15
ENDBRANCH   6  14
TORSDOF 14
ENDMDL
MODEL 6
REMARK VINA RESULT:      -5.7      2.357      4.670
REMARK  Name = NuBBE_1793
REMARK  15 active torsions:
REMARK  status: ('A' for Active; 'I' for Inactive)
REMARK    1  A    between atoms: C_4  and  C_5
REMARK    2  A    between atoms: C_5  and  C_6
REMARK    3  A    between atoms: C_6  and  C_7
REMARK    4  A    between atoms: C_6  and  O_9
REMARK    5  A    between atoms: C_7  and  O_8
REMARK    6  A    between atoms: C_11  and  C_12
REMARK    7  A    between atoms: C_12  and  C_13
REMARK    8  A    between atoms: C_13  and  C_14
REMARK    9  A    between atoms: C_14  and  C_15
REMARK   10  A    between atoms: C_15  and  C_16
REMARK   11  A    between atoms: C_16  and  C_17
REMARK   12  A    between atoms: C_17  and  C_18
REMARK   13  A    between atoms: C_18  and  C_19
REMARK   14  A    between atoms: C_19  and  C_20
REMARK   15  A    between atoms: C_20  and  C_21
REMARK                            x       y       z     vdW  Elec       q    Type
REMARK                         _______ _______ _______ _____ _____    ______ ____
ROOT
ATOM      1  O   LIG A   1      -8.493   4.116 120.419  0.00  0.00    -0.251 OA
ATOM      2  C   LIG A   1      -8.131   3.406 121.400  0.00  0.00    +0.311 C 
ATOM      3  O   LIG A   1      -9.011   2.762 122.201  0.00  0.00    -0.461 OA
ATOM      4  C   LIG A   1      -6.710   3.118 121.765  0.00  0.00    +0.104 C 
ATOM      5  C   LIG A   1      -6.890   2.264 122.990  0.00  0.00    +0.059 C 
ATOM      6  C   LIG A   1      -8.299   2.643 123.423  0.00  0.00    +0.177 C 
ENDROOT
BRANCH   4   7
ATOM      7  C   LIG A   1      -5.795   4.341 121.933  0.00  0.00    +0.048 C 
BRANCH   7   8
ATOM      8  C   LIG A   1      -4.917   4.774 120.738  0.00  0.00    +0.141 C 
BRANCH   8   9
ATOM      9  O   LIG A   1      -4.278   6.013 121.104  0.00  0.00    -0.390 OA
ATOM     10  H   LIG A   1      -4.057   6.494 120.286  0.00  0.00    +0.210 HD
ENDBRANCH   8   9
BRANCH   8  11
ATOM     11  C   LIG A   1      -5.623   5.048 119.383  0.00  0.00    +0.187 C 
BRANCH  11  12
ATOM     12  O   LIG A   1      -5.453   6.318 118.825  0.00  0.00    -0.393 OA
ATOM     13  H   LIG A   1      -4.931   6.342 118.011  0.00  0.00    +0.209 HD
ENDBRANCH  11  12
ENDBRANCH   8  11
ENDBRANCH   7   8
ENDBRANCH   4   7
BRANCH   6  14
ATOM     14  C   LIG A   1      -8.821   1.640 124.408  0.00  0.00    +0.045 C 
BRANCH  14  15
ATOM     15  C   LIG A   1      -8.294   0.249 124.152  0.00  0.00    +0.003 C 
BRANCH  15  16
ATOM     16  C   LIG A   1      -9.012  -0.678 123.176  0.00  0.00    +0.000 C 
BRANCH  16  17
ATOM     17  C   LIG A   1      -8.073  -1.681 122.473  0.00  0.00    -0.000 C 
BRANCH  17  18
ATOM     18  C   LIG A   1      -6.538  -1.761 122.605  0.00  0.00    -0.000 C 
BRANCH  18  19
ATOM     19  C   LIG A   1      -5.906  -2.730 123.619  0.00  0.00    -0.000 C 
BRANCH  19  20
ATOM     20  C   LIG A   1      -6.346  -2.773 125.086  0.00  0.00    -0.000 C 
BRANCH  20  21
ATOM     21  C   LIG A   1      -7.717  -3.404 125.445  0.00  0.00    -0.000 C 
BRANCH  21  22
ATOM     22  C   LIG A   1      -8.259  -2.951 126.800  0.00  0.00    -0.003 C 
ATOM     23  C   LIG A   1      -8.902  -3.894 127.785  0.00  0.00    +0.004 C 
ENDBRANCH  21  22
ENDBRANCH  20  21
ENDBRANCH  19  20
ENDBRANCH  18  19
ENDBRANCH  17  18
ENDBRANCH  16  17
ENDBRANCH  15  16
ENDBRANCH  14  15
ENDBRANCH   6  14
TORSDOF 14
ENDMDL
MODEL 7
REMARK VINA RESULT:      -5.7      4.984      8.010
REMARK  Name = NuBBE_1793
REMARK  15 active torsions:
REMARK  status: ('A' for Active; 'I' for Inactive)
REMARK    1  A    between atoms: C_4  and  C_5
REMARK    2  A    between atoms: C_5  and  C_6
REMARK    3  A    between atoms: C_6  and  C_7
REMARK    4  A    between atoms: C_6  and  O_9
REMARK    5  A    between atoms: C_7  and  O_8
REMARK    6  A    between atoms: C_11  and  C_12
REMARK    7  A    between atoms: C_12  and  C_13
REMARK    8  A    between atoms: C_13  and  C_14
REMARK    9  A    between atoms: C_14  and  C_15
REMARK   10  A    between atoms: C_15  and  C_16
REMARK   11  A    between atoms: C_16  and  C_17
REMARK   12  A    between atoms: C_17  and  C_18
REMARK   13  A    between atoms: C_18  and  C_19
REMARK   14  A    between atoms: C_19  and  C_20
REMARK   15  A    between atoms: C_20  and  C_21
REMARK                            x       y       z     vdW  Elec       q    Type
REMARK                         _______ _______ _______ _____ _____    ______ ____
ROOT
ATOM      1  O   LIG A   1      -3.726  -3.401 129.612  0.00  0.00    -0.251 OA
ATOM      2  C   LIG A   1      -4.969  -3.348 129.388  0.00  0.00    +0.311 C 
ATOM      3  O   LIG A   1      -5.498  -2.634 128.368  0.00  0.00    -0.461 OA
ATOM      4  C   LIG A   1      -6.005  -4.110 130.150  0.00  0.00    +0.104 C 
ATOM      5  C   LIG A   1      -7.266  -3.650 129.470  0.00  0.00    +0.059 C 
ATOM      6  C   LIG A   1      -6.809  -2.347 128.829  0.00  0.00    +0.177 C 
ENDROOT
BRANCH   4   7
ATOM      7  C   LIG A   1      -5.974  -3.947 131.677  0.00  0.00    +0.048 C 
BRANCH   7   8
ATOM      8  C   LIG A   1      -5.264  -5.031 132.520  0.00  0.00    +0.141 C 
BRANCH   8   9
ATOM      9  O   LIG A   1      -6.112  -5.318 133.650  0.00  0.00    -0.390 OA
ATOM     10  H   LIG A   1      -6.615  -4.512 133.864  0.00  0.00    +0.210 HD
ENDBRANCH   8   9
BRANCH   8  11
ATOM     11  C   LIG A   1      -3.872  -4.687 133.114  0.00  0.00    +0.187 C 
BRANCH  11  12
ATOM     12  O   LIG A   1      -2.975  -4.014 132.279  0.00  0.00    -0.393 OA
ATOM     13  H   LIG A   1      -2.157  -4.491 132.087  0.00  0.00    +0.209 HD
ENDBRANCH  11  12
ENDBRANCH   8  11
ENDBRANCH   7   8
ENDBRANCH   4   7
BRANCH   6  14
ATOM     14  C   LIG A   1      -7.803  -1.907 127.795  0.00  0.00    +0.045 C 
BRANCH  14  15
ATOM     15  C   LIG A   1      -8.399  -3.067 127.036  0.00  0.00    +0.003 C 
BRANCH  15  16
ATOM     16  C   LIG A   1      -9.436  -2.822 125.944  0.00  0.00    +0.000 C 
BRANCH  16  17
ATOM     17  C   LIG A   1      -9.083  -3.488 124.598  0.00  0.00    -0.000 C 
BRANCH  17  18
ATOM     18  C   LIG A   1      -8.395  -2.824 123.388  0.00  0.00    -0.000 C 
BRANCH  18  19
ATOM     19  C   LIG A   1      -7.628  -1.503 123.573  0.00  0.00    -0.000 C 
BRANCH  19  20
ATOM     20  C   LIG A   1      -6.195  -1.463 124.115  0.00  0.00    -0.000 C 
BRANCH  20  21
ATOM     21  C   LIG A   1      -5.534  -2.781 124.598  0.00  0.00    -0.000 C 
BRANCH  21  22
ATOM     22  C   LIG A   1      -4.541  -3.367 123.596  0.00  0.00    -0.003 C 
ATOM     23  C   LIG A   1      -4.308  -4.849 123.439  0.00  0.00    +0.004 C 
ENDBRANCH  21  22
ENDBRANCH  20  21
ENDBRANCH  19  20
ENDBRANCH  18  19
ENDBRANCH  17  18
ENDBRANCH  16  17
ENDBRANCH  15  16
ENDBRANCH  14  15
ENDBRANCH   6  14
TORSDOF 14
ENDMDL
MODEL 8
REMARK VINA RESULT:      -5.6      7.607      9.041
REMARK  Name = NuBBE_1793
REMARK  15 active torsions:
REMARK  status: ('A' for Active; 'I' for Inactive)
REMARK    1  A    between atoms: C_4  and  C_5
REMARK    2  A    between atoms: C_5  and  C_6
REMARK    3  A    between atoms: C_6  and  C_7
REMARK    4  A    between atoms: C_6  and  O_9
REMARK    5  A    between atoms: C_7  and  O_8
REMARK    6  A    between atoms: C_11  and  C_12
REMARK    7  A    between atoms: C_12  and  C_13
REMARK    8  A    between atoms: C_13  and  C_14
REMARK    9  A    between atoms: C_14  and  C_15
REMARK   10  A    between atoms: C_15  and  C_16
REMARK   11  A    between atoms: C_16  and  C_17
REMARK   12  A    between atoms: C_17  and  C_18
REMARK   13  A    between atoms: C_18  and  C_19
REMARK   14  A    between atoms: C_19  and  C_20
REMARK   15  A    between atoms: C_20  and  C_21
REMARK                            x       y       z     vdW  Elec       q    Type
REMARK                         _______ _______ _______ _____ _____    ______ ____
ROOT
ATOM      1  O   LIG A   1     -12.950   7.032 131.849  0.00  0.00    -0.251 OA
ATOM      2  C   LIG A   1     -11.842   6.579 131.442  0.00  0.00    +0.311 C 
ATOM      3  O   LIG A   1     -10.721   6.599 132.199  0.00  0.00    -0.461 OA
ATOM      4  C   LIG A   1     -11.631   5.899 130.127  0.00  0.00    +0.104 C 
ATOM      5  C   LIG A   1     -10.158   5.603 130.184  0.00  0.00    +0.059 C 
ATOM      6  C   LIG A   1      -9.684   6.602 131.229  0.00  0.00    +0.177 C 
ENDROOT
BRANCH   4   7
ATOM      7  C   LIG A   1     -12.109   6.670 128.886  0.00  0.00    +0.048 C 
BRANCH   7   8
ATOM      8  C   LIG A   1     -11.145   7.686 128.234  0.00  0.00    +0.141 C 
BRANCH   8   9
ATOM      9  O   LIG A   1     -11.676   9.002 128.488  0.00  0.00    -0.390 OA
ATOM     10  H   LIG A   1     -12.563   9.054 128.088  0.00  0.00    +0.210 HD
ENDBRANCH   8   9
BRANCH   8  11
ATOM     11  C   LIG A   1     -10.939   7.604 126.698  0.00  0.00    +0.187 C 
BRANCH  11  12
ATOM     12  O   LIG A   1     -11.809   6.774 125.985  0.00  0.00    -0.393 OA
ATOM     13  H   LIG A   1     -12.064   5.960 126.439  0.00  0.00    +0.209 HD
ENDBRANCH  11  12
ENDBRANCH   8  11
ENDBRANCH   7   8
ENDBRANCH   4   7
BRANCH   6  14
ATOM     14  C   LIG A   1      -8.314   6.232 131.711  0.00  0.00    +0.045 C 
BRANCH  14  15
ATOM     15  C   LIG A   1      -8.292   5.883 133.179  0.00  0.00    +0.003 C 
BRANCH  15  16
ATOM     16  C   LIG A   1      -8.000   4.453 133.627  0.00  0.00    +0.000 C 
BRANCH  16  17
ATOM     17  C   LIG A   1      -9.250   3.549 133.662  0.00  0.00    -0.000 C 
BRANCH  17  18
ATOM     18  C   LIG A   1      -9.642   2.471 132.631  0.00  0.00    -0.000 C 
BRANCH  18  19
ATOM     19  C   LIG A   1      -8.560   1.828 131.747  0.00  0.00    -0.000 C 
BRANCH  19  20
ATOM     20  C   LIG A   1      -8.350   2.242 130.287  0.00  0.00    -0.000 C 
BRANCH  20  21
ATOM     21  C   LIG A   1      -7.224   3.253 129.943  0.00  0.00    -0.000 C 
BRANCH  21  22
ATOM     22  C   LIG A   1      -5.970   3.081 130.798  0.00  0.00    -0.003 C 
ATOM     23  C   LIG A   1      -5.100   4.236 131.225  0.00  0.00    +0.004 C 
ENDBRANCH  21  22
ENDBRANCH  20  21
ENDBRANCH  19  20
ENDBRANCH  18  19
ENDBRANCH  17  18
ENDBRANCH  16  17
ENDBRANCH  15  16
ENDBRANCH  14  15
ENDBRANCH   6  14
TORSDOF 14
ENDMDL
MODEL 9
REMARK VINA RESULT:      -5.6     10.002     11.370
REMARK  Name = NuBBE_1793
REMARK  15 active torsions:
REMARK  status: ('A' for Active; 'I' for Inactive)
REMARK    1  A    between atoms: C_4  and  C_5
REMARK    2  A    between atoms: C_5  and  C_6
REMARK    3  A    between atoms: C_6  and  C_7
REMARK    4  A    between atoms: C_6  and  O_9
REMARK    5  A    between atoms: C_7  and  O_8
REMARK    6  A    between atoms: C_11  and  C_12
REMARK    7  A    between atoms: C_12  and  C_13
REMARK    8  A    between atoms: C_13  and  C_14
REMARK    9  A    between atoms: C_14  and  C_15
REMARK   10  A    between atoms: C_15  and  C_16
REMARK   11  A    between atoms: C_16  and  C_17
REMARK   12  A    between atoms: C_17  and  C_18
REMARK   13  A    between atoms: C_18  and  C_19
REMARK   14  A    between atoms: C_19  and  C_20
REMARK   15  A    between atoms: C_20  and  C_21
REMARK                            x       y       z     vdW  Elec       q    Type
REMARK                         _______ _______ _______ _____ _____    ______ ____
ROOT
ATOM      1  O   LIG A   1     -13.116   7.261 131.718  0.00  0.00    -0.251 OA
ATOM      2  C   LIG A   1     -11.993   6.800 131.364  0.00  0.00    +0.311 C 
ATOM      3  O   LIG A   1     -10.978   6.595 132.235  0.00  0.00    -0.461 OA
ATOM      4  C   LIG A   1     -11.655   6.352 129.979  0.00  0.00    +0.104 C 
ATOM      5  C   LIG A   1     -10.221   5.932 130.148  0.00  0.00    +0.059 C 
ATOM      6  C   LIG A   1      -9.828   6.688 131.409  0.00  0.00    +0.177 C 
ENDROOT
BRANCH   4   7
ATOM      7  C   LIG A   1     -11.924   7.367 128.857  0.00  0.00    +0.048 C 
BRANCH   7   8
ATOM      8  C   LIG A   1     -10.801   7.651 127.835  0.00  0.00    +0.141 C 
BRANCH   8   9
ATOM      9  O   LIG A   1     -10.469   9.050 127.942  0.00  0.00    -0.390 OA
ATOM     10  H   LIG A   1      -9.561   9.121 128.287  0.00  0.00    +0.210 HD
ENDBRANCH   8   9
BRANCH   8  11
ATOM     11  C   LIG A   1     -11.110   7.405 126.334  0.00  0.00    +0.187 C 
BRANCH  11  12
ATOM     12  O   LIG A   1     -12.237   6.633 126.037  0.00  0.00    -0.393 OA
ATOM     13  H   LIG A   1     -12.863   7.041 125.423  0.00  0.00    +0.209 HD
ENDBRANCH  11  12
ENDBRANCH   8  11
ENDBRANCH   7   8
ENDBRANCH   4   7
BRANCH   6  14
ATOM     14  C   LIG A   1      -8.554   6.128 131.968  0.00  0.00    +0.045 C 
BRANCH  14  15
ATOM     15  C   LIG A   1      -8.664   5.796 133.436  0.00  0.00    +0.003 C 
BRANCH  15  16
ATOM     16  C   LIG A   1      -8.116   4.476 133.970  0.00  0.00    +0.000 C 
BRANCH  16  17
ATOM     17  C   LIG A   1      -7.171   4.644 135.179  0.00  0.00    -0.000 C 
BRANCH  17  18
ATOM     18  C   LIG A   1      -6.770   5.966 135.864  0.00  0.00    -0.000 C 
BRANCH  18  19
ATOM     19  C   LIG A   1      -6.951   6.127 137.383  0.00  0.00    -0.000 C 
BRANCH  19  20
ATOM     20  C   LIG A   1      -8.161   6.847 137.987  0.00  0.00    -0.000 C 
BRANCH  20  21
ATOM     21  C   LIG A   1      -8.921   7.894 137.130  0.00  0.00    -0.000 C 
BRANCH  21  22
ATOM     22  C   LIG A   1      -8.897   9.300 137.726  0.00  0.00    -0.003 C 
ATOM     23  C   LIG A   1      -9.878   9.766 138.773  0.00  0.00    +0.004 C 
ENDBRANCH  21  22
ENDBRANCH  20  21
ENDBRANCH  19  20
ENDBRANCH  18  19
ENDBRANCH  17  18
ENDBRANCH  16  17
ENDBRANCH  15  16
ENDBRANCH  14  15
ENDBRANCH   6  14
TORSDOF 14
ENDMDL
