MODEL 1
REMARK VINA RESULT:      -7.4      0.000      0.000
REMARK  Name = NuBBE_568
REMARK  9 active torsions:
REMARK  status: ('A' for Active; 'I' for Inactive)
REMARK    1  A    between atoms: C_3  and  C_4
REMARK    2  A    between atoms: C_6  and  O_8
REMARK    3  A    between atoms: O_8  and  C_9
REMARK    4  A    between atoms: C_9  and  C_10
REMARK    5  A    between atoms: C_10  and  C_11
REMARK    6  A    between atoms: C_10  and  O_12
REMARK    7  A    between atoms: C_10  and  C_13
REMARK    8  A    between atoms: C_13  and  O_14
REMARK    9  A    between atoms: C_26  and  C_28
REMARK                            x       y       z     vdW  Elec       q    Type
REMARK                         _______ _______ _______ _____ _____    ______ ____
ROOT
ATOM      1  O   LIG A   1      -8.256   1.466 130.060  0.00  0.00    -0.288 OA
ATOM      2  C   LIG A   1      -7.831   0.530 129.401  0.00  0.00    +0.202 C 
ATOM      3  C   LIG A   1      -7.046   0.614 128.111  0.00  0.00    +0.172 C 
ATOM      4  C   LIG A   1      -5.827   1.511 128.249  0.00  0.00    +0.064 C 
ATOM      5  C   LIG A   1      -7.961   0.980 126.925  0.00  0.00    +0.101 C 
ATOM      6  C   LIG A   1      -7.691   0.205 125.607  0.00  0.00    +0.192 C 
ATOM      7  C   LIG A   1      -8.694  -0.942 125.316  0.00  0.00    +0.107 C 
ATOM      8  C   LIG A   1      -8.480  -1.783 124.092  0.00  0.00    +0.040 C 
ATOM      9  C   LIG A   1      -7.585  -1.709 123.097  0.00  0.00    +0.020 C 
ATOM     10  C   LIG A   1      -8.956  -2.088 126.295  0.00  0.00    +0.189 C 
ATOM     11  O   LIG A   1      -9.803  -2.972 125.518  0.00  0.00    -0.457 OA
ATOM     12  C   LIG A   1      -9.432  -2.907 124.208  0.00  0.00    +0.335 C 
ATOM     13  O   LIG A   1      -9.831  -3.636 123.310  0.00  0.00    -0.245 OA
ATOM     14  C   LIG A   1      -7.754  -2.943 126.776  0.00  0.00    +0.056 C 
ATOM     15  C   LIG A   1      -7.567  -2.938 128.316  0.00  0.00    +0.055 C 
ATOM     16  C   LIG A   1      -8.683  -3.737 128.997  0.00  0.00    +0.016 C 
ATOM     17  C   LIG A   1      -7.452  -1.508 128.764  0.00  0.00    +0.105 C 
ATOM     18  O   LIG A   1      -6.603  -0.744 127.969  0.00  0.00    -0.482 OA
ATOM     19  C   LIG A   1      -8.137  -0.864 129.707  0.00  0.00    +0.091 C 
ENDROOT
BRANCH   6  20
ATOM     20  O   LIG A   1      -7.949   1.170 124.536  0.00  0.00    -0.458 OA
BRANCH  20  21
ATOM     21  C   LIG A   1      -6.992   2.098 124.258  0.00  0.00    +0.342 C 
ATOM     22  O   LIG A   1      -5.862   2.089 124.730  0.00  0.00    -0.247 OA
BRANCH  21  23
ATOM     23  C   LIG A   1      -7.558   3.238 123.386  0.00  0.00    +0.182 C 
ATOM     24  C   LIG A   1      -8.713   2.686 122.546  0.00  0.00    +0.056 C 
BRANCH  23  25
ATOM     25  O   LIG A   1      -8.079   4.312 124.186  0.00  0.00    -0.376 OA
ATOM     26  H   LIG A   1      -7.357   4.959 124.297  0.00  0.00    +0.211 HD
ENDBRANCH  23  25
BRANCH  23  27
ATOM     27  C   LIG A   1      -6.469   3.818 122.473  0.00  0.00    +0.201 C 
BRANCH  27  28
ATOM     28  O   LIG A   1      -5.657   4.769 123.162  0.00  0.00    -0.392 OA
ATOM     29  H   LIG A   1      -5.143   4.259 123.819  0.00  0.00    +0.209 HD
ENDBRANCH  27  28
ENDBRANCH  23  27
ENDBRANCH  21  23
ENDBRANCH  20  21
ENDBRANCH   6  20
TORSDOF 6
ENDMDL
MODEL 2
REMARK VINA RESULT:      -7.2      2.055      3.727
REMARK  Name = NuBBE_568
REMARK  9 active torsions:
REMARK  status: ('A' for Active; 'I' for Inactive)
REMARK    1  A    between atoms: C_3  and  C_4
REMARK    2  A    between atoms: C_6  and  O_8
REMARK    3  A    between atoms: O_8  and  C_9
REMARK    4  A    between atoms: C_9  and  C_10
REMARK    5  A    between atoms: C_10  and  C_11
REMARK    6  A    between atoms: C_10  and  O_12
REMARK    7  A    between atoms: C_10  and  C_13
REMARK    8  A    between atoms: C_13  and  O_14
REMARK    9  A    between atoms: C_26  and  C_28
REMARK                            x       y       z     vdW  Elec       q    Type
REMARK                         _______ _______ _______ _____ _____    ______ ____
ROOT
ATOM      1  O   LIG A   1      -8.048  -2.908 128.582  0.00  0.00    -0.288 OA
ATOM      2  C   LIG A   1      -7.787  -2.713 127.406  0.00  0.00    +0.202 C 
ATOM      3  C   LIG A   1      -6.781  -1.727 126.853  0.00  0.00    +0.172 C 
ATOM      4  C   LIG A   1      -5.408  -1.911 127.478  0.00  0.00    +0.064 C 
ATOM      5  C   LIG A   1      -7.315  -0.282 126.932  0.00  0.00    +0.101 C 
ATOM      6  C   LIG A   1      -7.030   0.606 125.692  0.00  0.00    +0.192 C 
ATOM      7  C   LIG A   1      -8.242   0.793 124.741  0.00  0.00    +0.107 C 
ATOM      8  C   LIG A   1      -8.046   1.591 123.485  0.00  0.00    +0.040 C 
ATOM      9  C   LIG A   1      -6.995   2.275 123.010  0.00  0.00    +0.020 C 
ATOM     10  C   LIG A   1      -8.995  -0.379 124.110  0.00  0.00    +0.189 C 
ATOM     11  O   LIG A   1      -9.895   0.290 123.189  0.00  0.00    -0.457 OA
ATOM     12  C   LIG A   1      -9.280   1.401 122.695  0.00  0.00    +0.335 C 
ATOM     13  O   LIG A   1      -9.691   2.105 121.782  0.00  0.00    -0.245 OA
ATOM     14  C   LIG A   1      -8.196  -1.411 123.271  0.00  0.00    +0.056 C 
ATOM     15  C   LIG A   1      -8.309  -2.863 123.803  0.00  0.00    +0.055 C 
ATOM     16  C   LIG A   1      -9.713  -3.423 123.548  0.00  0.00    +0.016 C 
ATOM     17  C   LIG A   1      -7.883  -2.863 125.245  0.00  0.00    +0.105 C 
ATOM     18  O   LIG A   1      -6.720  -2.137 125.479  0.00  0.00    -0.482 OA
ATOM     19  C   LIG A   1      -8.525  -3.336 126.312  0.00  0.00    +0.091 C 
ENDROOT
BRANCH   6  20
ATOM     20  O   LIG A   1      -6.800   1.949 126.227  0.00  0.00    -0.458 OA
BRANCH  20  21
ATOM     21  C   LIG A   1      -5.520   2.409 126.286  0.00  0.00    +0.342 C 
ATOM     22  O   LIG A   1      -4.558   1.739 126.642  0.00  0.00    -0.247 OA
BRANCH  21  23
ATOM     23  C   LIG A   1      -5.458   3.922 125.984  0.00  0.00    +0.182 C 
ATOM     24  C   LIG A   1      -4.728   4.622 127.133  0.00  0.00    +0.056 C 
BRANCH  23  25
ATOM     25  O   LIG A   1      -4.728   4.194 124.777  0.00  0.00    -0.376 OA
ATOM     26  H   LIG A   1      -3.806   3.913 124.934  0.00  0.00    +0.211 HD
ENDBRANCH  23  25
BRANCH  23  27
ATOM     27  C   LIG A   1      -6.869   4.503 125.820  0.00  0.00    +0.201 C 
BRANCH  27  28
ATOM     28  O   LIG A   1      -6.857   5.707 125.052  0.00  0.00    -0.392 OA
ATOM     29  H   LIG A   1      -6.709   5.433 124.125  0.00  0.00    +0.209 HD
ENDBRANCH  27  28
ENDBRANCH  23  27
ENDBRANCH  21  23
ENDBRANCH  20  21
ENDBRANCH   6  20
TORSDOF 6
ENDMDL
MODEL 3
REMARK VINA RESULT:      -6.9      6.673     10.115
REMARK  Name = NuBBE_568
REMARK  9 active torsions:
REMARK  status: ('A' for Active; 'I' for Inactive)
REMARK    1  A    between atoms: C_3  and  C_4
REMARK    2  A    between atoms: C_6  and  O_8
REMARK    3  A    between atoms: O_8  and  C_9
REMARK    4  A    between atoms: C_9  and  C_10
REMARK    5  A    between atoms: C_10  and  C_11
REMARK    6  A    between atoms: C_10  and  O_12
REMARK    7  A    between atoms: C_10  and  C_13
REMARK    8  A    between atoms: C_13  and  O_14
REMARK    9  A    between atoms: C_26  and  C_28
REMARK                            x       y       z     vdW  Elec       q    Type
REMARK                         _______ _______ _______ _____ _____    ______ ____
ROOT
ATOM      1  O   LIG A   1      -3.917   6.618 127.902  0.00  0.00    -0.288 OA
ATOM      2  C   LIG A   1      -3.775   5.941 128.908  0.00  0.00    +0.202 C 
ATOM      3  C   LIG A   1      -4.831   5.099 129.589  0.00  0.00    +0.172 C 
ATOM      4  C   LIG A   1      -5.494   4.133 128.620  0.00  0.00    +0.064 C 
ATOM      5  C   LIG A   1      -5.826   5.979 130.372  0.00  0.00    +0.101 C 
ATOM      6  C   LIG A   1      -6.246   5.438 131.765  0.00  0.00    +0.192 C 
ATOM      7  C   LIG A   1      -5.539   6.126 132.964  0.00  0.00    +0.107 C 
ATOM      8  C   LIG A   1      -5.841   5.631 134.348  0.00  0.00    +0.040 C 
ATOM      9  C   LIG A   1      -6.694   4.703 134.804  0.00  0.00    +0.020 C 
ATOM     10  C   LIG A   1      -4.018   6.192 133.108  0.00  0.00    +0.189 C 
ATOM     11  O   LIG A   1      -3.857   6.751 134.437  0.00  0.00    -0.457 OA
ATOM     12  C   LIG A   1      -4.869   6.305 135.234  0.00  0.00    +0.335 C 
ATOM     13  O   LIG A   1      -4.952   6.456 136.445  0.00  0.00    -0.245 OA
ATOM     14  C   LIG A   1      -3.212   4.867 133.090  0.00  0.00    +0.056 C 
ATOM     15  C   LIG A   1      -2.147   4.804 131.963  0.00  0.00    +0.055 C 
ATOM     16  C   LIG A   1      -0.986   5.757 132.266  0.00  0.00    +0.016 C 
ATOM     17  C   LIG A   1      -2.843   5.056 130.654  0.00  0.00    +0.105 C 
ATOM     18  O   LIG A   1      -4.031   4.347 130.513  0.00  0.00    -0.482 OA
ATOM     19  C   LIG A   1      -2.551   5.941 129.703  0.00  0.00    +0.091 C 
ENDROOT
BRANCH   6  20
ATOM     20  O   LIG A   1      -7.649   5.828 131.921  0.00  0.00    -0.458 OA
BRANCH  20  21
ATOM     21  C   LIG A   1      -8.607   5.000 131.421  0.00  0.00    +0.342 C 
ATOM     22  O   LIG A   1      -8.488   3.785 131.319  0.00  0.00    -0.247 OA
BRANCH  21  23
ATOM     23  C   LIG A   1      -9.804   5.804 130.869  0.00  0.00    +0.182 C 
ATOM     24  C   LIG A   1      -9.284   7.120 130.287  0.00  0.00    +0.056 C 
BRANCH  23  25
ATOM     25  O   LIG A   1     -10.477   5.099 129.814  0.00  0.00    -0.376 OA
ATOM     26  H   LIG A   1     -11.172   4.556 130.234  0.00  0.00    +0.211 HD
ENDBRANCH  23  25
BRANCH  23  27
ATOM     27  C   LIG A   1     -10.830   6.083 131.977  0.00  0.00    +0.201 C 
BRANCH  27  28
ATOM     28  O   LIG A   1     -10.196   6.466 133.197  0.00  0.00    -0.392 OA
ATOM     29  H   LIG A   1     -10.701   6.030 133.912  0.00  0.00    +0.209 HD
ENDBRANCH  27  28
ENDBRANCH  23  27
ENDBRANCH  21  23
ENDBRANCH  20  21
ENDBRANCH   6  20
TORSDOF 6
ENDMDL
MODEL 4
REMARK VINA RESULT:      -6.8      4.236      6.977
REMARK  Name = NuBBE_568
REMARK  9 active torsions:
REMARK  status: ('A' for Active; 'I' for Inactive)
REMARK    1  A    between atoms: C_3  and  C_4
REMARK    2  A    between atoms: C_6  and  O_8
REMARK    3  A    between atoms: O_8  and  C_9
REMARK    4  A    between atoms: C_9  and  C_10
REMARK    5  A    between atoms: C_10  and  C_11
REMARK    6  A    between atoms: C_10  and  O_12
REMARK    7  A    between atoms: C_10  and  C_13
REMARK    8  A    between atoms: C_13  and  O_14
REMARK    9  A    between atoms: C_26  and  C_28
REMARK                            x       y       z     vdW  Elec       q    Type
REMARK                         _______ _______ _______ _____ _____    ______ ____
ROOT
ATOM      1  O   LIG A   1      -4.080   4.505 132.046  0.00  0.00    -0.288 OA
ATOM      2  C   LIG A   1      -4.135   4.778 130.857  0.00  0.00    +0.202 C 
ATOM      3  C   LIG A   1      -5.286   5.441 130.133  0.00  0.00    +0.172 C 
ATOM      4  C   LIG A   1      -5.699   6.743 130.799  0.00  0.00    +0.064 C 
ATOM      5  C   LIG A   1      -6.450   4.453 129.916  0.00  0.00    +0.101 C 
ATOM      6  C   LIG A   1      -7.140   4.524 128.528  0.00  0.00    +0.192 C 
ATOM      7  C   LIG A   1      -6.726   3.399 127.543  0.00  0.00    +0.107 C 
ATOM      8  C   LIG A   1      -7.300   3.418 126.157  0.00  0.00    +0.040 C 
ATOM      9  C   LIG A   1      -8.202   4.217 125.569  0.00  0.00    +0.020 C 
ATOM     10  C   LIG A   1      -5.273   3.131 127.148  0.00  0.00    +0.189 C 
ATOM     11  O   LIG A   1      -5.415   2.137 126.101  0.00  0.00    -0.457 OA
ATOM     12  C   LIG A   1      -6.559   2.385 125.404  0.00  0.00    +0.335 C 
ATOM     13  O   LIG A   1      -6.902   1.838 124.365  0.00  0.00    -0.245 OA
ATOM     14  C   LIG A   1      -4.441   4.291 126.541  0.00  0.00    +0.056 C 
ATOM     15  C   LIG A   1      -3.161   4.625 127.350  0.00  0.00    +0.055 C 
ATOM     16  C   LIG A   1      -2.119   3.512 127.193  0.00  0.00    +0.016 C 
ATOM     17  C   LIG A   1      -3.569   4.911 128.768  0.00  0.00    +0.105 C 
ATOM     18  O   LIG A   1      -4.678   5.744 128.869  0.00  0.00    -0.482 OA
ATOM     19  C   LIG A   1      -3.109   4.379 129.899  0.00  0.00    +0.091 C 
ENDROOT
BRANCH   6  20
ATOM     20  O   LIG A   1      -8.555   4.252 128.789  0.00  0.00    -0.458 OA
BRANCH  20  21
ATOM     21  C   LIG A   1      -9.345   5.282 129.201  0.00  0.00    +0.342 C 
ATOM     22  O   LIG A   1      -9.354   6.395 128.691  0.00  0.00    -0.247 OA
BRANCH  21  23
ATOM     23  C   LIG A   1     -10.122   4.909 130.482  0.00  0.00    +0.182 C 
ATOM     24  C   LIG A   1     -10.351   3.395 130.493  0.00  0.00    +0.056 C 
BRANCH  23  25
ATOM     25  O   LIG A   1      -9.385   5.244 131.668  0.00  0.00    -0.376 OA
ATOM     26  H   LIG A   1      -9.797   4.754 132.406  0.00  0.00    +0.211 HD
ENDBRANCH  23  25
BRANCH  23  27
ATOM     27  C   LIG A   1     -11.466   5.648 130.539  0.00  0.00    +0.201 C 
BRANCH  27  28
ATOM     28  O   LIG A   1     -12.138   5.617 129.280  0.00  0.00    -0.392 OA
ATOM     29  H   LIG A   1     -12.280   6.550 129.026  0.00  0.00    +0.209 HD
ENDBRANCH  27  28
ENDBRANCH  23  27
ENDBRANCH  21  23
ENDBRANCH  20  21
ENDBRANCH   6  20
TORSDOF 6
ENDMDL
MODEL 5
REMARK VINA RESULT:      -6.8      6.644      8.228
REMARK  Name = NuBBE_568
REMARK  9 active torsions:
REMARK  status: ('A' for Active; 'I' for Inactive)
REMARK    1  A    between atoms: C_3  and  C_4
REMARK    2  A    between atoms: C_6  and  O_8
REMARK    3  A    between atoms: O_8  and  C_9
REMARK    4  A    between atoms: C_9  and  C_10
REMARK    5  A    between atoms: C_10  and  C_11
REMARK    6  A    between atoms: C_10  and  O_12
REMARK    7  A    between atoms: C_10  and  C_13
REMARK    8  A    between atoms: C_13  and  O_14
REMARK    9  A    between atoms: C_26  and  C_28
REMARK                            x       y       z     vdW  Elec       q    Type
REMARK                         _______ _______ _______ _____ _____    ______ ____
ROOT
ATOM      1  O   LIG A   1      -4.153   6.845 133.600  0.00  0.00    -0.288 OA
ATOM      2  C   LIG A   1      -4.493   5.956 132.837  0.00  0.00    +0.202 C 
ATOM      3  C   LIG A   1      -5.511   6.059 131.722  0.00  0.00    +0.172 C 
ATOM      4  C   LIG A   1      -5.202   7.213 130.782  0.00  0.00    +0.064 C 
ATOM      5  C   LIG A   1      -6.948   6.074 132.279  0.00  0.00    +0.101 C 
ATOM      6  C   LIG A   1      -7.982   5.230 131.487  0.00  0.00    +0.192 C 
ATOM      7  C   LIG A   1      -8.332   3.864 132.135  0.00  0.00    +0.107 C 
ATOM      8  C   LIG A   1      -9.281   2.955 131.412  0.00  0.00    +0.040 C 
ATOM      9  C   LIG A   1      -9.987   3.107 130.283  0.00  0.00    +0.020 C 
ATOM     10  C   LIG A   1      -7.277   2.811 132.477  0.00  0.00    +0.189 C 
ATOM     11  O   LIG A   1      -8.089   1.677 132.877  0.00  0.00    -0.457 OA
ATOM     12  C   LIG A   1      -9.236   1.669 132.140  0.00  0.00    +0.335 C 
ATOM     13  O   LIG A   1     -10.066   0.772 132.110  0.00  0.00    -0.245 OA
ATOM     14  C   LIG A   1      -6.340   2.303 131.350  0.00  0.00    +0.056 C 
ATOM     15  C   LIG A   1      -4.834   2.529 131.647  0.00  0.00    +0.055 C 
ATOM     16  C   LIG A   1      -4.358   1.589 132.760  0.00  0.00    +0.016 C 
ATOM     17  C   LIG A   1      -4.631   3.991 131.928  0.00  0.00    +0.105 C 
ATOM     18  O   LIG A   1      -5.283   4.825 131.025  0.00  0.00    -0.482 OA
ATOM     19  C   LIG A   1      -4.043   4.574 132.972  0.00  0.00    +0.091 C 
ENDROOT
BRANCH   6  20
ATOM     20  O   LIG A   1      -9.236   5.983 131.570  0.00  0.00    -0.458 OA
BRANCH  20  21
ATOM     21  C   LIG A   1      -9.571   6.795 130.530  0.00  0.00    +0.342 C 
ATOM     22  O   LIG A   1      -8.791   7.546 129.958  0.00  0.00    -0.247 OA
BRANCH  21  23
ATOM     23  C   LIG A   1     -11.090   6.752 130.258  0.00  0.00    +0.182 C 
ATOM     24  C   LIG A   1     -11.521   8.096 129.667  0.00  0.00    +0.056 C 
BRANCH  23  25
ATOM     25  O   LIG A   1     -11.432   5.731 129.307  0.00  0.00    -0.376 OA
ATOM     26  H   LIG A   1     -11.222   4.873 129.725  0.00  0.00    +0.211 HD
ENDBRANCH  23  25
BRANCH  23  27
ATOM     27  C   LIG A   1     -11.868   6.469 131.551  0.00  0.00    +0.201 C 
BRANCH  27  28
ATOM     28  O   LIG A   1     -13.122   7.151 131.571  0.00  0.00    -0.392 OA
ATOM     29  H   LIG A   1     -13.321   7.320 132.513  0.00  0.00    +0.209 HD
ENDBRANCH  27  28
ENDBRANCH  23  27
ENDBRANCH  21  23
ENDBRANCH  20  21
ENDBRANCH   6  20
TORSDOF 6
ENDMDL
MODEL 6
REMARK VINA RESULT:      -6.7      2.014      5.652
REMARK  Name = NuBBE_568
REMARK  9 active torsions:
REMARK  status: ('A' for Active; 'I' for Inactive)
REMARK    1  A    between atoms: C_3  and  C_4
REMARK    2  A    between atoms: C_6  and  O_8
REMARK    3  A    between atoms: O_8  and  C_9
REMARK    4  A    between atoms: C_9  and  C_10
REMARK    5  A    between atoms: C_10  and  C_11
REMARK    6  A    between atoms: C_10  and  O_12
REMARK    7  A    between atoms: C_10  and  C_13
REMARK    8  A    between atoms: C_13  and  O_14
REMARK    9  A    between atoms: C_26  and  C_28
REMARK                            x       y       z     vdW  Elec       q    Type
REMARK                         _______ _______ _______ _____ _____    ______ ____
ROOT
ATOM      1  O   LIG A   1      -4.186   2.473 126.208  0.00  0.00    -0.288 OA
ATOM      2  C   LIG A   1      -5.373   2.201 126.123  0.00  0.00    +0.202 C 
ATOM      3  C   LIG A   1      -6.161   1.289 127.038  0.00  0.00    +0.172 C 
ATOM      4  C   LIG A   1      -6.007   1.684 128.497  0.00  0.00    +0.064 C 
ATOM      5  C   LIG A   1      -5.843  -0.193 126.755  0.00  0.00    +0.101 C 
ATOM      6  C   LIG A   1      -7.062  -1.154 126.768  0.00  0.00    +0.192 C 
ATOM      7  C   LIG A   1      -7.575  -1.564 125.362  0.00  0.00    +0.107 C 
ATOM      8  C   LIG A   1      -8.784  -2.447 125.274  0.00  0.00    +0.040 C 
ATOM      9  C   LIG A   1      -9.528  -3.048 126.214  0.00  0.00    +0.020 C 
ATOM     10  C   LIG A   1      -7.998  -0.548 124.301  0.00  0.00    +0.189 C 
ATOM     11  O   LIG A   1      -8.555  -1.396 123.264  0.00  0.00    -0.457 OA
ATOM     12  C   LIG A   1      -9.158  -2.471 123.845  0.00  0.00    +0.335 C 
ATOM     13  O   LIG A   1      -9.858  -3.299 123.276  0.00  0.00    -0.245 OA
ATOM     14  C   LIG A   1      -9.098   0.486 124.658  0.00  0.00    +0.056 C 
ATOM     15  C   LIG A   1      -8.634   1.959 124.516  0.00  0.00    +0.055 C 
ATOM     16  C   LIG A   1      -8.466   2.330 123.039  0.00  0.00    +0.016 C 
ATOM     17  C   LIG A   1      -7.401   2.140 125.356  0.00  0.00    +0.105 C 
ATOM     18  O   LIG A   1      -7.504   1.575 126.623  0.00  0.00    -0.482 OA
ATOM     19  C   LIG A   1      -6.213   2.633 125.010  0.00  0.00    +0.091 C 
ENDROOT
BRANCH   6  20
ATOM     20  O   LIG A   1      -6.556  -2.408 127.331  0.00  0.00    -0.458 OA
BRANCH  20  21
ATOM     21  C   LIG A   1      -6.748  -2.643 128.658  0.00  0.00    +0.342 C 
ATOM     22  O   LIG A   1      -7.829  -2.557 129.227  0.00  0.00    -0.247 OA
BRANCH  21  23
ATOM     23  C   LIG A   1      -5.406  -2.891 129.379  0.00  0.00    +0.182 C 
ATOM     24  C   LIG A   1      -5.558  -4.109 130.293  0.00  0.00    +0.056 C 
BRANCH  23  25
ATOM     25  O   LIG A   1      -4.347  -3.176 128.450  0.00  0.00    -0.376 OA
ATOM     26  H   LIG A   1      -3.614  -3.565 128.966  0.00  0.00    +0.211 HD
ENDBRANCH  23  25
BRANCH  23  27
ATOM     27  C   LIG A   1      -4.992  -1.661 130.199  0.00  0.00    +0.201 C 
BRANCH  27  28
ATOM     28  O   LIG A   1      -3.893  -0.974 129.600  0.00  0.00    -0.392 OA
ATOM     29  H   LIG A   1      -3.115  -1.172 130.158  0.00  0.00    +0.209 HD
ENDBRANCH  27  28
ENDBRANCH  23  27
ENDBRANCH  21  23
ENDBRANCH  20  21
ENDBRANCH   6  20
TORSDOF 6
ENDMDL
MODEL 7
REMARK VINA RESULT:      -6.6      3.552      6.395
REMARK  Name = NuBBE_568
REMARK  9 active torsions:
REMARK  status: ('A' for Active; 'I' for Inactive)
REMARK    1  A    between atoms: C_3  and  C_4
REMARK    2  A    between atoms: C_6  and  O_8
REMARK    3  A    between atoms: O_8  and  C_9
REMARK    4  A    between atoms: C_9  and  C_10
REMARK    5  A    between atoms: C_10  and  C_11
REMARK    6  A    between atoms: C_10  and  O_12
REMARK    7  A    between atoms: C_10  and  C_13
REMARK    8  A    between atoms: C_13  and  O_14
REMARK    9  A    between atoms: C_26  and  C_28
REMARK                            x       y       z     vdW  Elec       q    Type
REMARK                         _______ _______ _______ _____ _____    ______ ____
ROOT
ATOM      1  O   LIG A   1      -2.074   6.592 128.079  0.00  0.00    -0.288 OA
ATOM      2  C   LIG A   1      -2.628   5.649 128.621  0.00  0.00    +0.202 C 
ATOM      3  C   LIG A   1      -3.316   4.489 127.936  0.00  0.00    +0.172 C 
ATOM      4  C   LIG A   1      -2.408   3.812 126.923  0.00  0.00    +0.064 C 
ATOM      5  C   LIG A   1      -4.684   4.911 127.365  0.00  0.00    +0.101 C 
ATOM      6  C   LIG A   1      -5.835   3.888 127.557  0.00  0.00    +0.192 C 
ATOM      7  C   LIG A   1      -6.823   4.235 128.704  0.00  0.00    +0.107 C 
ATOM      8  C   LIG A   1      -7.936   3.274 129.001  0.00  0.00    +0.040 C 
ATOM      9  C   LIG A   1      -8.323   2.137 128.407  0.00  0.00    +0.020 C 
ATOM     10  C   LIG A   1      -6.374   4.465 130.147  0.00  0.00    +0.189 C 
ATOM     11  O   LIG A   1      -7.638   4.573 130.851  0.00  0.00    -0.457 OA
ATOM     12  C   LIG A   1      -8.549   3.750 130.258  0.00  0.00    +0.335 C 
ATOM     13  O   LIG A   1      -9.662   3.480 130.688  0.00  0.00    -0.245 OA
ATOM     14  C   LIG A   1      -5.568   3.349 130.863  0.00  0.00    +0.056 C 
ATOM     15  C   LIG A   1      -4.174   3.813 131.361  0.00  0.00    +0.055 C 
ATOM     16  C   LIG A   1      -4.319   4.767 132.552  0.00  0.00    +0.016 C 
ATOM     17  C   LIG A   1      -3.427   4.380 130.187  0.00  0.00    +0.105 C 
ATOM     18  O   LIG A   1      -3.517   3.596 129.042  0.00  0.00    -0.482 OA
ATOM     19  C   LIG A   1      -2.824   5.562 130.064  0.00  0.00    +0.091 C 
ENDROOT
BRANCH   6  20
ATOM     20  O   LIG A   1      -6.655   4.001 126.349  0.00  0.00    -0.458 OA
BRANCH  20  21
ATOM     21  C   LIG A   1      -6.633   2.974 125.456  0.00  0.00    +0.342 C 
ATOM     22  O   LIG A   1      -5.684   2.215 125.296  0.00  0.00    -0.247 OA
BRANCH  21  23
ATOM     23  C   LIG A   1      -7.899   2.977 124.573  0.00  0.00    +0.182 C 
ATOM     24  C   LIG A   1      -8.469   1.557 124.528  0.00  0.00    +0.056 C 
BRANCH  23  25
ATOM     25  O   LIG A   1      -8.918   3.836 125.107  0.00  0.00    -0.376 OA
ATOM     26  H   LIG A   1      -9.550   4.012 124.383  0.00  0.00    +0.211 HD
ENDBRANCH  23  25
BRANCH  23  27
ATOM     27  C   LIG A   1      -7.572   3.461 123.154  0.00  0.00    +0.201 C 
BRANCH  27  28
ATOM     28  O   LIG A   1      -6.442   4.334 123.142  0.00  0.00    -0.392 OA
ATOM     29  H   LIG A   1      -6.803   5.241 123.092  0.00  0.00    +0.209 HD
ENDBRANCH  27  28
ENDBRANCH  23  27
ENDBRANCH  21  23
ENDBRANCH  20  21
ENDBRANCH   6  20
TORSDOF 6
ENDMDL
MODEL 8
REMARK VINA RESULT:      -6.6      4.965      8.118
REMARK  Name = NuBBE_568
REMARK  9 active torsions:
REMARK  status: ('A' for Active; 'I' for Inactive)
REMARK    1  A    between atoms: C_3  and  C_4
REMARK    2  A    between atoms: C_6  and  O_8
REMARK    3  A    between atoms: O_8  and  C_9
REMARK    4  A    between atoms: C_9  and  C_10
REMARK    5  A    between atoms: C_10  and  C_11
REMARK    6  A    between atoms: C_10  and  O_12
REMARK    7  A    between atoms: C_10  and  C_13
REMARK    8  A    between atoms: C_13  and  O_14
REMARK    9  A    between atoms: C_26  and  C_28
REMARK                            x       y       z     vdW  Elec       q    Type
REMARK                         _______ _______ _______ _____ _____    ______ ____
ROOT
ATOM      1  O   LIG A   1      -2.008   6.870 131.000  0.00  0.00    -0.288 OA
ATOM      2  C   LIG A   1      -2.715   6.504 130.074  0.00  0.00    +0.202 C 
ATOM      3  C   LIG A   1      -4.192   6.780 129.898  0.00  0.00    +0.172 C 
ATOM      4  C   LIG A   1      -4.504   8.264 129.996  0.00  0.00    +0.064 C 
ATOM      5  C   LIG A   1      -5.039   5.899 130.838  0.00  0.00    +0.101 C 
ATOM      6  C   LIG A   1      -6.328   5.300 130.214  0.00  0.00    +0.192 C 
ATOM      7  C   LIG A   1      -6.215   3.806 129.811  0.00  0.00    +0.107 C 
ATOM      8  C   LIG A   1      -7.394   3.156 129.148  0.00  0.00    +0.040 C 
ATOM      9  C   LIG A   1      -8.626   3.602 128.869  0.00  0.00    +0.020 C 
ATOM     10  C   LIG A   1      -5.141   3.278 128.859  0.00  0.00    +0.189 C 
ATOM     11  O   LIG A   1      -5.553   1.902 128.658  0.00  0.00    -0.457 OA
ATOM     12  C   LIG A   1      -6.914   1.836 128.686  0.00  0.00    +0.335 C 
ATOM     13  O   LIG A   1      -7.594   0.861 128.398  0.00  0.00    -0.245 OA
ATOM     14  C   LIG A   1      -5.024   3.911 127.447  0.00  0.00    +0.056 C 
ATOM     15  C   LIG A   1      -3.629   4.524 127.156  0.00  0.00    +0.055 C 
ATOM     16  C   LIG A   1      -2.581   3.420 126.982  0.00  0.00    +0.016 C 
ATOM     17  C   LIG A   1      -3.324   5.517 128.242  0.00  0.00    +0.105 C 
ATOM     18  O   LIG A   1      -4.391   6.357 128.541  0.00  0.00    -0.482 OA
ATOM     19  C   LIG A   1      -2.248   5.606 129.022  0.00  0.00    +0.091 C 
ENDROOT
BRANCH   6  20
ATOM     20  O   LIG A   1      -7.312   5.293 131.299  0.00  0.00    -0.458 OA
BRANCH  20  21
ATOM     21  C   LIG A   1      -8.353   6.168 131.231  0.00  0.00    +0.342 C 
ATOM     22  O   LIG A   1      -8.304   7.261 130.681  0.00  0.00    -0.247 OA
BRANCH  21  23
ATOM     23  C   LIG A   1      -9.556   5.665 132.056  0.00  0.00    +0.182 C 
ATOM     24  C   LIG A   1      -9.272   4.232 132.515  0.00  0.00    +0.056 C 
BRANCH  23  25
ATOM     25  O   LIG A   1      -9.765   6.462 133.233  0.00  0.00    -0.376 OA
ATOM     26  H   LIG A   1     -10.542   7.028 133.058  0.00  0.00    +0.211 HD
ENDBRANCH  23  25
BRANCH  23  27
ATOM     27  C   LIG A   1     -10.845   5.709 131.224  0.00  0.00    +0.201 C 
BRANCH  27  28
ATOM     28  O   LIG A   1     -11.142   7.035 130.783  0.00  0.00    -0.392 OA
ATOM     29  H   LIG A   1     -10.682   7.143 129.928  0.00  0.00    +0.209 HD
ENDBRANCH  27  28
ENDBRANCH  23  27
ENDBRANCH  21  23
ENDBRANCH  20  21
ENDBRANCH   6  20
TORSDOF 6
ENDMDL
MODEL 9
REMARK VINA RESULT:      -6.6      2.477      4.343
REMARK  Name = NuBBE_568
REMARK  9 active torsions:
REMARK  status: ('A' for Active; 'I' for Inactive)
REMARK    1  A    between atoms: C_3  and  C_4
REMARK    2  A    between atoms: C_6  and  O_8
REMARK    3  A    between atoms: O_8  and  C_9
REMARK    4  A    between atoms: C_9  and  C_10
REMARK    5  A    between atoms: C_10  and  C_11
REMARK    6  A    between atoms: C_10  and  O_12
REMARK    7  A    between atoms: C_10  and  C_13
REMARK    8  A    between atoms: C_13  and  O_14
REMARK    9  A    between atoms: C_26  and  C_28
REMARK                            x       y       z     vdW  Elec       q    Type
REMARK                         _______ _______ _______ _____ _____    ______ ____
ROOT
ATOM      1  O   LIG A   1      -7.457  -2.037 130.371  0.00  0.00    -0.288 OA
ATOM      2  C   LIG A   1      -7.147  -1.689 129.243  0.00  0.00    +0.202 C 
ATOM      3  C   LIG A   1      -6.778  -0.292 128.795  0.00  0.00    +0.172 C 
ATOM      4  C   LIG A   1      -5.668   0.299 129.648  0.00  0.00    +0.064 C 
ATOM      5  C   LIG A   1      -8.027   0.606 128.684  0.00  0.00    +0.101 C 
ATOM      6  C   LIG A   1      -8.070   1.544 127.448  0.00  0.00    +0.192 C 
ATOM      7  C   LIG A   1      -8.993   1.056 126.300  0.00  0.00    +0.107 C 
ATOM      8  C   LIG A   1      -9.055   1.870 125.042  0.00  0.00    +0.040 C 
ATOM      9  C   LIG A   1      -8.496   3.039 124.699  0.00  0.00    +0.020 C 
ATOM     10  C   LIG A   1      -8.845  -0.315 125.638  0.00  0.00    +0.189 C 
ATOM     11  O   LIG A   1      -9.786  -0.230 124.537  0.00  0.00    -0.457 OA
ATOM     12  C   LIG A   1      -9.815   1.051 124.074  0.00  0.00    +0.335 C 
ATOM     13  O   LIG A   1     -10.380   1.438 123.059  0.00  0.00    -0.245 OA
ATOM     14  C   LIG A   1      -7.477  -0.696 125.016  0.00  0.00    +0.056 C 
ATOM     15  C   LIG A   1      -6.856  -1.982 125.623  0.00  0.00    +0.055 C 
ATOM     16  C   LIG A   1      -7.644  -3.220 125.180  0.00  0.00    +0.016 C 
ATOM     17  C   LIG A   1      -6.762  -1.794 127.111  0.00  0.00    +0.105 C 
ATOM     18  O   LIG A   1      -6.260  -0.551 127.482  0.00  0.00    -0.482 OA
ATOM     19  C   LIG A   1      -7.210  -2.580 128.088  0.00  0.00    +0.091 C 
ENDROOT
BRANCH   6  20
ATOM     20  O   LIG A   1      -8.721   2.768 127.919  0.00  0.00    -0.458 OA
BRANCH  20  21
ATOM     21  C   LIG A   1      -7.940   3.753 128.444  0.00  0.00    +0.342 C 
ATOM     22  O   LIG A   1      -6.751   3.903 128.191  0.00  0.00    -0.247 OA
BRANCH  21  23
ATOM     23  C   LIG A   1      -8.710   4.567 129.505  0.00  0.00    +0.182 C 
ATOM     24  C   LIG A   1      -7.703   5.362 130.339  0.00  0.00    +0.056 C 
BRANCH  23  25
ATOM     25  O   LIG A   1      -9.613   5.508 128.903  0.00  0.00    -0.376 OA
ATOM     26  H   LIG A   1      -9.294   5.664 127.993  0.00  0.00    +0.211 HD
ENDBRANCH  23  25
BRANCH  23  27
ATOM     27  C   LIG A   1      -9.534   3.640 130.411  0.00  0.00    +0.201 C 
BRANCH  27  28
ATOM     28  O   LIG A   1     -10.892   3.552 129.978  0.00  0.00    -0.392 OA
ATOM     29  H   LIG A   1     -10.928   2.801 129.354  0.00  0.00    +0.209 HD
ENDBRANCH  27  28
ENDBRANCH  23  27
ENDBRANCH  21  23
ENDBRANCH  20  21
ENDBRANCH   6  20
TORSDOF 6
ENDMDL
