MODEL 1
REMARK VINA RESULT:      -8.5      0.000      0.000
REMARK  Name = NuBBE_8
REMARK  12 active torsions:
REMARK  status: ('A' for Active; 'I' for Inactive)
REMARK    1  A    between atoms: C_4  and  O_38
REMARK    2  A    between atoms: C_6  and  O_37
REMARK    3  A    between atoms: C_10  and  C_11
REMARK    4  A    between atoms: C_13  and  O_14
REMARK    5  A    between atoms: C_15  and  O_18
REMARK    6  A    between atoms: C_19  and  O_20
REMARK    7  A    between atoms: O_20  and  C_21
REMARK    8  A    between atoms: C_24  and  C_32
REMARK    9  A    between atoms: C_26  and  O_31
REMARK   10  A    between atoms: C_28  and  O_30
REMARK   11  A    between atoms: C_32  and  O_33
REMARK   12  A    between atoms: C_34  and  O_36
REMARK                            x       y       z     vdW  Elec       q    Type
REMARK                         _______ _______ _______ _____ _____    ______ ____
ROOT
ATOM      1  O   LIG A   1      -8.440   2.162 126.187  0.00  0.00    -0.283 OA
ATOM      2  C   LIG A   1      -7.828   1.896 125.163  0.00  0.00    +0.238 A 
ATOM      3  C   LIG A   1      -7.564   0.492 124.863  0.00  0.00    +0.109 A 
ATOM      4  C   LIG A   1      -7.765  -0.505 125.826  0.00  0.00    +0.135 A 
ATOM      5  C   LIG A   1      -7.451  -1.828 125.538  0.00  0.00    +0.091 A 
ATOM      6  C   LIG A   1      -6.956  -2.139 124.275  0.00  0.00    +0.124 A 
ATOM      7  C   LIG A   1      -6.763  -1.150 123.309  0.00  0.00    +0.092 A 
ATOM      8  C   LIG A   1      -7.061   0.177 123.612  0.00  0.00    +0.146 A 
ATOM      9  O   LIG A   1      -6.853   1.132 122.652  0.00  0.00    -0.451 OA
ATOM     10  C   LIG A   1      -6.849   2.480 123.025  0.00  0.00    +0.181 A 
ATOM     11  C   LIG A   1      -7.246   2.921 124.241  0.00  0.00    +0.214 A 
ENDROOT
BRANCH  10  12
ATOM     12  C   LIG A   1      -6.365   3.366 121.925  0.00  0.00    +0.025 A 
ATOM     13  C   LIG A   1      -5.260   4.224 122.084  0.00  0.00    +0.060 A 
ATOM     14  C   LIG A   1      -4.906   5.115 121.072  0.00  0.00    +0.159 A 
ATOM     15  C   LIG A   1      -5.641   5.173 119.894  0.00  0.00    +0.158 A 
ATOM     16  C   LIG A   1      -6.727   4.339 119.702  0.00  0.00    +0.050 A 
ATOM     17  C   LIG A   1      -7.087   3.441 120.715  0.00  0.00    +0.015 A 
BRANCH  14  18
ATOM     18  O   LIG A   1      -3.851   5.977 121.203  0.00  0.00    -0.503 OA
ATOM     19  H   LIG A   1      -3.029   5.461 121.157  0.00  0.00    +0.292 HD
ENDBRANCH  14  18
BRANCH  15  20
ATOM     20  O   LIG A   1      -5.306   6.070 118.922  0.00  0.00    -0.503 OA
ATOM     21  H   LIG A   1      -6.093   6.112 118.342  0.00  0.00    +0.292 HD
ENDBRANCH  15  20
ENDBRANCH  10  12
BRANCH   6  22
ATOM     22  O   LIG A   1      -6.644  -3.425 123.945  0.00  0.00    -0.506 OA
ATOM     23  H   LIG A   1      -6.918  -4.012 124.670  0.00  0.00    +0.292 HD
ENDBRANCH   6  22
BRANCH   4  24
ATOM     24  O   LIG A   1      -8.252  -0.246 127.079  0.00  0.00    -0.506 OA
ATOM     25  H   LIG A   1      -8.174   0.720 127.242  0.00  0.00    +0.292 HD
ENDBRANCH   4  24
BRANCH  11  26
ATOM     26  O   LIG A   1      -7.100   4.247 124.638  0.00  0.00    -0.453 OA
BRANCH  26  27
ATOM     27  C   LIG A   1      -6.037   4.556 125.557  0.00  0.00    +0.340 C 
ATOM     28  O   LIG A   1      -4.892   3.744 125.219  0.00  0.00    -0.331 OA
ATOM     29  C   LIG A   1      -3.736   3.941 126.073  0.00  0.00    +0.179 C 
ATOM     30  C   LIG A   1      -3.953   4.946 127.218  0.00  0.00    +0.177 C 
ATOM     31  C   LIG A   1      -5.267   4.702 127.966  0.00  0.00    +0.180 C 
ATOM     32  C   LIG A   1      -6.404   4.249 127.035  0.00  0.00    +0.214 C 
BRANCH  31  33
ATOM     33  O   LIG A   1      -5.052   3.732 129.004  0.00  0.00    -0.386 OA
ATOM     34  H   LIG A   1      -4.385   4.112 129.609  0.00  0.00    +0.210 HD
ENDBRANCH  31  33
BRANCH  30  35
ATOM     35  O   LIG A   1      -2.864   4.985 128.136  0.00  0.00    -0.387 OA
ATOM     36  H   LIG A   1      -2.323   5.763 127.881  0.00  0.00    +0.210 HD
ENDBRANCH  30  35
BRANCH  32  37
ATOM     37  O   LIG A   1      -7.628   4.827 127.512  0.00  0.00    -0.383 OA
ATOM     38  H   LIG A   1      -7.983   4.266 128.226  0.00  0.00    +0.210 HD
ENDBRANCH  32  37
BRANCH  29  39
ATOM     39  C   LIG A   1      -3.287   2.558 126.566  0.00  0.00    +0.190 C 
BRANCH  39  40
ATOM     40  O   LIG A   1      -1.860   2.508 126.626  0.00  0.00    -0.392 OA
ATOM     41  H   LIG A   1      -1.605   3.084 127.373  0.00  0.00    +0.209 HD
ENDBRANCH  39  40
ENDBRANCH  29  39
ENDBRANCH  26  27
ENDBRANCH  11  26
TORSDOF 12
ENDMDL
MODEL 2
REMARK VINA RESULT:      -7.9      3.180      7.317
REMARK  Name = NuBBE_8
REMARK  12 active torsions:
REMARK  status: ('A' for Active; 'I' for Inactive)
REMARK    1  A    between atoms: C_4  and  O_38
REMARK    2  A    between atoms: C_6  and  O_37
REMARK    3  A    between atoms: C_10  and  C_11
REMARK    4  A    between atoms: C_13  and  O_14
REMARK    5  A    between atoms: C_15  and  O_18
REMARK    6  A    between atoms: C_19  and  O_20
REMARK    7  A    between atoms: O_20  and  C_21
REMARK    8  A    between atoms: C_24  and  C_32
REMARK    9  A    between atoms: C_26  and  O_31
REMARK   10  A    between atoms: C_28  and  O_30
REMARK   11  A    between atoms: C_32  and  O_33
REMARK   12  A    between atoms: C_34  and  O_36
REMARK                            x       y       z     vdW  Elec       q    Type
REMARK                         _______ _______ _______ _____ _____    ______ ____
ROOT
ATOM      1  O   LIG A   1      -5.101  -0.981 124.793  0.00  0.00    -0.283 OA
ATOM      2  C   LIG A   1      -6.023  -1.324 125.518  0.00  0.00    +0.238 A 
ATOM      3  C   LIG A   1      -7.161  -2.007 124.909  0.00  0.00    +0.109 A 
ATOM      4  C   LIG A   1      -7.326  -2.042 123.518  0.00  0.00    +0.135 A 
ATOM      5  C   LIG A   1      -8.446  -2.647 122.963  0.00  0.00    +0.091 A 
ATOM      6  C   LIG A   1      -9.383  -3.230 123.811  0.00  0.00    +0.124 A 
ATOM      7  C   LIG A   1      -9.218  -3.206 125.198  0.00  0.00    +0.092 A 
ATOM      8  C   LIG A   1      -8.102  -2.579 125.748  0.00  0.00    +0.146 A 
ATOM      9  O   LIG A   1      -7.966  -2.558 127.111  0.00  0.00    -0.451 OA
ATOM     10  C   LIG A   1      -7.038  -1.685 127.688  0.00  0.00    +0.181 A 
ATOM     11  C   LIG A   1      -6.109  -1.005 126.977  0.00  0.00    +0.214 A 
ENDROOT
BRANCH  10  12
ATOM     12  C   LIG A   1      -7.190  -1.603 129.171  0.00  0.00    +0.025 A 
ATOM     13  C   LIG A   1      -6.750  -2.630 130.028  0.00  0.00    +0.060 A 
ATOM     14  C   LIG A   1      -7.010  -2.568 131.396  0.00  0.00    +0.159 A 
ATOM     15  C   LIG A   1      -7.710  -1.494 131.934  0.00  0.00    +0.158 A 
ATOM     16  C   LIG A   1      -8.149  -0.464 131.121  0.00  0.00    +0.050 A 
ATOM     17  C   LIG A   1      -7.891  -0.521 129.746  0.00  0.00    +0.015 A 
BRANCH  14  18
ATOM     18  O   LIG A   1      -6.615  -3.559 132.254  0.00  0.00    -0.503 OA
ATOM     19  H   LIG A   1      -5.930  -4.089 131.812  0.00  0.00    +0.292 HD
ENDBRANCH  14  18
BRANCH  15  20
ATOM     20  O   LIG A   1      -7.986  -1.457 133.270  0.00  0.00    -0.503 OA
ATOM     21  H   LIG A   1      -8.434  -2.307 133.453  0.00  0.00    +0.292 HD
ENDBRANCH  15  20
ENDBRANCH  10  12
BRANCH   6  22
ATOM     22  O   LIG A   1     -10.493  -3.844 123.311  0.00  0.00    -0.506 OA
ATOM     23  H   LIG A   1     -11.163  -3.905 124.013  0.00  0.00    +0.292 HD
ENDBRANCH   6  22
BRANCH   4  24
ATOM     24  O   LIG A   1      -6.430  -1.485 122.645  0.00  0.00    -0.506 OA
ATOM     25  H   LIG A   1      -6.137  -0.624 123.019  0.00  0.00    +0.292 HD
ENDBRANCH   4  24
BRANCH  11  26
ATOM     26  O   LIG A   1      -5.290  -0.038 127.553  0.00  0.00    -0.453 OA
BRANCH  26  27
ATOM     27  C   LIG A   1      -5.656   1.342 127.369  0.00  0.00    +0.340 C 
ATOM     28  O   LIG A   1      -7.018   1.392 126.894  0.00  0.00    -0.331 OA
ATOM     29  C   LIG A   1      -7.526   2.730 126.652  0.00  0.00    +0.179 C 
ATOM     30  C   LIG A   1      -6.505   3.854 126.899  0.00  0.00    +0.177 C 
ATOM     31  C   LIG A   1      -5.146   3.559 126.256  0.00  0.00    +0.180 C 
ATOM     32  C   LIG A   1      -4.770   2.070 126.321  0.00  0.00    +0.214 C 
BRANCH  31  33
ATOM     33  O   LIG A   1      -5.155   4.015 124.893  0.00  0.00    -0.386 OA
ATOM     34  H   LIG A   1      -4.904   3.249 124.339  0.00  0.00    +0.210 HD
ENDBRANCH  31  33
BRANCH  30  35
ATOM     35  O   LIG A   1      -6.977   5.134 126.488  0.00  0.00    -0.387 OA
ATOM     36  H   LIG A   1      -6.805   5.188 125.524  0.00  0.00    +0.210 HD
ENDBRANCH  30  35
BRANCH  32  37
ATOM     37  O   LIG A   1      -3.352   1.976 126.521  0.00  0.00    -0.383 OA
ATOM     38  H   LIG A   1      -3.163   2.058 127.474  0.00  0.00    +0.210 HD
ENDBRANCH  32  37
BRANCH  29  39
ATOM     39  C   LIG A   1      -8.109   2.751 125.232  0.00  0.00    +0.190 C 
BRANCH  39  40
ATOM     40  O   LIG A   1      -9.010   3.853 125.097  0.00  0.00    -0.392 OA
ATOM     41  H   LIG A   1      -8.450   4.632 124.916  0.00  0.00    +0.209 HD
ENDBRANCH  39  40
ENDBRANCH  29  39
ENDBRANCH  26  27
ENDBRANCH  11  26
TORSDOF 12
ENDMDL
MODEL 3
REMARK VINA RESULT:      -7.7      3.554      8.239
REMARK  Name = NuBBE_8
REMARK  12 active torsions:
REMARK  status: ('A' for Active; 'I' for Inactive)
REMARK    1  A    between atoms: C_4  and  O_38
REMARK    2  A    between atoms: C_6  and  O_37
REMARK    3  A    between atoms: C_10  and  C_11
REMARK    4  A    between atoms: C_13  and  O_14
REMARK    5  A    between atoms: C_15  and  O_18
REMARK    6  A    between atoms: C_19  and  O_20
REMARK    7  A    between atoms: O_20  and  C_21
REMARK    8  A    between atoms: C_24  and  C_32
REMARK    9  A    between atoms: C_26  and  O_31
REMARK   10  A    between atoms: C_28  and  O_30
REMARK   11  A    between atoms: C_32  and  O_33
REMARK   12  A    between atoms: C_34  and  O_36
REMARK                            x       y       z     vdW  Elec       q    Type
REMARK                         _______ _______ _______ _____ _____    ______ ____
ROOT
ATOM      1  O   LIG A   1      -8.862   5.192 127.696  0.00  0.00    -0.283 OA
ATOM      2  C   LIG A   1      -8.461   4.473 128.600  0.00  0.00    +0.238 A 
ATOM      3  C   LIG A   1      -8.643   4.929 129.975  0.00  0.00    +0.109 A 
ATOM      4  C   LIG A   1      -9.019   6.249 130.257  0.00  0.00    +0.135 A 
ATOM      5  C   LIG A   1      -9.129   6.678 131.574  0.00  0.00    +0.091 A 
ATOM      6  C   LIG A   1      -8.879   5.769 132.597  0.00  0.00    +0.124 A 
ATOM      7  C   LIG A   1      -8.512   4.450 132.321  0.00  0.00    +0.092 A 
ATOM      8  C   LIG A   1      -8.384   4.033 130.997  0.00  0.00    +0.146 A 
ATOM      9  O   LIG A   1      -8.014   2.738 130.751  0.00  0.00    -0.451 OA
ATOM     10  C   LIG A   1      -7.585   2.387 129.466  0.00  0.00    +0.181 A 
ATOM     11  C   LIG A   1      -7.710   3.196 128.389  0.00  0.00    +0.214 A 
ENDROOT
BRANCH  10  12
ATOM     12  C   LIG A   1      -6.985   1.020 129.428  0.00  0.00    +0.025 A 
ATOM     13  C   LIG A   1      -5.606   0.801 129.611  0.00  0.00    +0.060 A 
ATOM     14  C   LIG A   1      -5.068  -0.476 129.458  0.00  0.00    +0.159 A 
ATOM     15  C   LIG A   1      -5.883  -1.550 129.119  0.00  0.00    +0.158 A 
ATOM     16  C   LIG A   1      -7.242  -1.371 128.940  0.00  0.00    +0.050 A 
ATOM     17  C   LIG A   1      -7.789  -0.090 129.092  0.00  0.00    +0.015 A 
BRANCH  14  18
ATOM     18  O   LIG A   1      -3.729  -0.719 129.608  0.00  0.00    -0.503 OA
ATOM     19  H   LIG A   1      -3.299   0.106 129.888  0.00  0.00    +0.292 HD
ENDBRANCH  14  18
BRANCH  15  20
ATOM     20  O   LIG A   1      -5.342  -2.790 128.942  0.00  0.00    -0.503 OA
ATOM     21  H   LIG A   1      -6.112  -3.392 128.903  0.00  0.00    +0.292 HD
ENDBRANCH  15  20
ENDBRANCH  10  12
BRANCH   6  22
ATOM     22  O   LIG A   1      -8.984   6.142 133.904  0.00  0.00    -0.506 OA
ATOM     23  H   LIG A   1      -9.480   5.460 134.388  0.00  0.00    +0.292 HD
ENDBRANCH   6  22
BRANCH   4  24
ATOM     24  O   LIG A   1      -9.278   7.176 129.283  0.00  0.00    -0.506 OA
ATOM     25  H   LIG A   1      -8.533   7.818 129.268  0.00  0.00    +0.292 HD
ENDBRANCH   4  24
BRANCH  11  26
ATOM     26  O   LIG A   1      -7.150   2.885 127.153  0.00  0.00    -0.453 OA
BRANCH  26  27
ATOM     27  C   LIG A   1      -7.985   2.218 126.190  0.00  0.00    +0.340 C 
ATOM     28  O   LIG A   1      -7.333   0.991 125.797  0.00  0.00    -0.331 OA
ATOM     29  C   LIG A   1      -8.060   0.208 124.814  0.00  0.00    +0.179 C 
ATOM     30  C   LIG A   1      -9.371   0.850 124.331  0.00  0.00    +0.177 C 
ATOM     31  C   LIG A   1      -9.198   2.329 123.970  0.00  0.00    +0.180 C 
ATOM     32  C   LIG A   1      -8.216   3.056 124.903  0.00  0.00    +0.214 C 
BRANCH  31  33
ATOM     33  O   LIG A   1      -8.768   2.439 122.603  0.00  0.00    -0.386 OA
ATOM     34  H   LIG A   1      -9.011   3.338 122.304  0.00  0.00    +0.210 HD
ENDBRANCH  31  33
BRANCH  30  35
ATOM     35  O   LIG A   1      -9.968   0.145 123.245  0.00  0.00    -0.387 OA
ATOM     36  H   LIG A   1     -10.847  -0.149 123.564  0.00  0.00    +0.210 HD
ENDBRANCH  30  35
BRANCH  32  37
ATOM     37  O   LIG A   1      -8.694   4.394 125.100  0.00  0.00    -0.383 OA
ATOM     38  H   LIG A   1      -9.046   4.730 124.256  0.00  0.00    +0.210 HD
ENDBRANCH  32  37
BRANCH  29  39
ATOM     39  C   LIG A   1      -7.088  -0.107 123.668  0.00  0.00    +0.190 C 
BRANCH  39  40
ATOM     40  O   LIG A   1      -7.497  -1.305 123.005  0.00  0.00    -0.392 OA
ATOM     41  H   LIG A   1      -6.951  -2.019 123.387  0.00  0.00    +0.209 HD
ENDBRANCH  39  40
ENDBRANCH  29  39
ENDBRANCH  26  27
ENDBRANCH  11  26
TORSDOF 12
ENDMDL
MODEL 4
REMARK VINA RESULT:      -7.7      4.269      7.844
REMARK  Name = NuBBE_8
REMARK  12 active torsions:
REMARK  status: ('A' for Active; 'I' for Inactive)
REMARK    1  A    between atoms: C_4  and  O_38
REMARK    2  A    between atoms: C_6  and  O_37
REMARK    3  A    between atoms: C_10  and  C_11
REMARK    4  A    between atoms: C_13  and  O_14
REMARK    5  A    between atoms: C_15  and  O_18
REMARK    6  A    between atoms: C_19  and  O_20
REMARK    7  A    between atoms: O_20  and  C_21
REMARK    8  A    between atoms: C_24  and  C_32
REMARK    9  A    between atoms: C_26  and  O_31
REMARK   10  A    between atoms: C_28  and  O_30
REMARK   11  A    between atoms: C_32  and  O_33
REMARK   12  A    between atoms: C_34  and  O_36
REMARK                            x       y       z     vdW  Elec       q    Type
REMARK                         _______ _______ _______ _____ _____    ______ ____
ROOT
ATOM      1  O   LIG A   1      -7.377   4.414 126.238  0.00  0.00    -0.283 OA
ATOM      2  C   LIG A   1      -7.669   3.328 126.718  0.00  0.00    +0.238 A 
ATOM      3  C   LIG A   1      -8.183   2.295 125.823  0.00  0.00    +0.109 A 
ATOM      4  C   LIG A   1      -8.580   2.601 124.515  0.00  0.00    +0.135 A 
ATOM      5  C   LIG A   1      -9.121   1.614 123.700  0.00  0.00    +0.091 A 
ATOM      6  C   LIG A   1      -9.240   0.322 124.203  0.00  0.00    +0.124 A 
ATOM      7  C   LIG A   1      -8.838   0.010 125.503  0.00  0.00    +0.092 A 
ATOM      8  C   LIG A   1      -8.315   1.010 126.321  0.00  0.00    +0.146 A 
ATOM      9  O   LIG A   1      -7.936   0.683 127.596  0.00  0.00    -0.451 OA
ATOM     10  C   LIG A   1      -7.705   1.708 128.519  0.00  0.00    +0.181 A 
ATOM     11  C   LIG A   1      -7.625   3.016 128.181  0.00  0.00    +0.214 A 
ENDROOT
BRANCH  10  12
ATOM     12  C   LIG A   1      -7.550   1.187 129.910  0.00  0.00    +0.025 A 
ATOM     13  C   LIG A   1      -6.289   0.903 130.468  0.00  0.00    +0.060 A 
ATOM     14  C   LIG A   1      -6.191   0.314 131.727  0.00  0.00    +0.159 A 
ATOM     15  C   LIG A   1      -7.336  -0.005 132.449  0.00  0.00    +0.158 A 
ATOM     16  C   LIG A   1      -8.589   0.269 131.933  0.00  0.00    +0.050 A 
ATOM     17  C   LIG A   1      -8.694   0.860 130.668  0.00  0.00    +0.015 A 
BRANCH  14  18
ATOM     18  O   LIG A   1      -4.982   0.005 132.290  0.00  0.00    -0.503 OA
ATOM     19  H   LIG A   1      -4.725  -0.883 131.990  0.00  0.00    +0.292 HD
ENDBRANCH  14  18
BRANCH  15  20
ATOM     20  O   LIG A   1      -7.230  -0.609 133.668  0.00  0.00    -0.503 OA
ATOM     21  H   LIG A   1      -7.515  -1.532 133.511  0.00  0.00    +0.292 HD
ENDBRANCH  15  20
ENDBRANCH  10  12
BRANCH   6  22
ATOM     22  O   LIG A   1      -9.756  -0.681 123.436  0.00  0.00    -0.506 OA
ATOM     23  H   LIG A   1      -9.200  -0.791 122.645  0.00  0.00    +0.292 HD
ENDBRANCH   6  22
BRANCH   4  24
ATOM     24  O   LIG A   1      -8.478   3.856 123.978  0.00  0.00    -0.506 OA
ATOM     25  H   LIG A   1      -9.351   4.093 123.591  0.00  0.00    +0.292 HD
ENDBRANCH   4  24
BRANCH  11  26
ATOM     26  O   LIG A   1      -7.535   4.029 129.131  0.00  0.00    -0.453 OA
BRANCH  26  27
ATOM     27  C   LIG A   1      -8.749   4.442 129.784  0.00  0.00    +0.340 C 
ATOM     28  O   LIG A   1      -9.310   5.548 129.044  0.00  0.00    -0.331 OA
ATOM     29  C   LIG A   1     -10.542   6.081 129.595  0.00  0.00    +0.179 C 
ATOM     30  C   LIG A   1     -11.005   5.404 130.896  0.00  0.00    +0.177 C 
ATOM     31  C   LIG A   1      -9.866   5.248 131.908  0.00  0.00    +0.180 C 
ATOM     32  C   LIG A   1      -8.519   4.926 131.242  0.00  0.00    +0.214 C 
BRANCH  31  33
ATOM     33  O   LIG A   1      -9.762   6.446 132.697  0.00  0.00    -0.386 OA
ATOM     34  H   LIG A   1     -10.467   7.048 132.387  0.00  0.00    +0.210 HD
ENDBRANCH  31  33
BRANCH  30  35
ATOM     35  O   LIG A   1     -12.115   6.062 131.500  0.00  0.00    -0.387 OA
ATOM     36  H   LIG A   1     -12.904   5.789 130.986  0.00  0.00    +0.210 HD
ENDBRANCH  30  35
BRANCH  32  37
ATOM     37  O   LIG A   1      -7.801   4.026 132.098  0.00  0.00    -0.383 OA
ATOM     38  H   LIG A   1      -7.131   4.531 132.594  0.00  0.00    +0.210 HD
ENDBRANCH  32  37
BRANCH  29  39
ATOM     39  C   LIG A   1     -10.362   7.599 129.739  0.00  0.00    +0.190 C 
BRANCH  39  40
ATOM     40  O   LIG A   1     -11.632   8.247 129.637  0.00  0.00    -0.392 OA
ATOM     41  H   LIG A   1     -12.280   7.535 129.472  0.00  0.00    +0.209 HD
ENDBRANCH  39  40
ENDBRANCH  29  39
ENDBRANCH  26  27
ENDBRANCH  11  26
TORSDOF 12
ENDMDL
MODEL 5
REMARK VINA RESULT:      -7.6      4.430      8.689
REMARK  Name = NuBBE_8
REMARK  12 active torsions:
REMARK  status: ('A' for Active; 'I' for Inactive)
REMARK    1  A    between atoms: C_4  and  O_38
REMARK    2  A    between atoms: C_6  and  O_37
REMARK    3  A    between atoms: C_10  and  C_11
REMARK    4  A    between atoms: C_13  and  O_14
REMARK    5  A    between atoms: C_15  and  O_18
REMARK    6  A    between atoms: C_19  and  O_20
REMARK    7  A    between atoms: O_20  and  C_21
REMARK    8  A    between atoms: C_24  and  C_32
REMARK    9  A    between atoms: C_26  and  O_31
REMARK   10  A    between atoms: C_28  and  O_30
REMARK   11  A    between atoms: C_32  and  O_33
REMARK   12  A    between atoms: C_34  and  O_36
REMARK                            x       y       z     vdW  Elec       q    Type
REMARK                         _______ _______ _______ _____ _____    ______ ____
ROOT
ATOM      1  O   LIG A   1      -9.758   6.561 127.217  0.00  0.00    -0.283 OA
ATOM      2  C   LIG A   1      -9.787   6.065 128.334  0.00  0.00    +0.238 A 
ATOM      3  C   LIG A   1     -10.768   6.574 129.288  0.00  0.00    +0.109 A 
ATOM      4  C   LIG A   1     -11.476   7.756 129.038  0.00  0.00    +0.135 A 
ATOM      5  C   LIG A   1     -12.363   8.254 129.986  0.00  0.00    +0.091 A 
ATOM      6  C   LIG A   1     -12.544   7.545 131.170  0.00  0.00    +0.124 A 
ATOM      7  C   LIG A   1     -11.847   6.361 131.420  0.00  0.00    +0.092 A 
ATOM      8  C   LIG A   1     -10.944   5.880 130.473  0.00  0.00    +0.146 A 
ATOM      9  O   LIG A   1     -10.265   4.722 130.743  0.00  0.00    -0.451 OA
ATOM     10  C   LIG A   1      -9.150   4.391 129.966  0.00  0.00    +0.181 A 
ATOM     11  C   LIG A   1      -8.818   5.035 128.822  0.00  0.00    +0.214 A 
ENDROOT
BRANCH  10  12
ATOM     12  C   LIG A   1      -8.382   3.248 130.542  0.00  0.00    +0.025 A 
ATOM     13  C   LIG A   1      -7.263   3.440 131.374  0.00  0.00    +0.060 A 
ATOM     14  C   LIG A   1      -6.506   2.350 131.802  0.00  0.00    +0.159 A 
ATOM     15  C   LIG A   1      -6.843   1.059 131.410  0.00  0.00    +0.158 A 
ATOM     16  C   LIG A   1      -7.941   0.835 130.600  0.00  0.00    +0.050 A 
ATOM     17  C   LIG A   1      -8.705   1.926 130.167  0.00  0.00    +0.015 A 
BRANCH  14  18
ATOM     18  O   LIG A   1      -5.400   2.503 132.594  0.00  0.00    -0.503 OA
ATOM     19  H   LIG A   1      -5.502   1.928 133.372  0.00  0.00    +0.292 HD
ENDBRANCH  14  18
BRANCH  15  20
ATOM     20  O   LIG A   1      -6.078   0.001 131.809  0.00  0.00    -0.503 OA
ATOM     21  H   LIG A   1      -6.054  -0.593 131.032  0.00  0.00    +0.292 HD
ENDBRANCH  15  20
ENDBRANCH  10  12
BRANCH   6  22
ATOM     22  O   LIG A   1     -13.410   7.989 132.125  0.00  0.00    -0.506 OA
ATOM     23  H   LIG A   1     -13.236   8.931 132.296  0.00  0.00    +0.292 HD
ENDBRANCH   6  22
BRANCH   4  24
ATOM     24  O   LIG A   1     -11.333   8.485 127.888  0.00  0.00    -0.506 OA
ATOM     25  H   LIG A   1     -12.184   8.943 127.710  0.00  0.00    +0.292 HD
ENDBRANCH   4  24
BRANCH  11  26
ATOM     26  O   LIG A   1      -7.630   4.783 128.142  0.00  0.00    -0.453 OA
BRANCH  26  27
ATOM     27  C   LIG A   1      -7.669   3.841 127.056  0.00  0.00    +0.340 C 
ATOM     28  O   LIG A   1      -6.765   2.757 127.361  0.00  0.00    -0.331 OA
ATOM     29  C   LIG A   1      -6.690   1.726 126.343  0.00  0.00    +0.179 C 
ATOM     30  C   LIG A   1      -7.551   1.997 125.097  0.00  0.00    +0.177 C 
ATOM     31  C   LIG A   1      -7.385   3.427 124.574  0.00  0.00    +0.180 C 
ATOM     32  C   LIG A   1      -7.217   4.456 125.703  0.00  0.00    +0.214 C 
BRANCH  31  33
ATOM     33  O   LIG A   1      -6.264   3.479 123.676  0.00  0.00    -0.386 OA
ATOM     34  H   LIG A   1      -5.767   4.292 123.895  0.00  0.00    +0.210 HD
ENDBRANCH  31  33
BRANCH  30  35
ATOM     35  O   LIG A   1      -7.322   1.059 124.049  0.00  0.00    -0.387 OA
ATOM     36  H   LIG A   1      -8.209   0.791 123.727  0.00  0.00    +0.210 HD
ENDBRANCH  30  35
BRANCH  32  37
ATOM     37  O   LIG A   1      -7.882   5.665 125.308  0.00  0.00    -0.383 OA
ATOM     38  H   LIG A   1      -8.364   5.501 124.476  0.00  0.00    +0.210 HD
ENDBRANCH  32  37
BRANCH  29  39
ATOM     39  C   LIG A   1      -5.206   1.513 126.012  0.00  0.00    +0.190 C 
BRANCH  39  40
ATOM     40  O   LIG A   1      -4.786   0.231 126.483  0.00  0.00    -0.392 OA
ATOM     41  H   LIG A   1      -4.168   0.409 127.218  0.00  0.00    +0.209 HD
ENDBRANCH  39  40
ENDBRANCH  29  39
ENDBRANCH  26  27
ENDBRANCH  11  26
TORSDOF 12
ENDMDL
MODEL 6
REMARK VINA RESULT:      -7.6      4.563      9.067
REMARK  Name = NuBBE_8
REMARK  12 active torsions:
REMARK  status: ('A' for Active; 'I' for Inactive)
REMARK    1  A    between atoms: C_4  and  O_38
REMARK    2  A    between atoms: C_6  and  O_37
REMARK    3  A    between atoms: C_10  and  C_11
REMARK    4  A    between atoms: C_13  and  O_14
REMARK    5  A    between atoms: C_15  and  O_18
REMARK    6  A    between atoms: C_19  and  O_20
REMARK    7  A    between atoms: O_20  and  C_21
REMARK    8  A    between atoms: C_24  and  C_32
REMARK    9  A    between atoms: C_26  and  O_31
REMARK   10  A    between atoms: C_28  and  O_30
REMARK   11  A    between atoms: C_32  and  O_33
REMARK   12  A    between atoms: C_34  and  O_36
REMARK                            x       y       z     vdW  Elec       q    Type
REMARK                         _______ _______ _______ _____ _____    ______ ____
ROOT
ATOM      1  O   LIG A   1      -8.962   2.707 128.044  0.00  0.00    -0.283 OA
ATOM      2  C   LIG A   1      -8.640   2.084 129.045  0.00  0.00    +0.238 A 
ATOM      3  C   LIG A   1      -8.978   2.650 130.348  0.00  0.00    +0.109 A 
ATOM      4  C   LIG A   1      -9.416   3.975 130.471  0.00  0.00    +0.135 A 
ATOM      5  C   LIG A   1      -9.675   4.511 131.726  0.00  0.00    +0.091 A 
ATOM      6  C   LIG A   1      -9.511   3.703 132.846  0.00  0.00    +0.124 A 
ATOM      7  C   LIG A   1      -9.083   2.379 132.728  0.00  0.00    +0.092 A 
ATOM      8  C   LIG A   1      -8.805   1.855 131.467  0.00  0.00    +0.146 A 
ATOM      9  O   LIG A   1      -8.377   0.557 131.377  0.00  0.00    -0.451 OA
ATOM     10  C   LIG A   1      -7.806   0.112 130.180  0.00  0.00    +0.181 A 
ATOM     11  C   LIG A   1      -7.838   0.821 129.027  0.00  0.00    +0.214 A 
ENDROOT
BRANCH  10  12
ATOM     12  C   LIG A   1      -7.171  -1.231 130.325  0.00  0.00    +0.025 A 
ATOM     13  C   LIG A   1      -5.827  -1.386 130.718  0.00  0.00    +0.060 A 
ATOM     14  C   LIG A   1      -5.238  -2.649 130.735  0.00  0.00    +0.159 A 
ATOM     15  C   LIG A   1      -5.966  -3.773 130.362  0.00  0.00    +0.158 A 
ATOM     16  C   LIG A   1      -7.290  -3.657 129.979  0.00  0.00    +0.050 A 
ATOM     17  C   LIG A   1      -7.888  -2.390 129.959  0.00  0.00    +0.015 A 
BRANCH  14  18
ATOM     18  O   LIG A   1      -3.929  -2.833 131.091  0.00  0.00    -0.503 OA
ATOM     19  H   LIG A   1      -3.595  -3.618 130.626  0.00  0.00    +0.292 HD
ENDBRANCH  14  18
BRANCH  15  20
ATOM     20  O   LIG A   1      -5.372  -5.002 130.353  0.00  0.00    -0.503 OA
ATOM     21  H   LIG A   1      -4.443  -4.824 130.101  0.00  0.00    +0.292 HD
ENDBRANCH  15  20
ENDBRANCH  10  12
BRANCH   6  22
ATOM     22  O   LIG A   1      -9.763   4.184 134.097  0.00  0.00    -0.506 OA
ATOM     23  H   LIG A   1      -9.644   3.464 134.742  0.00  0.00    +0.292 HD
ENDBRANCH   6  22
BRANCH   4  24
ATOM     24  O   LIG A   1      -9.594   4.805 129.396  0.00  0.00    -0.506 OA
ATOM     25  H   LIG A   1      -9.439   5.729 129.697  0.00  0.00    +0.292 HD
ENDBRANCH   4  24
BRANCH  11  26
ATOM     26  O   LIG A   1      -7.143   0.425 127.888  0.00  0.00    -0.453 OA
BRANCH  26  27
ATOM     27  C   LIG A   1      -7.862  -0.329 126.895  0.00  0.00    +0.340 C 
ATOM     28  O   LIG A   1      -7.199  -1.599 126.720  0.00  0.00    -0.331 OA
ATOM     29  C   LIG A   1      -7.811  -2.470 125.734  0.00  0.00    +0.179 C 
ATOM     30  C   LIG A   1      -9.028  -1.864 125.015  0.00  0.00    +0.177 C 
ATOM     31  C   LIG A   1      -8.766  -0.434 124.532  0.00  0.00    +0.180 C 
ATOM     32  C   LIG A   1      -7.895   0.373 125.509  0.00  0.00    +0.214 C 
BRANCH  31  33
ATOM     33  O   LIG A   1      -8.155  -0.474 123.232  0.00  0.00    -0.386 OA
ATOM     34  H   LIG A   1      -8.562  -1.224 122.754  0.00  0.00    +0.210 HD
ENDBRANCH  31  33
BRANCH  30  35
ATOM     35  O   LIG A   1      -9.495  -2.670 123.937  0.00  0.00    -0.387 OA
ATOM     36  H   LIG A   1     -10.110  -2.104 123.423  0.00  0.00    +0.210 HD
ENDBRANCH  30  35
BRANCH  32  37
ATOM     37  O   LIG A   1      -8.358   1.731 125.502  0.00  0.00    -0.383 OA
ATOM     38  H   LIG A   1      -8.849   1.900 126.327  0.00  0.00    +0.210 HD
ENDBRANCH  32  37
BRANCH  29  39
ATOM     39  C   LIG A   1      -6.705  -2.918 124.768  0.00  0.00    +0.190 C 
BRANCH  39  40
ATOM     40  O   LIG A   1      -6.948  -4.262 124.346  0.00  0.00    -0.392 OA
ATOM     41  H   LIG A   1      -6.434  -4.828 124.954  0.00  0.00    +0.209 HD
ENDBRANCH  39  40
ENDBRANCH  29  39
ENDBRANCH  26  27
ENDBRANCH  11  26
TORSDOF 12
ENDMDL
MODEL 7
REMARK VINA RESULT:      -7.5      6.825      9.284
REMARK  Name = NuBBE_8
REMARK  12 active torsions:
REMARK  status: ('A' for Active; 'I' for Inactive)
REMARK    1  A    between atoms: C_4  and  O_38
REMARK    2  A    between atoms: C_6  and  O_37
REMARK    3  A    between atoms: C_10  and  C_11
REMARK    4  A    between atoms: C_13  and  O_14
REMARK    5  A    between atoms: C_15  and  O_18
REMARK    6  A    between atoms: C_19  and  O_20
REMARK    7  A    between atoms: O_20  and  C_21
REMARK    8  A    between atoms: C_24  and  C_32
REMARK    9  A    between atoms: C_26  and  O_31
REMARK   10  A    between atoms: C_28  and  O_30
REMARK   11  A    between atoms: C_32  and  O_33
REMARK   12  A    between atoms: C_34  and  O_36
REMARK                            x       y       z     vdW  Elec       q    Type
REMARK                         _______ _______ _______ _____ _____    ______ ____
ROOT
ATOM      1  O   LIG A   1      -9.778   5.606 133.355  0.00  0.00    -0.283 OA
ATOM      2  C   LIG A   1      -9.151   5.966 132.369  0.00  0.00    +0.238 A 
ATOM      3  C   LIG A   1      -9.882   6.619 131.287  0.00  0.00    +0.109 A 
ATOM      4  C   LIG A   1     -11.282   6.605 131.248  0.00  0.00    +0.135 A 
ATOM      5  C   LIG A   1     -11.957   7.181 130.178  0.00  0.00    +0.091 A 
ATOM      6  C   LIG A   1     -11.216   7.784 129.166  0.00  0.00    +0.124 A 
ATOM      7  C   LIG A   1      -9.821   7.809 129.206  0.00  0.00    +0.092 A 
ATOM      8  C   LIG A   1      -9.151   7.211 130.272  0.00  0.00    +0.146 A 
ATOM      9  O   LIG A   1      -7.782   7.238 130.285  0.00  0.00    -0.451 OA
ATOM     10  C   LIG A   1      -7.093   6.394 131.162  0.00  0.00    +0.181 A 
ATOM     11  C   LIG A   1      -7.694   5.697 132.155  0.00  0.00    +0.214 A 
ENDROOT
BRANCH  10  12
ATOM     12  C   LIG A   1      -5.628   6.362 130.878  0.00  0.00    +0.025 A 
ATOM     13  C   LIG A   1      -4.704   7.125 131.617  0.00  0.00    +0.060 A 
ATOM     14  C   LIG A   1      -3.360   7.154 131.250  0.00  0.00    +0.159 A 
ATOM     15  C   LIG A   1      -2.912   6.433 130.149  0.00  0.00    +0.158 A 
ATOM     16  C   LIG A   1      -3.792   5.667 129.407  0.00  0.00    +0.050 A 
ATOM     17  C   LIG A   1      -5.144   5.634 129.770  0.00  0.00    +0.015 A 
BRANCH  14  18
ATOM     18  O   LIG A   1      -2.439   7.902 131.933  0.00  0.00    -0.503 OA
ATOM     19  H   LIG A   1      -1.560   7.518 131.778  0.00  0.00    +0.292 HD
ENDBRANCH  14  18
BRANCH  15  20
ATOM     20  O   LIG A   1      -1.600   6.492 129.780  0.00  0.00    -0.503 OA
ATOM     21  H   LIG A   1      -1.120   6.705 130.606  0.00  0.00    +0.292 HD
ENDBRANCH  15  20
ENDBRANCH  10  12
BRANCH   6  22
ATOM     22  O   LIG A   1     -11.836   8.371 128.102  0.00  0.00    -0.506 OA
ATOM     23  H   LIG A   1     -12.388   7.708 127.654  0.00  0.00    +0.292 HD
ENDBRANCH   6  22
BRANCH   4  24
ATOM     24  O   LIG A   1     -12.052   6.025 132.221  0.00  0.00    -0.506 OA
ATOM     25  H   LIG A   1     -11.449   5.613 132.879  0.00  0.00    +0.292 HD
ENDBRANCH   4  24
BRANCH  11  26
ATOM     26  O   LIG A   1      -7.014   4.757 132.924  0.00  0.00    -0.453 OA
BRANCH  26  27
ATOM     27  C   LIG A   1      -6.914   3.418 132.407  0.00  0.00    +0.340 C 
ATOM     28  O   LIG A   1      -8.142   3.105 131.715  0.00  0.00    -0.331 OA
ATOM     29  C   LIG A   1      -8.191   1.771 131.144  0.00  0.00    +0.179 C 
ATOM     30  C   LIG A   1      -6.946   0.913 131.421  0.00  0.00    +0.177 C 
ATOM     31  C   LIG A   1      -6.518   0.964 132.890  0.00  0.00    +0.180 C 
ATOM     32  C   LIG A   1      -6.723   2.351 133.520  0.00  0.00    +0.214 C 
BRANCH  31  33
ATOM     33  O   LIG A   1      -7.238  -0.035 133.632  0.00  0.00    -0.386 OA
ATOM     34  H   LIG A   1      -8.055   0.392 133.958  0.00  0.00    +0.210 HD
ENDBRANCH  31  33
BRANCH  30  35
ATOM     35  O   LIG A   1      -7.099  -0.441 130.999  0.00  0.00    -0.387 OA
ATOM     36  H   LIG A   1      -7.768  -0.836 131.598  0.00  0.00    +0.210 HD
ENDBRANCH  30  35
BRANCH  32  37
ATOM     37  O   LIG A   1      -5.647   2.588 134.440  0.00  0.00    -0.383 OA
ATOM     38  H   LIG A   1      -5.395   3.528 134.393  0.00  0.00    +0.210 HD
ENDBRANCH  32  37
BRANCH  29  39
ATOM     39  C   LIG A   1      -9.493   1.114 131.624  0.00  0.00    +0.190 C 
BRANCH  39  40
ATOM     40  O   LIG A   1     -10.248   2.048 132.398  0.00  0.00    -0.392 OA
ATOM     41  H   LIG A   1     -11.176   1.939 132.112  0.00  0.00    +0.209 HD
ENDBRANCH  39  40
ENDBRANCH  29  39
ENDBRANCH  26  27
ENDBRANCH  11  26
TORSDOF 12
ENDMDL
MODEL 8
REMARK VINA RESULT:      -7.5      3.993      7.527
REMARK  Name = NuBBE_8
REMARK  12 active torsions:
REMARK  status: ('A' for Active; 'I' for Inactive)
REMARK    1  A    between atoms: C_4  and  O_38
REMARK    2  A    between atoms: C_6  and  O_37
REMARK    3  A    between atoms: C_10  and  C_11
REMARK    4  A    between atoms: C_13  and  O_14
REMARK    5  A    between atoms: C_15  and  O_18
REMARK    6  A    between atoms: C_19  and  O_20
REMARK    7  A    between atoms: O_20  and  C_21
REMARK    8  A    between atoms: C_24  and  C_32
REMARK    9  A    between atoms: C_26  and  O_31
REMARK   10  A    between atoms: C_28  and  O_30
REMARK   11  A    between atoms: C_32  and  O_33
REMARK   12  A    between atoms: C_34  and  O_36
REMARK                            x       y       z     vdW  Elec       q    Type
REMARK                         _______ _______ _______ _____ _____    ______ ____
ROOT
ATOM      1  O   LIG A   1      -7.629   3.180 126.935  0.00  0.00    -0.283 OA
ATOM      2  C   LIG A   1      -7.770   1.969 126.845  0.00  0.00    +0.238 A 
ATOM      3  C   LIG A   1      -8.393   1.436 125.637  0.00  0.00    +0.109 A 
ATOM      4  C   LIG A   1      -9.044   2.277 124.726  0.00  0.00    +0.135 A 
ATOM      5  C   LIG A   1      -9.681   1.741 123.612  0.00  0.00    +0.091 A 
ATOM      6  C   LIG A   1      -9.638   0.364 123.414  0.00  0.00    +0.124 A 
ATOM      7  C   LIG A   1      -8.981  -0.477 124.314  0.00  0.00    +0.092 A 
ATOM      8  C   LIG A   1      -8.363   0.066 125.440  0.00  0.00    +0.146 A 
ATOM      9  O   LIG A   1      -7.734  -0.780 126.315  0.00  0.00    -0.451 OA
ATOM     10  C   LIG A   1      -7.383  -0.306 127.583  0.00  0.00    +0.181 A 
ATOM     11  C   LIG A   1      -7.434   1.000 127.935  0.00  0.00    +0.214 A 
ENDROOT
BRANCH  10  12
ATOM     12  C   LIG A   1      -6.942  -1.406 128.491  0.00  0.00    +0.025 A 
ATOM     13  C   LIG A   1      -5.585  -1.751 128.647  0.00  0.00    +0.060 A 
ATOM     14  C   LIG A   1      -5.222  -2.855 129.417  0.00  0.00    +0.159 A 
ATOM     15  C   LIG A   1      -6.192  -3.633 130.039  0.00  0.00    +0.158 A 
ATOM     16  C   LIG A   1      -7.532  -3.317 129.913  0.00  0.00    +0.050 A 
ATOM     17  C   LIG A   1      -7.904  -2.209 129.140  0.00  0.00    +0.015 A 
BRANCH  14  18
ATOM     18  O   LIG A   1      -3.915  -3.230 129.572  0.00  0.00    -0.503 OA
ATOM     19  H   LIG A   1      -3.898  -4.134 129.929  0.00  0.00    +0.292 HD
ENDBRANCH  14  18
BRANCH  15  20
ATOM     20  O   LIG A   1      -5.827  -4.729 130.766  0.00  0.00    -0.503 OA
ATOM     21  H   LIG A   1      -4.853  -4.768 130.681  0.00  0.00    +0.292 HD
ENDBRANCH  15  20
ENDBRANCH  10  12
BRANCH   6  22
ATOM     22  O   LIG A   1     -10.239  -0.204 122.330  0.00  0.00    -0.506 OA
ATOM     23  H   LIG A   1     -11.121   0.191 122.215  0.00  0.00    +0.292 HD
ENDBRANCH   6  22
BRANCH   4  24
ATOM     24  O   LIG A   1      -9.109   3.636 124.878  0.00  0.00    -0.506 OA
ATOM     25  H   LIG A   1      -8.683   3.867 125.733  0.00  0.00    +0.292 HD
ENDBRANCH   4  24
BRANCH  11  26
ATOM     26  O   LIG A   1      -7.216   1.430 129.240  0.00  0.00    -0.453 OA
BRANCH  26  27
ATOM     27  C   LIG A   1      -8.234   2.241 129.854  0.00  0.00    +0.340 C 
ATOM     28  O   LIG A   1      -7.692   3.562 130.073  0.00  0.00    -0.331 OA
ATOM     29  C   LIG A   1      -8.609   4.495 130.700  0.00  0.00    +0.179 C 
ATOM     30  C   LIG A   1      -9.978   3.897 131.065  0.00  0.00    +0.177 C 
ATOM     31  C   LIG A   1      -9.853   2.546 131.777  0.00  0.00    +0.180 C 
ATOM     32  C   LIG A   1      -8.696   1.694 131.233  0.00  0.00    +0.214 C 
BRANCH  31  33
ATOM     33  O   LIG A   1      -9.694   2.765 133.189  0.00  0.00    -0.386 OA
ATOM     34  H   LIG A   1      -9.023   2.124 133.498  0.00  0.00    +0.210 HD
ENDBRANCH  31  33
BRANCH  30  35
ATOM     35  O   LIG A   1     -10.787   4.785 131.833  0.00  0.00    -0.387 OA
ATOM     36  H   LIG A   1     -11.585   4.274 132.085  0.00  0.00    +0.210 HD
ENDBRANCH  30  35
BRANCH  32  37
ATOM     37  O   LIG A   1      -9.104   0.318 131.259  0.00  0.00    -0.383 OA
ATOM     38  H   LIG A   1      -9.930   0.245 131.771  0.00  0.00    +0.210 HD
ENDBRANCH  32  37
BRANCH  29  39
ATOM     39  C   LIG A   1      -7.884   5.112 131.905  0.00  0.00    +0.190 C 
BRANCH  39  40
ATOM     40  O   LIG A   1      -8.477   6.371 132.232  0.00  0.00    -0.392 OA
ATOM     41  H   LIG A   1      -8.989   6.218 133.050  0.00  0.00    +0.209 HD
ENDBRANCH  39  40
ENDBRANCH  29  39
ENDBRANCH  26  27
ENDBRANCH  11  26
TORSDOF 12
ENDMDL
MODEL 9
REMARK VINA RESULT:      -7.5      3.599      6.248
REMARK  Name = NuBBE_8
REMARK  12 active torsions:
REMARK  status: ('A' for Active; 'I' for Inactive)
REMARK    1  A    between atoms: C_4  and  O_38
REMARK    2  A    between atoms: C_6  and  O_37
REMARK    3  A    between atoms: C_10  and  C_11
REMARK    4  A    between atoms: C_13  and  O_14
REMARK    5  A    between atoms: C_15  and  O_18
REMARK    6  A    between atoms: C_19  and  O_20
REMARK    7  A    between atoms: O_20  and  C_21
REMARK    8  A    between atoms: C_24  and  C_32
REMARK    9  A    between atoms: C_26  and  O_31
REMARK   10  A    between atoms: C_28  and  O_30
REMARK   11  A    between atoms: C_32  and  O_33
REMARK   12  A    between atoms: C_34  and  O_36
REMARK                            x       y       z     vdW  Elec       q    Type
REMARK                         _______ _______ _______ _____ _____    ______ ____
ROOT
ATOM      1  O   LIG A   1      -8.691   3.297 125.940  0.00  0.00    -0.283 OA
ATOM      2  C   LIG A   1      -7.585   3.005 126.373  0.00  0.00    +0.238 A 
ATOM      3  C   LIG A   1      -7.028   1.703 126.016  0.00  0.00    +0.109 A 
ATOM      4  C   LIG A   1      -7.821   0.713 125.423  0.00  0.00    +0.135 A 
ATOM      5  C   LIG A   1      -7.284  -0.538 125.145  0.00  0.00    +0.091 A 
ATOM      6  C   LIG A   1      -5.947  -0.776 125.450  0.00  0.00    +0.124 A 
ATOM      7  C   LIG A   1      -5.150   0.211 126.033  0.00  0.00    +0.092 A 
ATOM      8  C   LIG A   1      -5.701   1.457 126.327  0.00  0.00    +0.146 A 
ATOM      9  O   LIG A   1      -4.904   2.406 126.909  0.00  0.00    -0.451 OA
ATOM     10  C   LIG A   1      -5.499   3.533 127.486  0.00  0.00    +0.181 A 
ATOM     11  C   LIG A   1      -6.804   3.855 127.325  0.00  0.00    +0.214 A 
ENDROOT
BRANCH  10  12
ATOM     12  C   LIG A   1      -4.527   4.333 128.288  0.00  0.00    +0.025 A 
ATOM     13  C   LIG A   1      -3.731   5.342 127.711  0.00  0.00    +0.060 A 
ATOM     14  C   LIG A   1      -2.756   5.991 128.468  0.00  0.00    +0.159 A 
ATOM     15  C   LIG A   1      -2.553   5.649 129.801  0.00  0.00    +0.158 A 
ATOM     16  C   LIG A   1      -3.323   4.669 130.399  0.00  0.00    +0.050 A 
ATOM     17  C   LIG A   1      -4.304   4.013 129.644  0.00  0.00    +0.015 A 
BRANCH  14  18
ATOM     18  O   LIG A   1      -1.952   6.961 127.934  0.00  0.00    -0.503 OA
ATOM     19  H   LIG A   1      -1.142   6.536 127.604  0.00  0.00    +0.292 HD
ENDBRANCH  14  18
BRANCH  15  20
ATOM     20  O   LIG A   1      -1.577   6.269 130.524  0.00  0.00    -0.503 OA
ATOM     21  H   LIG A   1      -1.630   7.209 130.257  0.00  0.00    +0.292 HD
ENDBRANCH  15  20
ENDBRANCH  10  12
BRANCH   6  22
ATOM     22  O   LIG A   1      -5.375  -1.986 125.186  0.00  0.00    -0.506 OA
ATOM     23  H   LIG A   1      -5.602  -2.604 125.902  0.00  0.00    +0.292 HD
ENDBRANCH   6  22
BRANCH   4  24
ATOM     24  O   LIG A   1      -9.139   0.903 125.103  0.00  0.00    -0.506 OA
ATOM     25  H   LIG A   1      -9.416   1.775 125.464  0.00  0.00    +0.292 HD
ENDBRANCH   4  24
BRANCH  11  26
ATOM     26  O   LIG A   1      -7.406   4.898 128.021  0.00  0.00    -0.453 OA
BRANCH  26  27
ATOM     27  C   LIG A   1      -7.949   4.608 129.322  0.00  0.00    +0.340 C 
ATOM     28  O   LIG A   1      -9.314   4.168 129.157  0.00  0.00    -0.331 OA
ATOM     29  C   LIG A   1      -9.999   3.846 130.395  0.00  0.00    +0.179 C 
ATOM     30  C   LIG A   1      -9.163   4.078 131.666  0.00  0.00    +0.177 C 
ATOM     31  C   LIG A   1      -8.459   5.438 131.659  0.00  0.00    +0.180 C 
ATOM     32  C   LIG A   1      -7.969   5.846 130.260  0.00  0.00    +0.214 C 
BRANCH  31  33
ATOM     33  O   LIG A   1      -9.345   6.437 132.191  0.00  0.00    -0.386 OA
ATOM     34  H   LIG A   1      -9.560   6.163 133.105  0.00  0.00    +0.210 HD
ENDBRANCH  31  33
BRANCH  30  35
ATOM     35  O   LIG A   1      -9.919   3.921 132.864  0.00  0.00    -0.387 OA
ATOM     36  H   LIG A   1      -9.267   3.722 133.570  0.00  0.00    +0.210 HD
ENDBRANCH  30  35
BRANCH  32  37
ATOM     37  O   LIG A   1      -6.723   6.543 130.409  0.00  0.00    -0.383 OA
ATOM     38  H   LIG A   1      -6.326   6.297 131.264  0.00  0.00    +0.210 HD
ENDBRANCH  32  37
BRANCH  29  39
ATOM     39  C   LIG A   1     -11.326   4.618 130.401  0.00  0.00    +0.190 C 
BRANCH  39  40
ATOM     40  O   LIG A   1     -11.237   5.736 129.514  0.00  0.00    -0.392 OA
ATOM     41  H   LIG A   1     -10.416   6.204 129.760  0.00  0.00    +0.209 HD
ENDBRANCH  39  40
ENDBRANCH  29  39
ENDBRANCH  26  27
ENDBRANCH  11  26
TORSDOF 12
ENDMDL
