MODEL 1
REMARK VINA RESULT:      -7.9      0.000      0.000
REMARK  Name = NuBBE_991
REMARK  5 active torsions:
REMARK  status: ('A' for Active; 'I' for Inactive)
REMARK    1  A    between atoms: C_1  and  C_2
REMARK    2  A    between atoms: C_9  and  O_20
REMARK    3  A    between atoms: C_11  and  O_19
REMARK    4  A    between atoms: C_23  and  C_25
REMARK    5  A    between atoms: C_25  and  C_26
REMARK                            x       y       z     vdW  Elec       q    Type
REMARK                         _______ _______ _______ _____ _____    ______ ____
ROOT
ATOM      1  C   LIG A   1      -8.006   1.102 127.127  0.00  0.00    +0.012 C 
ATOM      2  C   LIG A   1      -7.455  -0.236 126.580  0.00  0.00    -0.019 C 
ATOM      3  C   LIG A   1      -8.179  -1.415 127.317  0.00  0.00    +0.006 C 
ATOM      4  C   LIG A   1      -7.325  -1.958 128.486  0.00  0.00    -0.003 C 
ATOM      5  C   LIG A   1      -8.086  -2.969 129.352  0.00  0.00    +0.004 C 
ATOM      6  C   LIG A   1      -7.252  -3.388 130.560  0.00  0.00    +0.004 C 
ATOM      7  C   LIG A   1      -5.883  -3.947 130.139  0.00  0.00    +0.001 C 
ATOM      8  C   LIG A   1      -5.078  -4.413 131.369  0.00  0.00    +0.041 C 
ATOM      9  C   LIG A   1      -4.200  -3.316 131.968  0.00  0.00    +0.174 C 
ATOM     10  C   LIG A   1      -3.512  -2.483 130.856  0.00  0.00    +0.194 C 
ATOM     11  C   LIG A   1      -4.564  -1.772 130.027  0.00  0.00    +0.077 C 
ATOM     12  C   LIG A   1      -5.086  -2.953 129.213  0.00  0.00    +0.005 C 
ATOM     13  C   LIG A   1      -5.975  -2.555 128.002  0.00  0.00    +0.001 C 
ATOM     14  C   LIG A   1      -5.316  -1.648 126.937  0.00  0.00    +0.005 C 
ATOM     15  C   LIG A   1      -5.928  -0.253 126.862  0.00  0.00    +0.008 C 
ATOM     16  C   LIG A   1      -3.740  -3.611 128.838  0.00  0.00    +0.171 C 
ATOM     17  O   LIG A   1      -2.834  -3.344 129.934  0.00  0.00    -0.346 OA
ATOM     18  C   LIG A   1      -8.535  -2.481 126.272  0.00  0.00    +0.079 C 
ATOM     19  C   LIG A   1      -8.164  -1.859 124.963  0.00  0.00    +0.137 C 
ATOM     20  C   LIG A   1      -7.870  -0.382 125.085  0.00  0.00    +0.061 C 
ATOM     21  O   LIG A   1      -8.184  -2.480 123.907  0.00  0.00    -0.297 OA
ENDROOT
BRANCH  10  22
ATOM     22  O   LIG A   1      -2.584  -1.590 131.438  0.00  0.00    -0.363 OA
ATOM     23  H   LIG A   1      -1.966  -1.372 130.721  0.00  0.00    +0.213 HD
ENDBRANCH  10  22
BRANCH   9  24
ATOM     24  O   LIG A   1      -3.230  -3.929 132.828  0.00  0.00    -0.387 OA
ATOM     25  H   LIG A   1      -2.760  -3.183 133.251  0.00  0.00    +0.210 HD
ENDBRANCH   9  24
BRANCH  20  26
ATOM     26  C   LIG A   1      -6.913   0.088 123.985  0.00  0.00    +0.008 C 
ATOM     27  C   LIG A   1      -7.235   1.466 123.431  0.00  0.00    +0.004 C 
ENDBRANCH  20  26
TORSDOF 3
ENDMDL
MODEL 2
REMARK VINA RESULT:      -7.8      2.157      6.575
REMARK  Name = NuBBE_991
REMARK  5 active torsions:
REMARK  status: ('A' for Active; 'I' for Inactive)
REMARK    1  A    between atoms: C_1  and  C_2
REMARK    2  A    between atoms: C_9  and  O_20
REMARK    3  A    between atoms: C_11  and  O_19
REMARK    4  A    between atoms: C_23  and  C_25
REMARK    5  A    between atoms: C_25  and  C_26
REMARK                            x       y       z     vdW  Elec       q    Type
REMARK                         _______ _______ _______ _____ _____    ______ ____
ROOT
ATOM      1  C   LIG A   1      -4.571  -4.362 130.368  0.00  0.00    +0.012 C 
ATOM      2  C   LIG A   1      -5.279  -2.990 130.272  0.00  0.00    -0.019 C 
ATOM      3  C   LIG A   1      -6.817  -3.230 130.090  0.00  0.00    +0.006 C 
ATOM      4  C   LIG A   1      -7.230  -3.141 128.603  0.00  0.00    -0.003 C 
ATOM      5  C   LIG A   1      -8.682  -3.571 128.366  0.00  0.00    +0.004 C 
ATOM      6  C   LIG A   1      -9.011  -3.583 126.875  0.00  0.00    +0.004 C 
ATOM      7  C   LIG A   1      -8.729  -2.221 126.221  0.00  0.00    +0.001 C 
ATOM      8  C   LIG A   1      -9.117  -2.239 124.728  0.00  0.00    +0.041 C 
ATOM      9  C   LIG A   1      -7.974  -2.670 123.811  0.00  0.00    +0.174 C 
ATOM     10  C   LIG A   1      -6.631  -2.038 124.259  0.00  0.00    +0.194 C 
ATOM     11  C   LIG A   1      -6.269  -2.540 125.644  0.00  0.00    +0.077 C 
ATOM     12  C   LIG A   1      -7.256  -1.725 126.475  0.00  0.00    +0.005 C 
ATOM     13  C   LIG A   1      -6.969  -1.732 128.002  0.00  0.00    +0.001 C 
ATOM     14  C   LIG A   1      -5.591  -1.186 128.443  0.00  0.00    +0.005 C 
ATOM     15  C   LIG A   1      -4.679  -2.250 129.046  0.00  0.00    +0.008 C 
ATOM     16  C   LIG A   1      -7.081  -0.351 125.791  0.00  0.00    +0.171 C 
ATOM     17  O   LIG A   1      -6.769  -0.620 124.405  0.00  0.00    -0.346 OA
ATOM     18  C   LIG A   1      -7.564  -2.239 130.993  0.00  0.00    +0.079 C 
ATOM     19  C   LIG A   1      -6.483  -1.563 131.777  0.00  0.00    +0.137 C 
ATOM     20  C   LIG A   1      -5.147  -2.254 131.639  0.00  0.00    +0.061 C 
ATOM     21  O   LIG A   1      -6.699  -0.605 132.509  0.00  0.00    -0.297 OA
ENDROOT
BRANCH  10  22
ATOM     22  O   LIG A   1      -5.631  -2.320 123.302  0.00  0.00    -0.363 OA
ATOM     23  H   LIG A   1      -4.799  -2.322 123.804  0.00  0.00    +0.213 HD
ENDBRANCH  10  22
BRANCH   9  24
ATOM     24  O   LIG A   1      -8.301  -2.287 122.468  0.00  0.00    -0.387 OA
ATOM     25  H   LIG A   1      -7.930  -1.387 122.364  0.00  0.00    +0.210 HD
ENDBRANCH   9  24
BRANCH  20  26
ATOM     26  C   LIG A   1      -3.989  -1.277 131.864  0.00  0.00    +0.008 C 
ATOM     27  C   LIG A   1      -2.950  -1.766 132.861  0.00  0.00    +0.004 C 
ENDBRANCH  20  26
TORSDOF 3
ENDMDL
MODEL 3
REMARK VINA RESULT:      -7.8      1.961      6.923
REMARK  Name = NuBBE_991
REMARK  5 active torsions:
REMARK  status: ('A' for Active; 'I' for Inactive)
REMARK    1  A    between atoms: C_1  and  C_2
REMARK    2  A    between atoms: C_9  and  O_20
REMARK    3  A    between atoms: C_11  and  O_19
REMARK    4  A    between atoms: C_23  and  C_25
REMARK    5  A    between atoms: C_25  and  C_26
REMARK                            x       y       z     vdW  Elec       q    Type
REMARK                         _______ _______ _______ _____ _____    ______ ____
ROOT
ATOM      1  C   LIG A   1      -5.875  -0.570 131.405  0.00  0.00    +0.012 C 
ATOM      2  C   LIG A   1      -6.316  -1.958 130.885  0.00  0.00    -0.019 C 
ATOM      3  C   LIG A   1      -5.345  -2.394 129.733  0.00  0.00    +0.006 C 
ATOM      4  C   LIG A   1      -5.946  -2.084 128.343  0.00  0.00    -0.003 C 
ATOM      5  C   LIG A   1      -4.944  -2.307 127.205  0.00  0.00    +0.004 C 
ATOM      6  C   LIG A   1      -5.535  -1.876 125.864  0.00  0.00    +0.004 C 
ATOM      7  C   LIG A   1      -6.864  -2.593 125.575  0.00  0.00    +0.001 C 
ATOM      8  C   LIG A   1      -7.419  -2.184 124.194  0.00  0.00    +0.041 C 
ATOM      9  C   LIG A   1      -8.341  -0.968 124.249  0.00  0.00    +0.174 C 
ATOM     10  C   LIG A   1      -9.283  -1.037 125.478  0.00  0.00    +0.194 C 
ATOM     11  C   LIG A   1      -8.462  -0.999 126.754  0.00  0.00    +0.077 C 
ATOM     12  C   LIG A   1      -7.908  -2.421 126.741  0.00  0.00    +0.005 C 
ATOM     13  C   LIG A   1      -7.260  -2.870 128.080  0.00  0.00    +0.001 C 
ATOM     14  C   LIG A   1      -8.177  -2.851 129.325  0.00  0.00    +0.005 C 
ATOM     15  C   LIG A   1      -7.771  -1.812 130.365  0.00  0.00    +0.008 C 
ATOM     16  C   LIG A   1      -9.195  -3.185 126.359  0.00  0.00    +0.171 C 
ATOM     17  O   LIG A   1      -9.964  -2.297 125.515  0.00  0.00    -0.346 OA
ATOM     18  C   LIG A   1      -5.002  -3.876 129.936  0.00  0.00    +0.079 C 
ATOM     19  C   LIG A   1      -5.634  -4.229 131.246  0.00  0.00    +0.137 C 
ATOM     20  C   LIG A   1      -6.100  -3.014 132.011  0.00  0.00    +0.061 C 
ATOM     21  O   LIG A   1      -5.681  -5.378 131.667  0.00  0.00    -0.297 OA
ENDROOT
BRANCH  10  22
ATOM     22  O   LIG A   1     -10.229   0.010 125.411  0.00  0.00    -0.363 OA
ATOM     23  H   LIG A   1      -9.759   0.792 125.744  0.00  0.00    +0.213 HD
ENDBRANCH  10  22
BRANCH   9  24
ATOM     24  O   LIG A   1      -9.089  -0.910 123.028  0.00  0.00    -0.387 OA
ATOM     25  H   LIG A   1      -9.273   0.041 122.889  0.00  0.00    +0.210 HD
ENDBRANCH   9  24
BRANCH  20  26
ATOM     26  C   LIG A   1      -7.257  -3.359 132.955  0.00  0.00    +0.008 C 
ATOM     27  C   LIG A   1      -7.254  -2.569 134.253  0.00  0.00    +0.004 C 
ENDBRANCH  20  26
TORSDOF 3
ENDMDL
MODEL 4
REMARK VINA RESULT:      -7.4      2.961      4.595
REMARK  Name = NuBBE_991
REMARK  5 active torsions:
REMARK  status: ('A' for Active; 'I' for Inactive)
REMARK    1  A    between atoms: C_1  and  C_2
REMARK    2  A    between atoms: C_9  and  O_20
REMARK    3  A    between atoms: C_11  and  O_19
REMARK    4  A    between atoms: C_23  and  C_25
REMARK    5  A    between atoms: C_25  and  C_26
REMARK                            x       y       z     vdW  Elec       q    Type
REMARK                         _______ _______ _______ _____ _____    ______ ____
ROOT
ATOM      1  C   LIG A   1      -8.774  -3.705 128.286  0.00  0.00    +0.012 C 
ATOM      2  C   LIG A   1      -7.698  -2.723 128.807  0.00  0.00    -0.019 C 
ATOM      3  C   LIG A   1      -6.433  -3.546 129.235  0.00  0.00    +0.006 C 
ATOM      4  C   LIG A   1      -6.418  -3.803 130.759  0.00  0.00    -0.003 C 
ATOM      5  C   LIG A   1      -5.310  -4.774 131.182  0.00  0.00    +0.004 C 
ATOM      6  C   LIG A   1      -5.404  -5.094 132.672  0.00  0.00    +0.004 C 
ATOM      7  C   LIG A   1      -5.373  -3.818 133.529  0.00  0.00    +0.001 C 
ATOM      8  C   LIG A   1      -5.416  -4.165 135.032  0.00  0.00    +0.041 C 
ATOM      9  C   LIG A   1      -6.835  -4.244 135.594  0.00  0.00    +0.174 C 
ATOM     10  C   LIG A   1      -7.722  -3.104 135.031  0.00  0.00    +0.194 C 
ATOM     11  C   LIG A   1      -7.857  -3.256 133.528  0.00  0.00    +0.077 C 
ATOM     12  C   LIG A   1      -6.473  -2.776 133.099  0.00  0.00    +0.005 C 
ATOM     13  C   LIG A   1      -6.337  -2.485 131.578  0.00  0.00    +0.001 C 
ATOM     14  C   LIG A   1      -7.287  -1.412 130.999  0.00  0.00    +0.005 C 
ATOM     15  C   LIG A   1      -8.312  -1.970 130.017  0.00  0.00    +0.008 C 
ATOM     16  C   LIG A   1      -6.349  -1.534 134.008  0.00  0.00    +0.171 C 
ATOM     17  O   LIG A   1      -7.083  -1.835 135.217  0.00  0.00    -0.346 OA
ATOM     18  C   LIG A   1      -5.190  -2.804 128.726  0.00  0.00    +0.079 C 
ATOM     19  C   LIG A   1      -5.737  -1.680 127.904  0.00  0.00    +0.137 C 
ATOM     20  C   LIG A   1      -7.213  -1.829 127.626  0.00  0.00    +0.061 C 
ATOM     21  O   LIG A   1      -5.028  -0.791 127.447  0.00  0.00    -0.297 OA
ENDROOT
BRANCH  10  22
ATOM     22  O   LIG A   1      -8.971  -3.105 135.690  0.00  0.00    -0.363 OA
ATOM     23  H   LIG A   1      -9.416  -2.297 135.383  0.00  0.00    +0.213 HD
ENDBRANCH  10  22
BRANCH   9  24
ATOM     24  O   LIG A   1      -6.761  -4.182 137.024  0.00  0.00    -0.387 OA
ATOM     25  H   LIG A   1      -7.010  -3.263 137.250  0.00  0.00    +0.210 HD
ENDBRANCH   9  24
BRANCH  20  26
ATOM     26  C   LIG A   1      -7.876  -0.468 127.388  0.00  0.00    +0.008 C 
ATOM     27  C   LIG A   1      -8.743  -0.412 126.140  0.00  0.00    +0.004 C 
ENDBRANCH  20  26
TORSDOF 3
ENDMDL
MODEL 5
REMARK VINA RESULT:      -7.4      3.768      5.476
REMARK  Name = NuBBE_991
REMARK  5 active torsions:
REMARK  status: ('A' for Active; 'I' for Inactive)
REMARK    1  A    between atoms: C_1  and  C_2
REMARK    2  A    between atoms: C_9  and  O_20
REMARK    3  A    between atoms: C_11  and  O_19
REMARK    4  A    between atoms: C_23  and  C_25
REMARK    5  A    between atoms: C_25  and  C_26
REMARK                            x       y       z     vdW  Elec       q    Type
REMARK                         _______ _______ _______ _____ _____    ______ ____
ROOT
ATOM      1  C   LIG A   1      -8.913  -3.399 126.764  0.00  0.00    +0.012 C 
ATOM      2  C   LIG A   1      -8.101  -2.335 125.989  0.00  0.00    -0.019 C 
ATOM      3  C   LIG A   1      -6.741  -2.100 126.734  0.00  0.00    +0.006 C 
ATOM      4  C   LIG A   1      -6.809  -0.857 127.651  0.00  0.00    -0.003 C 
ATOM      5  C   LIG A   1      -5.573  -0.717 128.546  0.00  0.00    +0.004 C 
ATOM      6  C   LIG A   1      -5.732   0.450 129.518  0.00  0.00    +0.004 C 
ATOM      7  C   LIG A   1      -6.028   1.766 128.780  0.00  0.00    +0.001 C 
ATOM      8  C   LIG A   1      -6.133   2.941 129.774  0.00  0.00    +0.041 C 
ATOM      9  C   LIG A   1      -7.551   3.169 130.292  0.00  0.00    +0.174 C 
ATOM     10  C   LIG A   1      -8.593   3.015 129.154  0.00  0.00    +0.194 C 
ATOM     11  C   LIG A   1      -8.563   1.594 128.624  0.00  0.00    +0.077 C 
ATOM     12  C   LIG A   1      -7.269   1.651 127.818  0.00  0.00    +0.005 C 
ATOM     13  C   LIG A   1      -7.061   0.451 126.852  0.00  0.00    +0.001 C 
ATOM     14  C   LIG A   1      -8.149   0.243 125.773  0.00  0.00    +0.005 C 
ATOM     15  C   LIG A   1      -8.954  -1.039 125.960  0.00  0.00    +0.008 C 
ATOM     16  C   LIG A   1      -7.471   3.014 127.120  0.00  0.00    +0.171 C 
ATOM     17  O   LIG A   1      -8.235   3.834 128.035  0.00  0.00    -0.346 OA
ATOM     18  C   LIG A   1      -5.628  -2.024 125.681  0.00  0.00    +0.079 C 
ATOM     19  C   LIG A   1      -6.312  -2.359 124.392  0.00  0.00    +0.137 C 
ATOM     20  C   LIG A   1      -7.701  -2.915 124.599  0.00  0.00    +0.061 C 
ATOM     21  O   LIG A   1      -5.755  -2.262 123.305  0.00  0.00    -0.297 OA
ENDROOT
BRANCH  10  22
ATOM     22  O   LIG A   1      -9.871   3.392 129.625  0.00  0.00    -0.363 OA
ATOM     23  H   LIG A   1     -10.489   3.083 128.943  0.00  0.00    +0.213 HD
ENDBRANCH  10  22
BRANCH   9  24
ATOM     24  O   LIG A   1      -7.616   4.476 130.877  0.00  0.00    -0.387 OA
ATOM     25  H   LIG A   1      -6.692   4.694 131.113  0.00  0.00    +0.210 HD
ENDBRANCH   9  24
BRANCH  20  26
ATOM     26  C   LIG A   1      -8.594  -2.649 123.383  0.00  0.00    +0.008 C 
ATOM     27  C   LIG A   1      -9.820  -3.545 123.308  0.00  0.00    +0.004 C 
ENDBRANCH  20  26
TORSDOF 3
ENDMDL
MODEL 6
REMARK VINA RESULT:      -7.4      3.156      7.013
REMARK  Name = NuBBE_991
REMARK  5 active torsions:
REMARK  status: ('A' for Active; 'I' for Inactive)
REMARK    1  A    between atoms: C_1  and  C_2
REMARK    2  A    between atoms: C_9  and  O_20
REMARK    3  A    between atoms: C_11  and  O_19
REMARK    4  A    between atoms: C_23  and  C_25
REMARK    5  A    between atoms: C_25  and  C_26
REMARK                            x       y       z     vdW  Elec       q    Type
REMARK                         _______ _______ _______ _____ _____    ______ ____
ROOT
ATOM      1  C   LIG A   1      -4.958  -2.612 128.217  0.00  0.00    +0.012 C 
ATOM      2  C   LIG A   1      -6.444  -2.263 127.966  0.00  0.00    -0.019 C 
ATOM      3  C   LIG A   1      -6.782  -2.559 126.464  0.00  0.00    +0.006 C 
ATOM      4  C   LIG A   1      -6.710  -1.274 125.607  0.00  0.00    -0.003 C 
ATOM      5  C   LIG A   1      -6.833  -1.560 124.106  0.00  0.00    +0.004 C 
ATOM      6  C   LIG A   1      -6.637  -0.284 123.290  0.00  0.00    +0.004 C 
ATOM      7  C   LIG A   1      -7.615   0.821 123.721  0.00  0.00    +0.001 C 
ATOM      8  C   LIG A   1      -7.437   2.082 122.850  0.00  0.00    +0.041 C 
ATOM      9  C   LIG A   1      -6.417   3.069 123.417  0.00  0.00    +0.174 C 
ATOM     10  C   LIG A   1      -6.561   3.197 124.956  0.00  0.00    +0.194 C 
ATOM     11  C   LIG A   1      -6.261   1.862 125.610  0.00  0.00    +0.077 C 
ATOM     12  C   LIG A   1      -7.548   1.116 125.266  0.00  0.00    +0.005 C 
ATOM     13  C   LIG A   1      -7.751  -0.210 126.051  0.00  0.00    +0.001 C 
ATOM     14  C   LIG A   1      -7.802  -0.093 127.592  0.00  0.00    +0.005 C 
ATOM     15  C   LIG A   1      -6.621  -0.755 128.294  0.00  0.00    +0.008 C 
ATOM     16  C   LIG A   1      -8.572   2.224 125.595  0.00  0.00    +0.171 C 
ATOM     17  O   LIG A   1      -7.920   3.484 125.308  0.00  0.00    -0.346 OA
ATOM     18  C   LIG A   1      -8.149  -3.253 126.412  0.00  0.00    +0.079 C 
ATOM     19  C   LIG A   1      -8.504  -3.483 127.848  0.00  0.00    +0.137 C 
ATOM     20  C   LIG A   1      -7.341  -3.244 128.780  0.00  0.00    +0.061 C 
ATOM     21  O   LIG A   1      -9.603  -3.899 128.198  0.00  0.00    -0.297 OA
ENDROOT
BRANCH  10  22
ATOM     22  O   LIG A   1      -5.723   4.232 125.426  0.00  0.00    -0.363 OA
ATOM     23  H   LIG A   1      -6.121   5.050 125.085  0.00  0.00    +0.213 HD
ENDBRANCH  10  22
BRANCH   9  24
ATOM     24  O   LIG A   1      -6.606   4.336 122.774  0.00  0.00    -0.387 OA
ATOM     25  H   LIG A   1      -6.554   4.996 123.495  0.00  0.00    +0.210 HD
ENDBRANCH   9  24
BRANCH  20  26
ATOM     26  C   LIG A   1      -7.820  -2.846 130.179  0.00  0.00    +0.008 C 
ATOM     27  C   LIG A   1      -6.860  -3.229 131.294  0.00  0.00    +0.004 C 
ENDBRANCH  20  26
TORSDOF 3
ENDMDL
MODEL 7
REMARK VINA RESULT:      -7.3      4.508      8.310
REMARK  Name = NuBBE_991
REMARK  5 active torsions:
REMARK  status: ('A' for Active; 'I' for Inactive)
REMARK    1  A    between atoms: C_1  and  C_2
REMARK    2  A    between atoms: C_9  and  O_20
REMARK    3  A    between atoms: C_11  and  O_19
REMARK    4  A    between atoms: C_23  and  C_25
REMARK    5  A    between atoms: C_25  and  C_26
REMARK                            x       y       z     vdW  Elec       q    Type
REMARK                         _______ _______ _______ _____ _____    ______ ____
ROOT
ATOM      1  C   LIG A   1      -1.832   3.433 126.276  0.00  0.00    +0.012 C 
ATOM      2  C   LIG A   1      -3.112   3.652 127.117  0.00  0.00    -0.019 C 
ATOM      3  C   LIG A   1      -3.736   2.254 127.455  0.00  0.00    +0.006 C 
ATOM      4  C   LIG A   1      -4.876   1.895 126.475  0.00  0.00    -0.003 C 
ATOM      5  C   LIG A   1      -5.370   0.454 126.647  0.00  0.00    +0.004 C 
ATOM      6  C   LIG A   1      -6.409   0.102 125.585  0.00  0.00    +0.004 C 
ATOM      7  C   LIG A   1      -7.586   1.090 125.595  0.00  0.00    +0.001 C 
ATOM      8  C   LIG A   1      -8.650   0.687 124.552  0.00  0.00    +0.041 C 
ATOM      9  C   LIG A   1      -8.419   1.317 123.179  0.00  0.00    +0.174 C 
ATOM     10  C   LIG A   1      -7.978   2.798 123.312  0.00  0.00    +0.194 C 
ATOM     11  C   LIG A   1      -6.647   2.872 124.037  0.00  0.00    +0.077 C 
ATOM     12  C   LIG A   1      -7.118   2.588 125.460  0.00  0.00    +0.005 C 
ATOM     13  C   LIG A   1      -6.062   2.895 126.559  0.00  0.00    +0.001 C 
ATOM     14  C   LIG A   1      -5.554   4.354 126.631  0.00  0.00    +0.005 C 
ATOM     15  C   LIG A   1      -4.083   4.506 126.259  0.00  0.00    +0.008 C 
ATOM     16  C   LIG A   1      -8.368   3.494 125.494  0.00  0.00    +0.171 C 
ATOM     17  O   LIG A   1      -8.892   3.519 124.146  0.00  0.00    -0.346 OA
ATOM     18  C   LIG A   1      -4.174   2.271 128.925  0.00  0.00    +0.079 C 
ATOM     19  C   LIG A   1      -3.675   3.582 129.447  0.00  0.00    +0.137 C 
ATOM     20  C   LIG A   1      -2.714   4.257 128.497  0.00  0.00    +0.061 C 
ATOM     21  O   LIG A   1      -3.963   4.002 130.561  0.00  0.00    -0.297 OA
ENDROOT
BRANCH  10  22
ATOM     22  O   LIG A   1      -7.933   3.397 122.033  0.00  0.00    -0.363 OA
ATOM     23  H   LIG A   1      -7.174   2.981 121.590  0.00  0.00    +0.213 HD
ENDBRANCH  10  22
BRANCH   9  24
ATOM     24  O   LIG A   1      -9.629   1.206 122.419  0.00  0.00    -0.387 OA
ATOM     25  H   LIG A   1      -9.818   0.246 122.385  0.00  0.00    +0.210 HD
ENDBRANCH   9  24
BRANCH  20  26
ATOM     26  C   LIG A   1      -2.720   5.778 128.685  0.00  0.00    +0.008 C 
ATOM     27  C   LIG A   1      -1.757   6.273 129.752  0.00  0.00    +0.004 C 
ENDBRANCH  20  26
TORSDOF 3
ENDMDL
MODEL 8
REMARK VINA RESULT:      -7.3      7.464      9.241
REMARK  Name = NuBBE_991
REMARK  5 active torsions:
REMARK  status: ('A' for Active; 'I' for Inactive)
REMARK    1  A    between atoms: C_1  and  C_2
REMARK    2  A    between atoms: C_9  and  O_20
REMARK    3  A    between atoms: C_11  and  O_19
REMARK    4  A    between atoms: C_23  and  C_25
REMARK    5  A    between atoms: C_25  and  C_26
REMARK                            x       y       z     vdW  Elec       q    Type
REMARK                         _______ _______ _______ _____ _____    ______ ____
ROOT
ATOM      1  C   LIG A   1      -8.800   4.233 132.772  0.00  0.00    +0.012 C 
ATOM      2  C   LIG A   1      -8.350   5.082 131.559  0.00  0.00    -0.019 C 
ATOM      3  C   LIG A   1      -7.332   4.245 130.711  0.00  0.00    +0.006 C 
ATOM      4  C   LIG A   1      -5.871   4.617 131.055  0.00  0.00    -0.003 C 
ATOM      5  C   LIG A   1      -4.853   3.679 130.397  0.00  0.00    +0.004 C 
ATOM      6  C   LIG A   1      -3.434   4.006 130.856  0.00  0.00    +0.004 C 
ATOM      7  C   LIG A   1      -3.077   5.477 130.591  0.00  0.00    +0.001 C 
ATOM      8  C   LIG A   1      -1.622   5.774 131.013  0.00  0.00    +0.041 C 
ATOM      9  C   LIG A   1      -1.496   6.233 132.464  0.00  0.00    +0.174 C 
ATOM     10  C   LIG A   1      -2.633   7.220 132.838  0.00  0.00    +0.194 C 
ATOM     11  C   LIG A   1      -3.973   6.516 132.736  0.00  0.00    +0.077 C 
ATOM     12  C   LIG A   1      -4.123   6.474 131.218  0.00  0.00    +0.005 C 
ATOM     13  C   LIG A   1      -5.548   6.100 130.723  0.00  0.00    +0.001 C 
ATOM     14  C   LIG A   1      -6.695   7.034 131.172  0.00  0.00    +0.005 C 
ATOM     15  C   LIG A   1      -7.686   6.368 132.122  0.00  0.00    +0.008 C 
ATOM     16  C   LIG A   1      -3.681   7.916 130.885  0.00  0.00    +0.171 C 
ATOM     17  O   LIG A   1      -2.703   8.286 131.885  0.00  0.00    -0.346 OA
ATOM     18  C   LIG A   1      -7.679   4.435 129.228  0.00  0.00    +0.079 C 
ATOM     19  C   LIG A   1      -8.947   5.229 129.242  0.00  0.00    +0.137 C 
ATOM     20  C   LIG A   1      -9.570   5.306 130.616  0.00  0.00    +0.061 C 
ATOM     21  O   LIG A   1      -9.450   5.688 128.223  0.00  0.00    -0.297 OA
ENDROOT
BRANCH  10  22
ATOM     22  O   LIG A   1      -2.396   7.751 134.126  0.00  0.00    -0.363 OA
ATOM     23  H   LIG A   1      -3.225   7.606 134.611  0.00  0.00    +0.213 HD
ENDBRANCH  10  22
BRANCH   9  24
ATOM     24  O   LIG A   1      -0.210   6.840 132.638  0.00  0.00    -0.387 OA
ATOM     25  H   LIG A   1      -0.228   7.219 133.540  0.00  0.00    +0.210 HD
ENDBRANCH   9  24
BRANCH  20  26
ATOM     26  C   LIG A   1     -10.424   6.569 130.771  0.00  0.00    +0.008 C 
ATOM     27  C   LIG A   1     -11.744   6.339 131.489  0.00  0.00    +0.004 C 
ENDBRANCH  20  26
TORSDOF 3
ENDMDL
MODEL 9
REMARK VINA RESULT:      -7.2      2.410      3.358
REMARK  Name = NuBBE_991
REMARK  5 active torsions:
REMARK  status: ('A' for Active; 'I' for Inactive)
REMARK    1  A    between atoms: C_1  and  C_2
REMARK    2  A    between atoms: C_9  and  O_20
REMARK    3  A    between atoms: C_11  and  O_19
REMARK    4  A    between atoms: C_23  and  C_25
REMARK    5  A    between atoms: C_25  and  C_26
REMARK                            x       y       z     vdW  Elec       q    Type
REMARK                         _______ _______ _______ _____ _____    ______ ____
ROOT
ATOM      1  C   LIG A   1      -5.197  -0.293 125.466  0.00  0.00    +0.012 C 
ATOM      2  C   LIG A   1      -6.387  -1.150 125.960  0.00  0.00    -0.019 C 
ATOM      3  C   LIG A   1      -7.486  -0.193 126.539  0.00  0.00    +0.006 C 
ATOM      4  C   LIG A   1      -7.389  -0.091 128.079  0.00  0.00    -0.003 C 
ATOM      5  C   LIG A   1      -8.311   0.988 128.658  0.00  0.00    +0.004 C 
ATOM      6  C   LIG A   1      -8.097   1.139 130.162  0.00  0.00    +0.004 C 
ATOM      7  C   LIG A   1      -8.285  -0.197 130.899  0.00  0.00    +0.001 C 
ATOM      8  C   LIG A   1      -8.117  -0.013 132.421  0.00  0.00    +0.041 C 
ATOM      9  C   LIG A   1      -6.678  -0.205 132.898  0.00  0.00    +0.174 C 
ATOM     10  C   LIG A   1      -6.007  -1.404 132.179  0.00  0.00    +0.194 C 
ATOM     11  C   LIG A   1      -5.922  -1.123 130.691  0.00  0.00    +0.077 C 
ATOM     12  C   LIG A   1      -7.382  -1.344 130.307  0.00  0.00    +0.005 C 
ATOM     13  C   LIG A   1      -7.634  -1.457 128.777  0.00  0.00    +0.001 C 
ATOM     14  C   LIG A   1      -6.892  -2.598 128.043  0.00  0.00    +0.005 C 
ATOM     15  C   LIG A   1      -5.840  -2.104 127.055  0.00  0.00    +0.008 C 
ATOM     16  C   LIG A   1      -7.655  -2.639 131.104  0.00  0.00    +0.171 C 
ATOM     17  O   LIG A   1      -6.826  -2.574 132.287  0.00  0.00    -0.346 OA
ATOM     18  C   LIG A   1      -8.853  -0.685 126.044  0.00  0.00    +0.079 C 
ATOM     19  C   LIG A   1      -8.527  -1.790 125.089  0.00  0.00    +0.137 C 
ATOM     20  C   LIG A   1      -7.060  -1.838 124.734  0.00  0.00    +0.061 C 
ATOM     21  O   LIG A   1      -9.386  -2.512 124.598  0.00  0.00    -0.297 OA
ENDROOT
BRANCH  10  22
ATOM     22  O   LIG A   1      -4.743  -1.657 132.756  0.00  0.00    -0.363 OA
ATOM     23  H   LIG A   1      -4.109  -1.201 132.178  0.00  0.00    +0.213 HD
ENDBRANCH  10  22
BRANCH   9  24
ATOM     24  O   LIG A   1      -6.693  -0.398 134.318  0.00  0.00    -0.387 OA
ATOM     25  H   LIG A   1      -6.410  -1.326 134.450  0.00  0.00    +0.210 HD
ENDBRANCH   9  24
BRANCH  20  26
ATOM     26  C   LIG A   1      -6.630  -3.252 124.331  0.00  0.00    +0.008 C 
ATOM     27  C   LIG A   1      -5.293  -3.310 123.610  0.00  0.00    +0.004 C 
ENDBRANCH  20  26
TORSDOF 3
ENDMDL
