MODEL 1
REMARK VINA RESULT:      -4.4      0.000      0.000
REMARK  Name = NuBBE_1382
REMARK  8 active torsions:
REMARK  status: ('A' for Active; 'I' for Inactive)
REMARK    1  A    between atoms: C_1  and  C_2
REMARK    2  A    between atoms: C_2  and  C_3
REMARK    3  A    between atoms: C_3  and  C_4
REMARK    4  A    between atoms: C_4  and  C_5
REMARK    5  A    between atoms: C_5  and  C_6
REMARK    6  A    between atoms: C_6  and  C_7
REMARK    7  A    between atoms: C_7  and  C_8
REMARK    8  A    between atoms: C_8  and  C_9
REMARK                            x       y       z     vdW  Elec       q    Type
REMARK                         _______ _______ _______ _____ _____    ______ ____
ROOT
ATOM      1  C   LIG A   1     -12.900   6.587 129.534  0.00  0.00    +0.000 C 
ENDROOT
BRANCH   1   2
ATOM      2  C   LIG A   1     -12.768   7.258 130.902  0.00  0.00    -0.000 C 
BRANCH   2   3
ATOM      3  C   LIG A   1     -11.630   6.640 131.717  0.00  0.00    -0.000 C 
BRANCH   3   5
ATOM      4  C   LIG A   1      -9.134   6.542 131.383  0.00  0.00    +0.004 C 
ATOM      5  C   LIG A   1     -10.492   6.168 130.813  0.00  0.00    -0.003 C 
ENDBRANCH   3   5
ENDBRANCH   2   3
ENDBRANCH   1   2
BRANCH   1   6
ATOM      6  C   LIG A   1     -13.082   7.619 128.420  0.00  0.00    +0.000 C 
BRANCH   6   7
ATOM      7  C   LIG A   1     -12.077   8.764 128.549  0.00  0.00    +0.007 C 
BRANCH   7   8
ATOM      8  C   LIG A   1     -10.734   8.395 127.928  0.00  0.00    +0.071 C 
BRANCH   8   9
ATOM      9  C   LIG A   1     -10.936   7.704 126.605  0.00  0.00    +0.223 C 
ATOM     10  O   LIG A   1     -10.367   6.665 126.295  0.00  0.00    -0.301 OA
ENDBRANCH   8   9
ENDBRANCH   7   8
ENDBRANCH   6   7
ENDBRANCH   1   6
TORSDOF 7
ENDMDL
MODEL 2
REMARK VINA RESULT:      -4.4     11.847     12.736
REMARK  Name = NuBBE_1382
REMARK  8 active torsions:
REMARK  status: ('A' for Active; 'I' for Inactive)
REMARK    1  A    between atoms: C_1  and  C_2
REMARK    2  A    between atoms: C_2  and  C_3
REMARK    3  A    between atoms: C_3  and  C_4
REMARK    4  A    between atoms: C_4  and  C_5
REMARK    5  A    between atoms: C_5  and  C_6
REMARK    6  A    between atoms: C_6  and  C_7
REMARK    7  A    between atoms: C_7  and  C_8
REMARK    8  A    between atoms: C_8  and  C_9
REMARK                            x       y       z     vdW  Elec       q    Type
REMARK                         _______ _______ _______ _____ _____    ______ ____
ROOT
ATOM      1  C   LIG A   1      -7.805  -1.400 124.014  0.00  0.00    +0.000 C 
ENDROOT
BRANCH   1   2
ATOM      2  C   LIG A   1      -8.393  -2.652 123.360  0.00  0.00    -0.000 C 
BRANCH   2   3
ATOM      3  C   LIG A   1      -9.239  -3.454 124.351  0.00  0.00    -0.000 C 
BRANCH   3   5
ATOM      4  C   LIG A   1      -8.858  -3.626 126.836  0.00  0.00    +0.004 C 
ATOM      5  C   LIG A   1      -9.340  -2.740 125.698  0.00  0.00    -0.003 C 
ENDBRANCH   3   5
ENDBRANCH   2   3
ENDBRANCH   1   2
BRANCH   1   6
ATOM      6  C   LIG A   1      -6.280  -1.374 123.902  0.00  0.00    +0.000 C 
BRANCH   6   7
ATOM      7  C   LIG A   1      -5.659  -2.677 124.405  0.00  0.00    +0.007 C 
BRANCH   7   8
ATOM      8  C   LIG A   1      -4.678  -3.252 123.390  0.00  0.00    +0.071 C 
BRANCH   8   9
ATOM      9  C   LIG A   1      -4.386  -4.697 123.696  0.00  0.00    +0.223 C 
ATOM     10  O   LIG A   1      -4.098  -5.522 122.838  0.00  0.00    -0.301 OA
ENDBRANCH   8   9
ENDBRANCH   7   8
ENDBRANCH   6   7
ENDBRANCH   1   6
TORSDOF 7
ENDMDL
MODEL 3
REMARK VINA RESULT:      -4.3      2.255      4.257
REMARK  Name = NuBBE_1382
REMARK  8 active torsions:
REMARK  status: ('A' for Active; 'I' for Inactive)
REMARK    1  A    between atoms: C_1  and  C_2
REMARK    2  A    between atoms: C_2  and  C_3
REMARK    3  A    between atoms: C_3  and  C_4
REMARK    4  A    between atoms: C_4  and  C_5
REMARK    5  A    between atoms: C_5  and  C_6
REMARK    6  A    between atoms: C_6  and  C_7
REMARK    7  A    between atoms: C_7  and  C_8
REMARK    8  A    between atoms: C_8  and  C_9
REMARK                            x       y       z     vdW  Elec       q    Type
REMARK                         _______ _______ _______ _____ _____    ______ ____
ROOT
ATOM      1  C   LIG A   1     -12.656   8.614 129.883  0.00  0.00    +0.000 C 
ENDROOT
BRANCH   1   2
ATOM      2  C   LIG A   1     -13.160   8.666 128.440  0.00  0.00    -0.000 C 
BRANCH   2   3
ATOM      3  C   LIG A   1     -13.224   7.268 127.821  0.00  0.00    -0.000 C 
BRANCH   3   5
ATOM      4  C   LIG A   1     -10.992   7.658 126.718  0.00  0.00    +0.004 C 
ATOM      5  C   LIG A   1     -12.428   7.201 126.519  0.00  0.00    -0.003 C 
ENDBRANCH   3   5
ENDBRANCH   2   3
ENDBRANCH   1   2
BRANCH   1   6
ATOM      6  C   LIG A   1     -12.975   7.270 130.539  0.00  0.00    +0.000 C 
BRANCH   6   7
ATOM      7  C   LIG A   1     -11.841   6.812 131.457  0.00  0.00    +0.007 C 
BRANCH   7   8
ATOM      8  C   LIG A   1     -10.528   6.683 130.694  0.00  0.00    +0.071 C 
BRANCH   8   9
ATOM      9  C   LIG A   1      -9.397   6.365 131.637  0.00  0.00    +0.223 C 
ATOM     10  O   LIG A   1      -9.519   6.354 132.855  0.00  0.00    -0.301 OA
ENDBRANCH   8   9
ENDBRANCH   7   8
ENDBRANCH   6   7
ENDBRANCH   1   6
TORSDOF 7
ENDMDL
MODEL 4
REMARK VINA RESULT:      -4.3     11.651     12.665
REMARK  Name = NuBBE_1382
REMARK  8 active torsions:
REMARK  status: ('A' for Active; 'I' for Inactive)
REMARK    1  A    between atoms: C_1  and  C_2
REMARK    2  A    between atoms: C_2  and  C_3
REMARK    3  A    between atoms: C_3  and  C_4
REMARK    4  A    between atoms: C_4  and  C_5
REMARK    5  A    between atoms: C_5  and  C_6
REMARK    6  A    between atoms: C_6  and  C_7
REMARK    7  A    between atoms: C_7  and  C_8
REMARK    8  A    between atoms: C_8  and  C_9
REMARK                            x       y       z     vdW  Elec       q    Type
REMARK                         _______ _______ _______ _____ _____    ______ ____
ROOT
ATOM      1  C   LIG A   1      -7.819  -2.583 123.411  0.00  0.00    +0.000 C 
ENDROOT
BRANCH   1   2
ATOM      2  C   LIG A   1      -6.511  -1.885 123.787  0.00  0.00    -0.000 C 
BRANCH   2   3
ATOM      3  C   LIG A   1      -5.525  -2.860 124.433  0.00  0.00    -0.000 C 
BRANCH   3   5
ATOM      4  C   LIG A   1      -4.338  -4.920 123.594  0.00  0.00    +0.004 C 
ATOM      5  C   LIG A   1      -4.549  -3.426 123.402  0.00  0.00    -0.003 C 
ENDBRANCH   3   5
ENDBRANCH   2   3
ENDBRANCH   1   2
BRANCH   1   6
ATOM      6  C   LIG A   1      -8.191  -3.661 124.430  0.00  0.00    +0.000 C 
BRANCH   6   7
ATOM      7  C   LIG A   1      -9.196  -3.138 125.457  0.00  0.00    +0.007 C 
BRANCH   7   8
ATOM      8  C   LIG A   1      -8.499  -2.704 126.741  0.00  0.00    +0.071 C 
BRANCH   8   9
ATOM      9  C   LIG A   1      -8.734  -3.711 127.836  0.00  0.00    +0.223 C 
ATOM     10  O   LIG A   1      -8.650  -3.442 129.028  0.00  0.00    -0.301 OA
ENDBRANCH   8   9
ENDBRANCH   7   8
ENDBRANCH   6   7
ENDBRANCH   1   6
TORSDOF 7
ENDMDL
MODEL 5
REMARK VINA RESULT:      -4.2     11.892     12.611
REMARK  Name = NuBBE_1382
REMARK  8 active torsions:
REMARK  status: ('A' for Active; 'I' for Inactive)
REMARK    1  A    between atoms: C_1  and  C_2
REMARK    2  A    between atoms: C_2  and  C_3
REMARK    3  A    between atoms: C_3  and  C_4
REMARK    4  A    between atoms: C_4  and  C_5
REMARK    5  A    between atoms: C_5  and  C_6
REMARK    6  A    between atoms: C_6  and  C_7
REMARK    7  A    between atoms: C_7  and  C_8
REMARK    8  A    between atoms: C_8  and  C_9
REMARK                            x       y       z     vdW  Elec       q    Type
REMARK                         _______ _______ _______ _____ _____    ______ ____
ROOT
ATOM      1  C   LIG A   1      -8.104  -3.889 125.103  0.00  0.00    +0.000 C 
ENDROOT
BRANCH   1   2
ATOM      2  C   LIG A   1      -8.553  -3.026 126.284  0.00  0.00    -0.000 C 
BRANCH   2   3
ATOM      3  C   LIG A   1      -8.883  -3.884 127.507  0.00  0.00    -0.000 C 
BRANCH   3   5
ATOM      4  C   LIG A   1      -7.000  -2.498 128.449  0.00  0.00    +0.004 C 
ATOM      5  C   LIG A   1      -8.241  -3.315 128.772  0.00  0.00    -0.003 C 
ENDBRANCH   3   5
ENDBRANCH   2   3
ENDBRANCH   1   2
BRANCH   1   6
ATOM      6  C   LIG A   1      -7.225  -3.097 124.134  0.00  0.00    +0.000 C 
BRANCH   6   7
ATOM      7  C   LIG A   1      -5.763  -3.092 124.580  0.00  0.00    +0.007 C 
BRANCH   7   8
ATOM      8  C   LIG A   1      -4.824  -3.333 123.404  0.00  0.00    +0.071 C 
BRANCH   8   9
ATOM      9  C   LIG A   1      -4.313  -4.749 123.416  0.00  0.00    +0.223 C 
ATOM     10  O   LIG A   1      -3.124  -5.036 123.485  0.00  0.00    -0.301 OA
ENDBRANCH   8   9
ENDBRANCH   7   8
ENDBRANCH   6   7
ENDBRANCH   1   6
TORSDOF 7
ENDMDL
MODEL 6
REMARK VINA RESULT:      -4.2      1.329      3.476
REMARK  Name = NuBBE_1382
REMARK  8 active torsions:
REMARK  status: ('A' for Active; 'I' for Inactive)
REMARK    1  A    between atoms: C_1  and  C_2
REMARK    2  A    between atoms: C_2  and  C_3
REMARK    3  A    between atoms: C_3  and  C_4
REMARK    4  A    between atoms: C_4  and  C_5
REMARK    5  A    between atoms: C_5  and  C_6
REMARK    6  A    between atoms: C_6  and  C_7
REMARK    7  A    between atoms: C_7  and  C_8
REMARK    8  A    between atoms: C_8  and  C_9
REMARK                            x       y       z     vdW  Elec       q    Type
REMARK                         _______ _______ _______ _____ _____    ______ ____
ROOT
ATOM      1  C   LIG A   1     -12.591   7.269 131.288  0.00  0.00    +0.000 C 
ENDROOT
BRANCH   1   2
ATOM      2  C   LIG A   1     -12.649   8.047 129.972  0.00  0.00    -0.000 C 
BRANCH   2   3
ATOM      3  C   LIG A   1     -12.780   7.105 128.773  0.00  0.00    -0.000 C 
BRANCH   3   5
ATOM      4  C   LIG A   1     -10.843   8.500 127.965  0.00  0.00    +0.004 C 
ATOM      5  C   LIG A   1     -12.034   7.649 127.555  0.00  0.00    -0.003 C 
ENDBRANCH   3   5
ENDBRANCH   2   3
ENDBRANCH   1   2
BRANCH   1   6
ATOM      6  C   LIG A   1     -11.685   6.043 131.174  0.00  0.00    +0.000 C 
BRANCH   6   7
ATOM      7  C   LIG A   1     -10.317   6.298 131.807  0.00  0.00    +0.007 C 
BRANCH   7   8
ATOM      8  C   LIG A   1      -9.283   6.683 130.756  0.00  0.00    +0.071 C 
BRANCH   8   9
ATOM      9  C   LIG A   1      -9.006   5.522 129.836  0.00  0.00    +0.223 C 
ATOM     10  O   LIG A   1      -9.166   5.572 128.623  0.00  0.00    -0.301 OA
ENDBRANCH   8   9
ENDBRANCH   7   8
ENDBRANCH   6   7
ENDBRANCH   1   6
TORSDOF 7
ENDMDL
MODEL 7
REMARK VINA RESULT:      -4.1     10.818     11.658
REMARK  Name = NuBBE_1382
REMARK  8 active torsions:
REMARK  status: ('A' for Active; 'I' for Inactive)
REMARK    1  A    between atoms: C_1  and  C_2
REMARK    2  A    between atoms: C_2  and  C_3
REMARK    3  A    between atoms: C_3  and  C_4
REMARK    4  A    between atoms: C_4  and  C_5
REMARK    5  A    between atoms: C_5  and  C_6
REMARK    6  A    between atoms: C_6  and  C_7
REMARK    7  A    between atoms: C_7  and  C_8
REMARK    8  A    between atoms: C_8  and  C_9
REMARK                            x       y       z     vdW  Elec       q    Type
REMARK                         _______ _______ _______ _____ _____    ______ ____
ROOT
ATOM      1  C   LIG A   1      -8.875  -3.332 124.741  0.00  0.00    +0.000 C 
ENDROOT
BRANCH   1   2
ATOM      2  C   LIG A   1      -7.406  -3.756 124.671  0.00  0.00    -0.000 C 
BRANCH   2   3
ATOM      3  C   LIG A   1      -6.481  -2.639 125.158  0.00  0.00    -0.000 C 
BRANCH   3   5
ATOM      4  C   LIG A   1      -4.754  -3.562 123.571  0.00  0.00    +0.004 C 
ATOM      5  C   LIG A   1      -5.416  -2.305 124.114  0.00  0.00    -0.003 C 
ENDBRANCH   3   5
ENDBRANCH   2   3
ENDBRANCH   1   2
BRANCH   1   6
ATOM      6  C   LIG A   1      -9.474  -3.158 123.345  0.00  0.00    +0.000 C 
BRANCH   6   7
ATOM      7  C   LIG A   1      -8.742  -2.075 122.553  0.00  0.00    +0.007 C 
BRANCH   7   8
ATOM      8  C   LIG A   1      -8.996  -0.692 123.141  0.00  0.00    +0.071 C 
BRANCH   8   9
ATOM      9  C   LIG A   1     -10.138  -0.016 122.429  0.00  0.00    +0.223 C 
ATOM     10  O   LIG A   1     -10.947   0.711 122.992  0.00  0.00    -0.301 OA
ENDBRANCH   8   9
ENDBRANCH   7   8
ENDBRANCH   6   7
ENDBRANCH   1   6
TORSDOF 7
ENDMDL
MODEL 8
REMARK VINA RESULT:      -4.1      2.173      3.632
REMARK  Name = NuBBE_1382
REMARK  8 active torsions:
REMARK  status: ('A' for Active; 'I' for Inactive)
REMARK    1  A    between atoms: C_1  and  C_2
REMARK    2  A    between atoms: C_2  and  C_3
REMARK    3  A    between atoms: C_3  and  C_4
REMARK    4  A    between atoms: C_4  and  C_5
REMARK    5  A    between atoms: C_5  and  C_6
REMARK    6  A    between atoms: C_6  and  C_7
REMARK    7  A    between atoms: C_7  and  C_8
REMARK    8  A    between atoms: C_8  and  C_9
REMARK                            x       y       z     vdW  Elec       q    Type
REMARK                         _______ _______ _______ _____ _____    ______ ____
ROOT
ATOM      1  C   LIG A   1     -12.389   7.320 127.191  0.00  0.00    +0.000 C 
ENDROOT
BRANCH   1   2
ATOM      2  C   LIG A   1     -13.402   7.760 128.248  0.00  0.00    -0.000 C 
BRANCH   2   3
ATOM      3  C   LIG A   1     -13.077   9.156 128.785  0.00  0.00    -0.000 C 
BRANCH   3   5
ATOM      4  C   LIG A   1     -12.994   7.735 130.866  0.00  0.00    +0.004 C 
ATOM      5  C   LIG A   1     -12.953   9.149 130.308  0.00  0.00    -0.003 C 
ENDBRANCH   3   5
ENDBRANCH   2   3
ENDBRANCH   1   2
BRANCH   1   6
ATOM      6  C   LIG A   1     -10.994   7.872 127.489  0.00  0.00    +0.000 C 
BRANCH   6   7
ATOM      7  C   LIG A   1     -10.183   6.905 128.351  0.00  0.00    +0.007 C 
BRANCH   7   8
ATOM      8  C   LIG A   1      -9.698   7.577 129.631  0.00  0.00    +0.071 C 
BRANCH   8   9
ATOM      9  C   LIG A   1      -9.315   6.545 130.658  0.00  0.00    +0.223 C 
ATOM     10  O   LIG A   1      -9.502   6.690 131.860  0.00  0.00    -0.301 OA
ENDBRANCH   8   9
ENDBRANCH   7   8
ENDBRANCH   6   7
ENDBRANCH   1   6
TORSDOF 7
ENDMDL
MODEL 9
REMARK VINA RESULT:      -4.1      2.743      3.222
REMARK  Name = NuBBE_1382
REMARK  8 active torsions:
REMARK  status: ('A' for Active; 'I' for Inactive)
REMARK    1  A    between atoms: C_1  and  C_2
REMARK    2  A    between atoms: C_2  and  C_3
REMARK    3  A    between atoms: C_3  and  C_4
REMARK    4  A    between atoms: C_4  and  C_5
REMARK    5  A    between atoms: C_5  and  C_6
REMARK    6  A    between atoms: C_6  and  C_7
REMARK    7  A    between atoms: C_7  and  C_8
REMARK    8  A    between atoms: C_8  and  C_9
REMARK                            x       y       z     vdW  Elec       q    Type
REMARK                         _______ _______ _______ _____ _____    ______ ____
ROOT
ATOM      1  C   LIG A   1     -12.874   7.324 130.764  0.00  0.00    +0.000 C 
ENDROOT
BRANCH   1   2
ATOM      2  C   LIG A   1     -11.750   6.327 131.053  0.00  0.00    -0.000 C 
BRANCH   2   3
ATOM      3  C   LIG A   1     -10.388   6.887 130.639  0.00  0.00    -0.000 C 
BRANCH   3   5
ATOM      4  C   LIG A   1      -7.905   6.785 131.061  0.00  0.00    +0.004 C 
ATOM      5  C   LIG A   1      -9.284   6.418 131.586  0.00  0.00    -0.003 C 
ENDBRANCH   3   5
ENDBRANCH   2   3
ENDBRANCH   1   2
BRANCH   1   6
ATOM      6  C   LIG A   1     -13.264   7.313 129.285  0.00  0.00    +0.000 C 
BRANCH   6   7
ATOM      7  C   LIG A   1     -13.147   8.706 128.666  0.00  0.00    +0.007 C 
BRANCH   7   8
ATOM      8  C   LIG A   1     -12.890   9.766 129.731  0.00  0.00    +0.071 C 
BRANCH   8   9
ATOM      9  C   LIG A   1     -13.727  10.990 129.470  0.00  0.00    +0.223 C 
ATOM     10  O   LIG A   1     -13.713  11.982 130.190  0.00  0.00    -0.301 OA
ENDBRANCH   8   9
ENDBRANCH   7   8
ENDBRANCH   6   7
ENDBRANCH   1   6
TORSDOF 7
ENDMDL
