MODEL 1
REMARK VINA RESULT:      -6.7      0.000      0.000
REMARK  Name = NuBBE_1880
REMARK  19 active torsions:
REMARK  status: ('A' for Active; 'I' for Inactive)
REMARK    1  A    between atoms: C_4  and  O_33
REMARK    2  A    between atoms: C_5  and  O_6
REMARK    3  A    between atoms: O_6  and  C_7
REMARK    4  A    between atoms: C_7  and  C_8
REMARK    5  A    between atoms: C_9  and  O_31
REMARK    6  A    between atoms: C_13  and  C_14
REMARK    7  A    between atoms: C_17  and  O_26
REMARK    8  A    between atoms: C_18  and  O_19
REMARK    9  A    between atoms: O_19  and  C_20
REMARK   10  A    between atoms: C_20  and  C_21
REMARK   11  A    between atoms: C_22  and  O_23
REMARK   12  A    between atoms: O_23  and  C_24
REMARK   13  A    between atoms: C_24  and  C_25
REMARK   14  A    between atoms: O_26  and  C_27
REMARK   15  A    between atoms: C_28  and  O_29
REMARK   16  A    between atoms: O_29  and  C_30
REMARK   17  A    between atoms: O_31  and  C_32
REMARK   18  A    between atoms: O_33  and  C_34
REMARK   19  A    between atoms: C_34  and  C_35
REMARK                            x       y       z     vdW  Elec       q    Type
REMARK                         _______ _______ _______ _____ _____    ______ ____
ROOT
ATOM      1  O   LIG A   1      -7.059   5.164 126.123  0.00  0.00    -0.283 OA
ATOM      2  C   LIG A   1      -6.977   4.053 126.496  0.00  0.00    +0.238 A 
ATOM      3  C   LIG A   1      -7.388   3.678 127.858  0.00  0.00    +0.113 A 
ATOM      4  C   LIG A   1      -7.095   4.417 129.003  0.00  0.00    +0.180 A 
ATOM      5  C   LIG A   1      -7.677   3.977 130.266  0.00  0.00    +0.205 A 
ATOM      6  C   LIG A   1      -8.558   2.827 130.321  0.00  0.00    +0.169 A 
ATOM      7  C   LIG A   1      -8.650   2.060 129.148  0.00  0.00    +0.096 A 
ATOM      8  C   LIG A   1      -8.085   2.483 127.953  0.00  0.00    +0.147 A 
ATOM      9  O   LIG A   1      -8.227   1.649 126.880  0.00  0.00    -0.451 OA
ATOM     10  C   LIG A   1      -7.208   1.714 125.942  0.00  0.00    +0.184 A 
ATOM     11  C   LIG A   1      -6.548   2.858 125.646  0.00  0.00    +0.211 A 
ENDROOT
BRANCH  10  12
ATOM     12  C   LIG A   1      -7.010   0.398 125.313  0.00  0.00    +0.067 A 
ATOM     13  C   LIG A   1      -5.950  -0.385 125.771  0.00  0.00    +0.019 A 
ATOM     14  C   LIG A   1      -5.492  -1.448 125.010  0.00  0.00    +0.050 A 
ATOM     15  C   LIG A   1      -6.163  -1.831 123.849  0.00  0.00    +0.165 A 
ATOM     16  C   LIG A   1      -7.471  -1.327 123.635  0.00  0.00    +0.204 A 
ATOM     17  C   LIG A   1      -7.882  -0.165 124.377  0.00  0.00    +0.176 A 
BRANCH  15  18
ATOM     18  O   LIG A   1      -5.327  -2.591 123.083  0.00  0.00    -0.491 OA
ATOM     19  C   LIG A   1      -4.598  -3.688 123.581  0.00  0.00    +0.277 C 
ENDBRANCH  15  18
BRANCH  16  20
ATOM     20  O   LIG A   1      -8.242  -1.908 122.653  0.00  0.00    -0.485 OA
BRANCH  20  21
ATOM     21  C   LIG A   1      -9.218  -2.903 123.020  0.00  0.00    +0.226 C 
ATOM     22  C   LIG A   1      -8.984  -3.521 124.388  0.00  0.00    +0.048 C 
ENDBRANCH  20  21
ENDBRANCH  16  20
BRANCH  17  23
ATOM     23  O   LIG A   1      -9.198   0.217 124.392  0.00  0.00    -0.488 OA
BRANCH  23  24
ATOM     24  C   LIG A   1      -9.908   0.800 123.289  0.00  0.00    +0.226 C 
ATOM     25  C   LIG A   1      -9.230   2.101 122.860  0.00  0.00    +0.048 C 
ENDBRANCH  23  24
ENDBRANCH  17  23
ENDBRANCH  10  12
BRANCH  11  26
ATOM     26  O   LIG A   1      -5.576   3.018 124.661  0.00  0.00    -0.488 OA
ATOM     27  C   LIG A   1      -6.083   3.566 123.430  0.00  0.00    +0.277 C 
ENDBRANCH  11  26
BRANCH   6  28
ATOM     28  O   LIG A   1      -9.232   2.132 131.316  0.00  0.00    -0.491 OA
ATOM     29  C   LIG A   1      -9.216   0.743 131.700  0.00  0.00    +0.277 C 
ENDBRANCH   6  28
BRANCH   5  30
ATOM     30  O   LIG A   1      -7.159   4.695 131.316  0.00  0.00    -0.485 OA
BRANCH  30  31
ATOM     31  C   LIG A   1      -7.999   5.552 132.071  0.00  0.00    +0.226 C 
ATOM     32  C   LIG A   1      -8.549   6.713 131.261  0.00  0.00    +0.048 C 
ENDBRANCH  30  31
ENDBRANCH   5  30
BRANCH   4  33
ATOM     33  O   LIG A   1      -6.014   5.292 128.890  0.00  0.00    -0.488 OA
BRANCH  33  34
ATOM     34  C   LIG A   1      -4.672   4.767 128.951  0.00  0.00    +0.226 C 
ATOM     35  C   LIG A   1      -3.729   5.606 128.061  0.00  0.00    +0.048 C 
ENDBRANCH  33  34
ENDBRANCH   4  33
TORSDOF 12
ENDMDL
MODEL 2
REMARK VINA RESULT:      -6.7      2.054      4.201
REMARK  Name = NuBBE_1880
REMARK  19 active torsions:
REMARK  status: ('A' for Active; 'I' for Inactive)
REMARK    1  A    between atoms: C_4  and  O_33
REMARK    2  A    between atoms: C_5  and  O_6
REMARK    3  A    between atoms: O_6  and  C_7
REMARK    4  A    between atoms: C_7  and  C_8
REMARK    5  A    between atoms: C_9  and  O_31
REMARK    6  A    between atoms: C_13  and  C_14
REMARK    7  A    between atoms: C_17  and  O_26
REMARK    8  A    between atoms: C_18  and  O_19
REMARK    9  A    between atoms: O_19  and  C_20
REMARK   10  A    between atoms: C_20  and  C_21
REMARK   11  A    between atoms: C_22  and  O_23
REMARK   12  A    between atoms: O_23  and  C_24
REMARK   13  A    between atoms: C_24  and  C_25
REMARK   14  A    between atoms: O_26  and  C_27
REMARK   15  A    between atoms: C_28  and  O_29
REMARK   16  A    between atoms: O_29  and  C_30
REMARK   17  A    between atoms: O_31  and  C_32
REMARK   18  A    between atoms: O_33  and  C_34
REMARK   19  A    between atoms: C_34  and  C_35
REMARK                            x       y       z     vdW  Elec       q    Type
REMARK                         _______ _______ _______ _____ _____    ______ ____
ROOT
ATOM      1  O   LIG A   1      -4.104   4.439 129.841  0.00  0.00    -0.283 OA
ATOM      2  C   LIG A   1      -4.939   3.989 129.148  0.00  0.00    +0.238 A 
ATOM      3  C   LIG A   1      -6.343   3.944 129.582  0.00  0.00    +0.113 A 
ATOM      4  C   LIG A   1      -6.764   3.578 130.860  0.00  0.00    +0.180 A 
ATOM      5  C   LIG A   1      -8.183   3.701 131.172  0.00  0.00    +0.205 A 
ATOM      6  C   LIG A   1      -9.120   4.219 130.195  0.00  0.00    +0.169 A 
ATOM      7  C   LIG A   1      -8.622   4.397 128.893  0.00  0.00    +0.096 A 
ATOM      8  C   LIG A   1      -7.271   4.268 128.604  0.00  0.00    +0.147 A 
ATOM      9  O   LIG A   1      -6.904   4.451 127.300  0.00  0.00    -0.451 OA
ATOM     10  C   LIG A   1      -5.782   3.744 126.898  0.00  0.00    +0.184 A 
ATOM     11  C   LIG A   1      -4.735   3.490 127.717  0.00  0.00    +0.211 A 
ENDROOT
BRANCH  10  12
ATOM     12  C   LIG A   1      -5.893   3.377 125.477  0.00  0.00    +0.067 A 
ATOM     13  C   LIG A   1      -5.314   4.235 124.541  0.00  0.00    +0.019 A 
ATOM     14  C   LIG A   1      -5.673   4.150 123.206  0.00  0.00    +0.050 A 
ATOM     15  C   LIG A   1      -6.511   3.127 122.760  0.00  0.00    +0.165 A 
ATOM     16  C   LIG A   1      -6.729   2.019 123.617  0.00  0.00    +0.204 A 
ATOM     17  C   LIG A   1      -6.431   2.173 125.015  0.00  0.00    +0.176 A 
BRANCH  15  18
ATOM     18  O   LIG A   1      -7.037   3.480 121.550  0.00  0.00    -0.491 OA
ATOM     19  C   LIG A   1      -6.258   3.913 120.460  0.00  0.00    +0.277 C 
ENDBRANCH  15  18
BRANCH  16  20
ATOM     20  O   LIG A   1      -7.317   0.891 123.089  0.00  0.00    -0.485 OA
BRANCH  20  21
ATOM     21  C   LIG A   1      -8.648   0.529 123.508  0.00  0.00    +0.226 C 
ATOM     22  C   LIG A   1      -9.747   1.338 122.841  0.00  0.00    +0.048 C 
ENDBRANCH  20  21
ENDBRANCH  16  20
BRANCH  17  23
ATOM     23  O   LIG A   1      -6.393   1.078 125.839  0.00  0.00    -0.488 OA
BRANCH  23  24
ATOM     24  C   LIG A   1      -5.281   0.182 125.981  0.00  0.00    +0.226 C 
ATOM     25  C   LIG A   1      -5.646  -1.197 125.432  0.00  0.00    +0.048 C 
ENDBRANCH  23  24
ENDBRANCH  17  23
ENDBRANCH  10  12
BRANCH  11  26
ATOM     26  O   LIG A   1      -3.542   2.863 127.362  0.00  0.00    -0.488 OA
ATOM     27  C   LIG A   1      -2.513   3.774 126.937  0.00  0.00    +0.277 C 
ENDBRANCH  11  26
BRANCH   6  28
ATOM     28  O   LIG A   1     -10.492   4.429 130.138  0.00  0.00    -0.491 OA
ATOM     29  C   LIG A   1     -11.293   5.609 130.342  0.00  0.00    +0.277 C 
ENDBRANCH   6  28
BRANCH   5  30
ATOM     30  O   LIG A   1      -8.462   3.143 132.395  0.00  0.00    -0.485 OA
BRANCH  30  31
ATOM     31  C   LIG A   1      -9.541   2.232 132.530  0.00  0.00    +0.226 C 
ATOM     32  C   LIG A   1      -9.279   0.894 131.859  0.00  0.00    +0.048 C 
ENDBRANCH  30  31
ENDBRANCH   5  30
BRANCH   4  33
ATOM     33  O   LIG A   1      -5.853   2.817 131.594  0.00  0.00    -0.488 OA
BRANCH  33  34
ATOM     34  C   LIG A   1      -5.681   1.422 131.275  0.00  0.00    +0.226 C 
ATOM     35  C   LIG A   1      -4.223   0.988 131.541  0.00  0.00    +0.048 C 
ENDBRANCH  33  34
ENDBRANCH   4  33
TORSDOF 12
ENDMDL
MODEL 3
REMARK VINA RESULT:      -6.7      1.904      7.817
REMARK  Name = NuBBE_1880
REMARK  19 active torsions:
REMARK  status: ('A' for Active; 'I' for Inactive)
REMARK    1  A    between atoms: C_4  and  O_33
REMARK    2  A    between atoms: C_5  and  O_6
REMARK    3  A    between atoms: O_6  and  C_7
REMARK    4  A    between atoms: C_7  and  C_8
REMARK    5  A    between atoms: C_9  and  O_31
REMARK    6  A    between atoms: C_13  and  C_14
REMARK    7  A    between atoms: C_17  and  O_26
REMARK    8  A    between atoms: C_18  and  O_19
REMARK    9  A    between atoms: O_19  and  C_20
REMARK   10  A    between atoms: C_20  and  C_21
REMARK   11  A    between atoms: C_22  and  O_23
REMARK   12  A    between atoms: O_23  and  C_24
REMARK   13  A    between atoms: C_24  and  C_25
REMARK   14  A    between atoms: O_26  and  C_27
REMARK   15  A    between atoms: C_28  and  O_29
REMARK   16  A    between atoms: O_29  and  C_30
REMARK   17  A    between atoms: O_31  and  C_32
REMARK   18  A    between atoms: O_33  and  C_34
REMARK   19  A    between atoms: C_34  and  C_35
REMARK                            x       y       z     vdW  Elec       q    Type
REMARK                         _______ _______ _______ _____ _____    ______ ____
ROOT
ATOM      1  O   LIG A   1      -6.715   2.489 123.458  0.00  0.00    -0.283 OA
ATOM      2  C   LIG A   1      -6.513   2.385 124.610  0.00  0.00    +0.238 A 
ATOM      3  C   LIG A   1      -6.518   1.068 125.266  0.00  0.00    +0.113 A 
ATOM      4  C   LIG A   1      -7.456   0.067 125.018  0.00  0.00    +0.180 A 
ATOM      5  C   LIG A   1      -7.255  -1.228 125.659  0.00  0.00    +0.205 A 
ATOM      6  C   LIG A   1      -6.100  -1.474 126.498  0.00  0.00    +0.169 A 
ATOM      7  C   LIG A   1      -5.313  -0.354 126.814  0.00  0.00    +0.096 A 
ATOM      8  C   LIG A   1      -5.519   0.877 126.206  0.00  0.00    +0.147 A 
ATOM      9  O   LIG A   1      -4.701   1.899 126.602  0.00  0.00    -0.451 OA
ATOM     10  C   LIG A   1      -5.257   3.165 126.519  0.00  0.00    +0.184 A 
ATOM     11  C   LIG A   1      -6.134   3.526 125.554  0.00  0.00    +0.211 A 
ENDROOT
BRANCH  10  12
ATOM     12  C   LIG A   1      -4.716   4.030 127.581  0.00  0.00    +0.067 A 
ATOM     13  C   LIG A   1      -3.516   4.695 127.324  0.00  0.00    +0.019 A 
ATOM     14  C   LIG A   1      -2.780   5.227 128.370  0.00  0.00    +0.050 A 
ATOM     15  C   LIG A   1      -3.288   5.224 129.669  0.00  0.00    +0.165 A 
ATOM     16  C   LIG A   1      -4.669   4.958 129.848  0.00  0.00    +0.204 A 
ATOM     17  C   LIG A   1      -5.382   4.320 128.774  0.00  0.00    +0.176 A 
BRANCH  15  18
ATOM     18  O   LIG A   1      -2.259   5.408 130.548  0.00  0.00    -0.491 OA
ATOM     19  C   LIG A   1      -1.919   6.659 131.097  0.00  0.00    +0.277 C 
ENDBRANCH  15  18
BRANCH  16  20
ATOM     20  O   LIG A   1      -5.232   5.224 131.076  0.00  0.00    -0.485 OA
BRANCH  20  21
ATOM     21  C   LIG A   1      -5.641   6.571 131.386  0.00  0.00    +0.226 C 
ATOM     22  C   LIG A   1      -7.123   6.831 131.171  0.00  0.00    +0.048 C 
ENDBRANCH  20  21
ENDBRANCH  16  20
BRANCH  17  23
ATOM     23  O   LIG A   1      -6.752   4.259 128.793  0.00  0.00    -0.488 OA
BRANCH  23  24
ATOM     24  C   LIG A   1      -7.531   3.267 129.477  0.00  0.00    +0.226 C 
ATOM     25  C   LIG A   1      -8.215   2.349 128.464  0.00  0.00    +0.048 C 
ENDBRANCH  23  24
ENDBRANCH  17  23
ENDBRANCH  10  12
BRANCH  11  26
ATOM     26  O   LIG A   1      -6.667   4.798 125.357  0.00  0.00    -0.488 OA
ATOM     27  C   LIG A   1      -8.069   4.895 125.668  0.00  0.00    +0.277 C 
ENDBRANCH  11  26
BRANCH   6  28
ATOM     28  O   LIG A   1      -5.629  -2.532 127.265  0.00  0.00    -0.491 OA
ATOM     29  C   LIG A   1      -4.888  -2.569 128.501  0.00  0.00    +0.277 C 
ENDBRANCH   6  28
BRANCH   5  30
ATOM     30  O   LIG A   1      -8.344  -2.042 125.461  0.00  0.00    -0.485 OA
BRANCH  30  31
ATOM     31  C   LIG A   1      -8.220  -3.210 124.666  0.00  0.00    +0.226 C 
ATOM     32  C   LIG A   1      -9.403  -3.428 123.738  0.00  0.00    +0.048 C 
ENDBRANCH  30  31
ENDBRANCH   5  30
BRANCH   4  33
ATOM     33  O   LIG A   1      -8.662   0.500 124.465  0.00  0.00    -0.488 OA
BRANCH  33  34
ATOM     34  C   LIG A   1      -9.021   0.075 123.135  0.00  0.00    +0.226 C 
ATOM     35  C   LIG A   1     -10.234   0.884 122.625  0.00  0.00    +0.048 C 
ENDBRANCH  33  34
ENDBRANCH   4  33
TORSDOF 12
ENDMDL
MODEL 4
REMARK VINA RESULT:      -6.6      1.216      1.524
REMARK  Name = NuBBE_1880
REMARK  19 active torsions:
REMARK  status: ('A' for Active; 'I' for Inactive)
REMARK    1  A    between atoms: C_4  and  O_33
REMARK    2  A    between atoms: C_5  and  O_6
REMARK    3  A    between atoms: O_6  and  C_7
REMARK    4  A    between atoms: C_7  and  C_8
REMARK    5  A    between atoms: C_9  and  O_31
REMARK    6  A    between atoms: C_13  and  C_14
REMARK    7  A    between atoms: C_17  and  O_26
REMARK    8  A    between atoms: C_18  and  O_19
REMARK    9  A    between atoms: O_19  and  C_20
REMARK   10  A    between atoms: C_20  and  C_21
REMARK   11  A    between atoms: C_22  and  O_23
REMARK   12  A    between atoms: O_23  and  C_24
REMARK   13  A    between atoms: C_24  and  C_25
REMARK   14  A    between atoms: O_26  and  C_27
REMARK   15  A    between atoms: C_28  and  O_29
REMARK   16  A    between atoms: O_29  and  C_30
REMARK   17  A    between atoms: O_31  and  C_32
REMARK   18  A    between atoms: O_33  and  C_34
REMARK   19  A    between atoms: C_34  and  C_35
REMARK                            x       y       z     vdW  Elec       q    Type
REMARK                         _______ _______ _______ _____ _____    ______ ____
ROOT
ATOM      1  O   LIG A   1      -6.892   5.207 126.013  0.00  0.00    -0.283 OA
ATOM      2  C   LIG A   1      -6.641   4.121 126.383  0.00  0.00    +0.238 A 
ATOM      3  C   LIG A   1      -6.623   3.793 127.817  0.00  0.00    +0.113 A 
ATOM      4  C   LIG A   1      -6.060   4.599 128.804  0.00  0.00    +0.180 A 
ATOM      5  C   LIG A   1      -6.229   4.193 130.194  0.00  0.00    +0.205 A 
ATOM      6  C   LIG A   1      -6.987   3.007 130.539  0.00  0.00    +0.169 A 
ATOM      7  C   LIG A   1      -7.364   2.180 129.467  0.00  0.00    +0.096 A 
ATOM      8  C   LIG A   1      -7.190   2.572 128.147  0.00  0.00    +0.147 A 
ATOM      9  O   LIG A   1      -7.583   1.681 127.187  0.00  0.00    -0.451 OA
ATOM     10  C   LIG A   1      -6.880   1.750 125.995  0.00  0.00    +0.184 A 
ATOM     11  C   LIG A   1      -6.402   2.908 125.485  0.00  0.00    +0.211 A 
ENDROOT
BRANCH  10  12
ATOM     12  C   LIG A   1      -6.792   0.416 125.378  0.00  0.00    +0.067 A 
ATOM     13  C   LIG A   1      -5.723  -0.399 125.751  0.00  0.00    +0.019 A 
ATOM     14  C   LIG A   1      -5.379  -1.493 124.973  0.00  0.00    +0.050 A 
ATOM     15  C   LIG A   1      -6.172  -1.870 123.889  0.00  0.00    +0.165 A 
ATOM     16  C   LIG A   1      -7.474  -1.320 123.789  0.00  0.00    +0.204 A 
ATOM     17  C   LIG A   1      -7.769  -0.130 124.541  0.00  0.00    +0.176 A 
BRANCH  15  18
ATOM     18  O   LIG A   1      -5.441  -2.676 123.064  0.00  0.00    -0.491 OA
ATOM     19  C   LIG A   1      -4.618  -3.721 123.526  0.00  0.00    +0.277 C 
ENDBRANCH  15  18
BRANCH  16  20
ATOM     20  O   LIG A   1      -8.356  -1.888 122.896  0.00  0.00    -0.485 OA
BRANCH  20  21
ATOM     21  C   LIG A   1      -9.112  -3.048 123.295  0.00  0.00    +0.226 C 
ATOM     22  C   LIG A   1      -9.258  -3.203 124.800  0.00  0.00    +0.048 C 
ENDBRANCH  20  21
ENDBRANCH  16  20
BRANCH  17  23
ATOM     23  O   LIG A   1      -9.063   0.303 124.672  0.00  0.00    -0.488 OA
BRANCH  23  24
ATOM     24  C   LIG A   1      -9.667   1.362 123.915  0.00  0.00    +0.226 C 
ATOM     25  C   LIG A   1     -10.225   0.814 122.602  0.00  0.00    +0.048 C 
ENDBRANCH  23  24
ENDBRANCH  17  23
ENDBRANCH  10  12
BRANCH  11  26
ATOM     26  O   LIG A   1      -5.763   3.067 124.256  0.00  0.00    -0.488 OA
ATOM     27  C   LIG A   1      -6.662   3.348 123.168  0.00  0.00    +0.277 C 
ENDBRANCH  11  26
BRANCH   6  28
ATOM     28  O   LIG A   1      -7.306   2.328 131.708  0.00  0.00    -0.491 OA
ATOM     29  C   LIG A   1      -6.675   1.222 132.382  0.00  0.00    +0.277 C 
ENDBRANCH   6  28
BRANCH   5  30
ATOM     30  O   LIG A   1      -5.476   4.985 131.028  0.00  0.00    -0.485 OA
BRANCH  30  31
ATOM     31  C   LIG A   1      -4.636   4.390 132.003  0.00  0.00    +0.226 C 
ATOM     32  C   LIG A   1      -3.532   3.538 131.400  0.00  0.00    +0.048 C 
ENDBRANCH  30  31
ENDBRANCH   5  30
BRANCH   4  33
ATOM     33  O   LIG A   1      -5.110   5.518 128.356  0.00  0.00    -0.488 OA
BRANCH  33  34
ATOM     34  C   LIG A   1      -3.786   5.057 128.020  0.00  0.00    +0.226 C 
ATOM     35  C   LIG A   1      -2.722   5.992 128.637  0.00  0.00    +0.048 C 
ENDBRANCH  33  34
ENDBRANCH   4  33
TORSDOF 12
ENDMDL
MODEL 5
REMARK VINA RESULT:      -6.6      1.905      8.317
REMARK  Name = NuBBE_1880
REMARK  19 active torsions:
REMARK  status: ('A' for Active; 'I' for Inactive)
REMARK    1  A    between atoms: C_4  and  O_33
REMARK    2  A    between atoms: C_5  and  O_6
REMARK    3  A    between atoms: O_6  and  C_7
REMARK    4  A    between atoms: C_7  and  C_8
REMARK    5  A    between atoms: C_9  and  O_31
REMARK    6  A    between atoms: C_13  and  C_14
REMARK    7  A    between atoms: C_17  and  O_26
REMARK    8  A    between atoms: C_18  and  O_19
REMARK    9  A    between atoms: O_19  and  C_20
REMARK   10  A    between atoms: C_20  and  C_21
REMARK   11  A    between atoms: C_22  and  O_23
REMARK   12  A    between atoms: O_23  and  C_24
REMARK   13  A    between atoms: C_24  and  C_25
REMARK   14  A    between atoms: O_26  and  C_27
REMARK   15  A    between atoms: C_28  and  O_29
REMARK   16  A    between atoms: O_29  and  C_30
REMARK   17  A    between atoms: O_31  and  C_32
REMARK   18  A    between atoms: O_33  and  C_34
REMARK   19  A    between atoms: C_34  and  C_35
REMARK                            x       y       z     vdW  Elec       q    Type
REMARK                         _______ _______ _______ _____ _____    ______ ____
ROOT
ATOM      1  O   LIG A   1      -6.447   3.848 123.154  0.00  0.00    -0.283 OA
ATOM      2  C   LIG A   1      -6.510   3.401 124.238  0.00  0.00    +0.238 A 
ATOM      3  C   LIG A   1      -6.512   1.947 124.460  0.00  0.00    +0.113 A 
ATOM      4  C   LIG A   1      -7.240   1.033 123.699  0.00  0.00    +0.180 A 
ATOM      5  C   LIG A   1      -7.043  -0.387 123.968  0.00  0.00    +0.205 A 
ATOM      6  C   LIG A   1      -6.095  -0.833 124.969  0.00  0.00    +0.169 A 
ATOM      7  C   LIG A   1      -5.544   0.167 125.789  0.00  0.00    +0.096 A 
ATOM      8  C   LIG A   1      -5.745   1.515 125.531  0.00  0.00    +0.147 A 
ATOM      9  O   LIG A   1      -5.171   2.397 126.403  0.00  0.00    -0.451 OA
ATOM     10  C   LIG A   1      -5.838   3.603 126.548  0.00  0.00    +0.184 A 
ATOM     11  C   LIG A   1      -6.502   4.208 125.536  0.00  0.00    +0.211 A 
ENDROOT
BRANCH  10  12
ATOM     12  C   LIG A   1      -5.668   4.118 127.917  0.00  0.00    +0.067 A 
ATOM     13  C   LIG A   1      -6.516   3.618 128.906  0.00  0.00    +0.019 A 
ATOM     14  C   LIG A   1      -6.655   4.293 130.108  0.00  0.00    +0.050 A 
ATOM     15  C   LIG A   1      -5.855   5.399 130.397  0.00  0.00    +0.165 A 
ATOM     16  C   LIG A   1      -4.708   5.624 129.595  0.00  0.00    +0.204 A 
ATOM     17  C   LIG A   1      -4.640   4.978 128.311  0.00  0.00    +0.176 A 
BRANCH  15  18
ATOM     18  O   LIG A   1      -6.435   6.115 131.405  0.00  0.00    -0.491 OA
ATOM     19  C   LIG A   1      -7.697   6.729 131.296  0.00  0.00    +0.277 C 
ENDBRANCH  15  18
BRANCH  16  20
ATOM     20  O   LIG A   1      -3.770   6.532 130.035  0.00  0.00    -0.485 OA
BRANCH  20  21
ATOM     21  C   LIG A   1      -2.956   6.204 131.178  0.00  0.00    +0.226 C 
ATOM     22  C   LIG A   1      -1.468   6.423 130.960  0.00  0.00    +0.048 C 
ENDBRANCH  20  21
ENDBRANCH  16  20
BRANCH  17  23
ATOM     23  O   LIG A   1      -3.465   4.964 127.605  0.00  0.00    -0.488 OA
BRANCH  23  24
ATOM     24  C   LIG A   1      -2.353   4.092 127.856  0.00  0.00    +0.226 C 
ATOM     25  C   LIG A   1      -1.968   3.353 126.575  0.00  0.00    +0.048 C 
ENDBRANCH  23  24
ENDBRANCH  17  23
ENDBRANCH  10  12
BRANCH  11  26
ATOM     26  O   LIG A   1      -7.121   5.455 125.584  0.00  0.00    -0.488 OA
ATOM     27  C   LIG A   1      -8.518   5.396 125.924  0.00  0.00    +0.277 C 
ENDBRANCH  11  26
BRANCH   6  28
ATOM     28  O   LIG A   1      -5.694  -2.055 125.493  0.00  0.00    -0.491 OA
ATOM     29  C   LIG A   1      -5.341  -3.303 124.863  0.00  0.00    +0.277 C 
ENDBRANCH   6  28
BRANCH   5  30
ATOM     30  O   LIG A   1      -7.949  -1.145 123.267  0.00  0.00    -0.485 OA
BRANCH  30  31
ATOM     31  C   LIG A   1      -8.920  -1.910 123.962  0.00  0.00    +0.226 C 
ATOM     32  C   LIG A   1      -9.297  -3.193 123.240  0.00  0.00    +0.048 C 
ENDBRANCH  30  31
ENDBRANCH   5  30
BRANCH   4  33
ATOM     33  O   LIG A   1      -8.325   1.565 123.002  0.00  0.00    -0.488 OA
BRANCH  33  34
ATOM     34  C   LIG A   1      -9.557   1.826 123.706  0.00  0.00    +0.226 C 
ATOM     35  C   LIG A   1     -10.724   1.065 123.039  0.00  0.00    +0.048 C 
ENDBRANCH  33  34
ENDBRANCH   4  33
TORSDOF 12
ENDMDL
MODEL 6
REMARK VINA RESULT:      -6.6      3.650      7.806
REMARK  Name = NuBBE_1880
REMARK  19 active torsions:
REMARK  status: ('A' for Active; 'I' for Inactive)
REMARK    1  A    between atoms: C_4  and  O_33
REMARK    2  A    between atoms: C_5  and  O_6
REMARK    3  A    between atoms: O_6  and  C_7
REMARK    4  A    between atoms: C_7  and  C_8
REMARK    5  A    between atoms: C_9  and  O_31
REMARK    6  A    between atoms: C_13  and  C_14
REMARK    7  A    between atoms: C_17  and  O_26
REMARK    8  A    between atoms: C_18  and  O_19
REMARK    9  A    between atoms: O_19  and  C_20
REMARK   10  A    between atoms: C_20  and  C_21
REMARK   11  A    between atoms: C_22  and  O_23
REMARK   12  A    between atoms: O_23  and  C_24
REMARK   13  A    between atoms: C_24  and  C_25
REMARK   14  A    between atoms: O_26  and  C_27
REMARK   15  A    between atoms: C_28  and  O_29
REMARK   16  A    between atoms: O_29  and  C_30
REMARK   17  A    between atoms: O_31  and  C_32
REMARK   18  A    between atoms: O_33  and  C_34
REMARK   19  A    between atoms: C_34  and  C_35
REMARK                            x       y       z     vdW  Elec       q    Type
REMARK                         _______ _______ _______ _____ _____    ______ ____
ROOT
ATOM      1  O   LIG A   1      -7.598   2.093 126.442  0.00  0.00    -0.283 OA
ATOM      2  C   LIG A   1      -7.279   1.016 126.784  0.00  0.00    +0.238 A 
ATOM      3  C   LIG A   1      -6.974  -0.034 125.800  0.00  0.00    +0.113 A 
ATOM      4  C   LIG A   1      -7.721  -0.278 124.649  0.00  0.00    +0.180 A 
ATOM      5  C   LIG A   1      -7.220  -1.276 123.710  0.00  0.00    +0.205 A 
ATOM      6  C   LIG A   1      -5.970  -1.966 123.952  0.00  0.00    +0.169 A 
ATOM      7  C   LIG A   1      -5.387  -1.770 125.215  0.00  0.00    +0.096 A 
ATOM      8  C   LIG A   1      -5.877  -0.824 126.105  0.00  0.00    +0.147 A 
ATOM      9  O   LIG A   1      -5.239  -0.730 127.310  0.00  0.00    -0.451 OA
ATOM     10  C   LIG A   1      -6.032  -0.314 128.368  0.00  0.00    +0.184 A 
ATOM     11  C   LIG A   1      -7.044   0.574 128.228  0.00  0.00    +0.211 A 
ENDROOT
BRANCH  10  12
ATOM     12  C   LIG A   1      -5.574  -0.933 129.623  0.00  0.00    +0.067 A 
ATOM     13  C   LIG A   1      -4.577  -0.274 130.343  0.00  0.00    +0.019 A 
ATOM     14  C   LIG A   1      -3.862  -0.951 131.317  0.00  0.00    +0.050 A 
ATOM     15  C   LIG A   1      -4.215  -2.251 131.682  0.00  0.00    +0.165 A 
ATOM     16  C   LIG A   1      -5.481  -2.740 131.275  0.00  0.00    +0.204 A 
ATOM     17  C   LIG A   1      -6.155  -2.067 130.197  0.00  0.00    +0.176 A 
BRANCH  15  18
ATOM     18  O   LIG A   1      -3.160  -2.833 132.324  0.00  0.00    -0.491 OA
ATOM     19  C   LIG A   1      -2.927  -2.710 133.707  0.00  0.00    +0.277 C 
ENDBRANCH  15  18
BRANCH  16  20
ATOM     20  O   LIG A   1      -5.952  -3.897 131.855  0.00  0.00    -0.485 OA
BRANCH  20  21
ATOM     21  C   LIG A   1      -6.465  -3.850 133.201  0.00  0.00    +0.226 C 
ATOM     22  C   LIG A   1      -7.699  -2.979 133.362  0.00  0.00    +0.048 C 
ENDBRANCH  20  21
ENDBRANCH  16  20
BRANCH  17  23
ATOM     23  O   LIG A   1      -7.470  -2.341 129.925  0.00  0.00    -0.488 OA
BRANCH  23  24
ATOM     24  C   LIG A   1      -7.948  -3.466 129.173  0.00  0.00    +0.226 C 
ATOM     25  C   LIG A   1      -8.367  -3.020 127.772  0.00  0.00    +0.048 C 
ENDBRANCH  23  24
ENDBRANCH  17  23
ENDBRANCH  10  12
BRANCH  11  26
ATOM     26  O   LIG A   1      -7.826   1.101 129.254  0.00  0.00    -0.488 OA
ATOM     27  C   LIG A   1      -7.279   2.294 129.845  0.00  0.00    +0.277 C 
ENDBRANCH  11  26
BRANCH   6  28
ATOM     28  O   LIG A   1      -5.238  -2.963 123.317  0.00  0.00    -0.491 OA
ATOM     29  C   LIG A   1      -4.553  -4.125 123.824  0.00  0.00    +0.277 C 
ENDBRANCH   6  28
BRANCH   5  30
ATOM     30  O   LIG A   1      -8.146  -1.526 122.726  0.00  0.00    -0.485 OA
BRANCH  30  31
ATOM     31  C   LIG A   1      -8.756  -2.802 122.634  0.00  0.00    +0.226 C 
ATOM     32  C   LIG A   1      -9.388  -3.257 123.939  0.00  0.00    +0.048 C 
ENDBRANCH  30  31
ENDBRANCH   5  30
BRANCH   4  33
ATOM     33  O   LIG A   1      -9.032   0.201 124.673  0.00  0.00    -0.488 OA
BRANCH  33  34
ATOM     34  C   LIG A   1      -9.402   1.287 123.801  0.00  0.00    +0.226 C 
ATOM     35  C   LIG A   1     -10.345   0.780 122.687  0.00  0.00    +0.048 C 
ENDBRANCH  33  34
ENDBRANCH   4  33
TORSDOF 12
ENDMDL
MODEL 7
REMARK VINA RESULT:      -6.4      4.525      8.425
REMARK  Name = NuBBE_1880
REMARK  19 active torsions:
REMARK  status: ('A' for Active; 'I' for Inactive)
REMARK    1  A    between atoms: C_4  and  O_33
REMARK    2  A    between atoms: C_5  and  O_6
REMARK    3  A    between atoms: O_6  and  C_7
REMARK    4  A    between atoms: C_7  and  C_8
REMARK    5  A    between atoms: C_9  and  O_31
REMARK    6  A    between atoms: C_13  and  C_14
REMARK    7  A    between atoms: C_17  and  O_26
REMARK    8  A    between atoms: C_18  and  O_19
REMARK    9  A    between atoms: O_19  and  C_20
REMARK   10  A    between atoms: C_20  and  C_21
REMARK   11  A    between atoms: C_22  and  O_23
REMARK   12  A    between atoms: O_23  and  C_24
REMARK   13  A    between atoms: C_24  and  C_25
REMARK   14  A    between atoms: O_26  and  C_27
REMARK   15  A    between atoms: C_28  and  O_29
REMARK   16  A    between atoms: O_29  and  C_30
REMARK   17  A    between atoms: O_31  and  C_32
REMARK   18  A    between atoms: O_33  and  C_34
REMARK   19  A    between atoms: C_34  and  C_35
REMARK                            x       y       z     vdW  Elec       q    Type
REMARK                         _______ _______ _______ _____ _____    ______ ____
ROOT
ATOM      1  O   LIG A   1      -5.318  -1.941 127.350  0.00  0.00    -0.283 OA
ATOM      2  C   LIG A   1      -5.342  -1.279 128.319  0.00  0.00    +0.238 A 
ATOM      3  C   LIG A   1      -4.834  -1.792 129.601  0.00  0.00    +0.113 A 
ATOM      4  C   LIG A   1      -5.075  -3.075 130.090  0.00  0.00    +0.180 A 
ATOM      5  C   LIG A   1      -4.401  -3.473 131.321  0.00  0.00    +0.205 A 
ATOM      6  C   LIG A   1      -3.485  -2.575 131.994  0.00  0.00    +0.169 A 
ATOM      7  C   LIG A   1      -3.445  -1.255 131.513  0.00  0.00    +0.096 A 
ATOM      8  C   LIG A   1      -4.097  -0.884 130.346  0.00  0.00    +0.147 A 
ATOM      9  O   LIG A   1      -4.000   0.430 129.982  0.00  0.00    -0.451 OA
ATOM     10  C   LIG A   1      -5.077   0.926 129.266  0.00  0.00    +0.184 A 
ATOM     11  C   LIG A   1      -5.789   0.181 128.390  0.00  0.00    +0.211 A 
ENDROOT
BRANCH  10  12
ATOM     12  C   LIG A   1      -5.276   2.354 129.568  0.00  0.00    +0.067 A 
ATOM     13  C   LIG A   1      -6.042   2.677 130.689  0.00  0.00    +0.019 A 
ATOM     14  C   LIG A   1      -6.559   3.954 130.832  0.00  0.00    +0.050 A 
ATOM     15  C   LIG A   1      -6.213   4.964 129.935  0.00  0.00    +0.165 A 
ATOM     16  C   LIG A   1      -5.104   4.748 129.079  0.00  0.00    +0.204 A 
ATOM     17  C   LIG A   1      -4.651   3.398 128.881  0.00  0.00    +0.176 A 
BRANCH  15  18
ATOM     18  O   LIG A   1      -7.129   5.972 130.027  0.00  0.00    -0.491 OA
ATOM     19  C   LIG A   1      -7.604   6.482 131.250  0.00  0.00    +0.277 C 
ENDBRANCH  15  18
BRANCH  16  20
ATOM     20  O   LIG A   1      -4.586   5.826 128.396  0.00  0.00    -0.485 OA
BRANCH  20  21
ATOM     21  C   LIG A   1      -3.566   6.630 129.021  0.00  0.00    +0.226 C 
ATOM     22  C   LIG A   1      -2.249   6.656 128.262  0.00  0.00    +0.048 C 
ENDBRANCH  20  21
ENDBRANCH  16  20
BRANCH  17  23
ATOM     23  O   LIG A   1      -3.451   3.153 128.265  0.00  0.00    -0.488 OA
BRANCH  23  24
ATOM     24  C   LIG A   1      -3.244   3.071 126.848  0.00  0.00    +0.226 C 
ATOM     25  C   LIG A   1      -1.747   3.062 126.537  0.00  0.00    +0.048 C 
ENDBRANCH  23  24
ENDBRANCH  17  23
ENDBRANCH  10  12
BRANCH  11  26
ATOM     26  O   LIG A   1      -6.826   0.631 127.575  0.00  0.00    -0.488 OA
ATOM     27  C   LIG A   1      -6.385   1.140 126.303  0.00  0.00    +0.277 C 
ENDBRANCH  11  26
BRANCH   6  28
ATOM     28  O   LIG A   1      -2.727  -2.607 133.158  0.00  0.00    -0.491 OA
ATOM     29  C   LIG A   1      -2.203  -1.557 133.994  0.00  0.00    +0.277 C 
ENDBRANCH   6  28
BRANCH   5  30
ATOM     30  O   LIG A   1      -4.872  -4.686 131.762  0.00  0.00    -0.485 OA
BRANCH  30  31
ATOM     31  C   LIG A   1      -5.635  -4.758 132.955  0.00  0.00    +0.226 C 
ATOM     32  C   LIG A   1      -4.943  -5.539 134.060  0.00  0.00    +0.048 C 
ENDBRANCH  30  31
ENDBRANCH   5  30
BRANCH   4  33
ATOM     33  O   LIG A   1      -6.187  -3.721 129.549  0.00  0.00    -0.488 OA
BRANCH  33  34
ATOM     34  C   LIG A   1      -7.507  -3.338 129.984  0.00  0.00    +0.226 C 
ATOM     35  C   LIG A   1      -8.504  -3.426 128.807  0.00  0.00    +0.048 C 
ENDBRANCH  33  34
ENDBRANCH   4  33
TORSDOF 12
ENDMDL
MODEL 8
REMARK VINA RESULT:      -6.4      1.716      8.107
REMARK  Name = NuBBE_1880
REMARK  19 active torsions:
REMARK  status: ('A' for Active; 'I' for Inactive)
REMARK    1  A    between atoms: C_4  and  O_33
REMARK    2  A    between atoms: C_5  and  O_6
REMARK    3  A    between atoms: O_6  and  C_7
REMARK    4  A    between atoms: C_7  and  C_8
REMARK    5  A    between atoms: C_9  and  O_31
REMARK    6  A    between atoms: C_13  and  C_14
REMARK    7  A    between atoms: C_17  and  O_26
REMARK    8  A    between atoms: C_18  and  O_19
REMARK    9  A    between atoms: O_19  and  C_20
REMARK   10  A    between atoms: C_20  and  C_21
REMARK   11  A    between atoms: C_22  and  O_23
REMARK   12  A    between atoms: O_23  and  C_24
REMARK   13  A    between atoms: C_24  and  C_25
REMARK   14  A    between atoms: O_26  and  C_27
REMARK   15  A    between atoms: C_28  and  O_29
REMARK   16  A    between atoms: O_29  and  C_30
REMARK   17  A    between atoms: O_31  and  C_32
REMARK   18  A    between atoms: O_33  and  C_34
REMARK   19  A    between atoms: C_34  and  C_35
REMARK                            x       y       z     vdW  Elec       q    Type
REMARK                         _______ _______ _______ _____ _____    ______ ____
ROOT
ATOM      1  O   LIG A   1      -5.484   3.104 124.847  0.00  0.00    -0.283 OA
ATOM      2  C   LIG A   1      -6.302   2.719 125.596  0.00  0.00    +0.238 A 
ATOM      3  C   LIG A   1      -6.744   1.315 125.581  0.00  0.00    +0.113 A 
ATOM      4  C   LIG A   1      -7.003   0.581 124.425  0.00  0.00    +0.180 A 
ATOM      5  C   LIG A   1      -7.316  -0.835 124.574  0.00  0.00    +0.205 A 
ATOM      6  C   LIG A   1      -7.323  -1.466 125.879  0.00  0.00    +0.169 A 
ATOM      7  C   LIG A   1      -7.215  -0.604 126.983  0.00  0.00    +0.096 A 
ATOM      8  C   LIG A   1      -6.927   0.745 126.831  0.00  0.00    +0.147 A 
ATOM      9  O   LIG A   1      -6.859   1.489 127.976  0.00  0.00    -0.451 OA
ATOM     10  C   LIG A   1      -7.202   2.824 127.834  0.00  0.00    +0.184 A 
ATOM     11  C   LIG A   1      -6.942   3.539 126.716  0.00  0.00    +0.211 A 
ENDROOT
BRANCH  10  12
ATOM     12  C   LIG A   1      -7.825   3.324 129.071  0.00  0.00    +0.067 A 
ATOM     13  C   LIG A   1      -8.976   2.677 129.523  0.00  0.00    +0.019 A 
ATOM     14  C   LIG A   1      -9.799   3.292 130.451  0.00  0.00    +0.050 A 
ATOM     15  C   LIG A   1      -9.424   4.499 131.043  0.00  0.00    +0.165 A 
ATOM     16  C   LIG A   1      -8.075   4.915 130.917  0.00  0.00    +0.204 A 
ATOM     17  C   LIG A   1      -7.274   4.320 129.881  0.00  0.00    +0.176 A 
BRANCH  15  18
ATOM     18  O   LIG A   1     -10.530   5.093 131.578  0.00  0.00    -0.491 OA
ATOM     19  C   LIG A   1     -11.459   5.834 130.822  0.00  0.00    +0.277 C 
ENDBRANCH  15  18
BRANCH  16  20
ATOM     20  O   LIG A   1      -7.631   5.944 131.719  0.00  0.00    -0.485 OA
BRANCH  20  21
ATOM     21  C   LIG A   1      -7.381   5.689 133.115  0.00  0.00    +0.226 C 
ATOM     22  C   LIG A   1      -5.913   5.759 133.502  0.00  0.00    +0.048 C 
ENDBRANCH  20  21
ENDBRANCH  16  20
BRANCH  17  23
ATOM     23  O   LIG A   1      -5.915   4.502 129.866  0.00  0.00    -0.488 OA
BRANCH  23  24
ATOM     24  C   LIG A   1      -4.961   3.707 130.585  0.00  0.00    +0.226 C 
ATOM     25  C   LIG A   1      -3.982   3.055 129.608  0.00  0.00    +0.048 C 
ENDBRANCH  23  24
ENDBRANCH  17  23
ENDBRANCH  10  12
BRANCH  11  26
ATOM     26  O   LIG A   1      -7.180   4.900 126.532  0.00  0.00    -0.488 OA
ATOM     27  C   LIG A   1      -8.389   5.185 125.806  0.00  0.00    +0.277 C 
ENDBRANCH  11  26
BRANCH   6  28
ATOM     28  O   LIG A   1      -7.603  -2.732 126.376  0.00  0.00    -0.491 OA
ATOM     29  C   LIG A   1      -8.782  -3.285 126.993  0.00  0.00    +0.277 C 
ENDBRANCH   6  28
BRANCH   5  30
ATOM     30  O   LIG A   1      -7.716  -1.374 123.375  0.00  0.00    -0.485 OA
BRANCH  30  31
ATOM     31  C   LIG A   1      -9.082  -1.686 123.158  0.00  0.00    +0.226 C 
ATOM     32  C   LIG A   1      -9.391  -3.164 123.331  0.00  0.00    +0.048 C 
ENDBRANCH  30  31
ENDBRANCH   5  30
BRANCH   4  33
ATOM     33  O   LIG A   1      -7.272   1.338 123.284  0.00  0.00    -0.488 OA
BRANCH  33  34
ATOM     34  C   LIG A   1      -8.551   1.993 123.157  0.00  0.00    +0.226 C 
ATOM     35  C   LIG A   1      -8.468   3.128 122.112  0.00  0.00    +0.048 C 
ENDBRANCH  33  34
ENDBRANCH   4  33
TORSDOF 12
ENDMDL
MODEL 9
REMARK VINA RESULT:      -6.3      2.818      8.942
REMARK  Name = NuBBE_1880
REMARK  19 active torsions:
REMARK  status: ('A' for Active; 'I' for Inactive)
REMARK    1  A    between atoms: C_4  and  O_33
REMARK    2  A    between atoms: C_5  and  O_6
REMARK    3  A    between atoms: O_6  and  C_7
REMARK    4  A    between atoms: C_7  and  C_8
REMARK    5  A    between atoms: C_9  and  O_31
REMARK    6  A    between atoms: C_13  and  C_14
REMARK    7  A    between atoms: C_17  and  O_26
REMARK    8  A    between atoms: C_18  and  O_19
REMARK    9  A    between atoms: O_19  and  C_20
REMARK   10  A    between atoms: C_20  and  C_21
REMARK   11  A    between atoms: C_22  and  O_23
REMARK   12  A    between atoms: O_23  and  C_24
REMARK   13  A    between atoms: C_24  and  C_25
REMARK   14  A    between atoms: O_26  and  C_27
REMARK   15  A    between atoms: C_28  and  O_29
REMARK   16  A    between atoms: O_29  and  C_30
REMARK   17  A    between atoms: O_31  and  C_32
REMARK   18  A    between atoms: O_33  and  C_34
REMARK   19  A    between atoms: C_34  and  C_35
REMARK                            x       y       z     vdW  Elec       q    Type
REMARK                         _______ _______ _______ _____ _____    ______ ____
ROOT
ATOM      1  O   LIG A   1      -7.765  -2.762 130.655  0.00  0.00    -0.283 OA
ATOM      2  C   LIG A   1      -7.490  -1.639 130.448  0.00  0.00    +0.238 A 
ATOM      3  C   LIG A   1      -7.252  -1.156 129.079  0.00  0.00    +0.113 A 
ATOM      4  C   LIG A   1      -6.515  -1.843 128.116  0.00  0.00    +0.180 A 
ATOM      5  C   LIG A   1      -6.471  -1.289 126.768  0.00  0.00    +0.205 A 
ATOM      6  C   LIG A   1      -7.198  -0.081 126.433  0.00  0.00    +0.169 A 
ATOM      7  C   LIG A   1      -7.767   0.618 127.511  0.00  0.00    +0.096 A 
ATOM      8  C   LIG A   1      -7.795   0.087 128.792  0.00  0.00    +0.147 A 
ATOM      9  O   LIG A   1      -8.362   0.863 129.764  0.00  0.00    -0.451 OA
ATOM     10  C   LIG A   1      -7.858   0.672 131.041  0.00  0.00    +0.184 A 
ATOM     11  C   LIG A   1      -7.433  -0.529 131.496  0.00  0.00    +0.211 A 
ENDROOT
BRANCH  10  12
ATOM     12  C   LIG A   1      -7.908   1.932 131.802  0.00  0.00    +0.067 A 
ATOM     13  C   LIG A   1      -8.937   2.084 132.732  0.00  0.00    +0.019 A 
ATOM     14  C   LIG A   1      -9.255   3.343 133.215  0.00  0.00    +0.050 A 
ATOM     15  C   LIG A   1      -8.472   4.449 132.885  0.00  0.00    +0.165 A 
ATOM     16  C   LIG A   1      -7.194   4.218 132.317  0.00  0.00    +0.204 A 
ATOM     17  C   LIG A   1      -6.929   2.927 131.741  0.00  0.00    +0.176 A 
BRANCH  15  18
ATOM     18  O   LIG A   1      -9.189   5.587 133.121  0.00  0.00    -0.491 OA
ATOM     19  C   LIG A   1     -10.262   6.012 132.314  0.00  0.00    +0.277 C 
ENDBRANCH  15  18
BRANCH  16  20
ATOM     20  O   LIG A   1      -6.310   5.272 132.247  0.00  0.00    -0.485 OA
BRANCH  20  21
ATOM     21  C   LIG A   1      -6.459   6.246 131.195  0.00  0.00    +0.226 C 
ATOM     22  C   LIG A   1      -5.209   7.069 130.934  0.00  0.00    +0.048 C 
ENDBRANCH  20  21
ENDBRANCH  16  20
BRANCH  17  23
ATOM     23  O   LIG A   1      -5.650   2.571 131.400  0.00  0.00    -0.488 OA
BRANCH  23  24
ATOM     24  C   LIG A   1      -5.050   2.761 130.111  0.00  0.00    +0.226 C 
ATOM     25  C   LIG A   1      -4.463   1.442 129.607  0.00  0.00    +0.048 C 
ENDBRANCH  23  24
ENDBRANCH  17  23
ENDBRANCH  10  12
BRANCH  11  26
ATOM     26  O   LIG A   1      -6.995  -0.814 132.788  0.00  0.00    -0.488 OA
ATOM     27  C   LIG A   1      -5.563  -0.824 132.926  0.00  0.00    +0.277 C 
ENDBRANCH  11  26
BRANCH   6  28
ATOM     28  O   LIG A   1      -7.347   0.717 125.306  0.00  0.00    -0.491 OA
ATOM     29  C   LIG A   1      -7.818   0.426 123.975  0.00  0.00    +0.277 C 
ENDBRANCH   6  28
BRANCH   5  30
ATOM     30  O   LIG A   1      -5.572  -1.976 125.988  0.00  0.00    -0.485 OA
BRANCH  30  31
ATOM     31  C   LIG A   1      -6.033  -2.775 124.912  0.00  0.00    +0.226 C 
ATOM     32  C   LIG A   1      -5.007  -2.927 123.800  0.00  0.00    +0.048 C 
ENDBRANCH  30  31
ENDBRANCH   5  30
BRANCH   4  33
ATOM     33  O   LIG A   1      -5.622  -2.794 128.612  0.00  0.00    -0.488 OA
BRANCH  33  34
ATOM     34  C   LIG A   1      -4.339  -2.366 129.110  0.00  0.00    +0.226 C 
ATOM     35  C   LIG A   1      -3.368  -3.565 129.187  0.00  0.00    +0.048 C 
ENDBRANCH  33  34
ENDBRANCH   4  33
TORSDOF 12
ENDMDL
