MODEL 1
REMARK VINA RESULT:      -9.3      0.000      0.000
REMARK  Name = NuBBE_1970
REMARK  10 active torsions:
REMARK  status: ('A' for Active; 'I' for Inactive)
REMARK    1  A    between atoms: O_1  and  C_2
REMARK    2  A    between atoms: C_4  and  C_30
REMARK    3  A    between atoms: C_6  and  C_22
REMARK    4  A    between atoms: C_11  and  C_13
REMARK    5  A    between atoms: C_14  and  C_15
REMARK    6  A    between atoms: C_18  and  O_21
REMARK    7  A    between atoms: C_23  and  O_24
REMARK    8  A    between atoms: C_26  and  O_29
REMARK    9  A    between atoms: C_32  and  O_33
REMARK   10  A    between atoms: C_35  and  O_37
REMARK                            x       y       z     vdW  Elec       q    Type
REMARK                         _______ _______ _______ _____ _____    ______ ____
ROOT
ATOM      1  C   LIG A   1      -5.481   1.690 127.266  0.00  0.00    +0.125 A 
ATOM      2  C   LIG A   1      -6.755   1.710 127.801  0.00  0.00    +0.047 A 
ATOM      3  C   LIG A   1      -7.320   1.071 129.025  0.00  0.00    +0.102 C 
ATOM      4  C   LIG A   1      -8.658   1.872 129.135  0.00  0.00    +0.219 C 
ATOM      5  O   LIG A   1      -8.969   2.401 127.808  0.00  0.00    -0.483 OA
ATOM      6  C   LIG A   1      -7.767   2.392 127.139  0.00  0.00    +0.129 A 
ATOM      7  C   LIG A   1      -7.569   3.008 125.918  0.00  0.00    +0.054 A 
ATOM      8  C   LIG A   1      -6.284   2.980 125.363  0.00  0.00    -0.018 A 
ATOM      9  C   LIG A   1      -5.240   2.329 126.048  0.00  0.00    +0.054 A 
ENDROOT
BRANCH   4  10
ATOM     10  C   LIG A   1      -8.626   2.968 130.204  0.00  0.00    +0.035 A 
ATOM     11  C   LIG A   1      -9.690   3.834 130.502  0.00  0.00    +0.127 A 
ATOM     12  C   LIG A   1      -9.558   4.859 131.442  0.00  0.00    +0.091 A 
ATOM     13  C   LIG A   1      -8.369   4.998 132.143  0.00  0.00    +0.120 A 
ATOM     14  C   LIG A   1      -7.315   4.125 131.920  0.00  0.00    +0.046 A 
ATOM     15  C   LIG A   1      -7.442   3.117 130.960  0.00  0.00    +0.014 A 
BRANCH  11  16
ATOM     16  O   LIG A   1     -10.928   3.731 129.933  0.00  0.00    -0.506 OA
ATOM     17  H   LIG A   1     -11.504   4.405 130.340  0.00  0.00    +0.292 HD
ENDBRANCH  11  16
BRANCH  13  18
ATOM     18  O   LIG A   1      -8.202   5.974 133.078  0.00  0.00    -0.507 OA
ATOM     19  H   LIG A   1      -8.372   5.591 133.956  0.00  0.00    +0.292 HD
ENDBRANCH  13  18
ENDBRANCH   4  10
BRANCH   3  20
ATOM     20  C   LIG A   1      -7.530  -0.431 128.873  0.00  0.00    -0.029 A 
ATOM     21  C   LIG A   1      -7.781  -1.027 127.621  0.00  0.00    +0.050 A 
ATOM     22  C   LIG A   1      -7.971  -2.404 127.520  0.00  0.00    +0.121 A 
ATOM     23  C   LIG A   1      -7.919  -3.219 128.642  0.00  0.00    +0.090 A 
ATOM     24  C   LIG A   1      -7.670  -2.638 129.879  0.00  0.00    +0.121 A 
ATOM     25  C   LIG A   1      -7.474  -1.263 130.003  0.00  0.00    +0.050 A 
BRANCH  22  26
ATOM     26  O   LIG A   1      -8.218  -2.999 126.317  0.00  0.00    -0.507 OA
ATOM     27  H   LIG A   1      -9.175  -2.987 126.151  0.00  0.00    +0.292 HD
ENDBRANCH  22  26
BRANCH  24  28
ATOM     28  O   LIG A   1      -7.614  -3.391 131.016  0.00  0.00    -0.507 OA
ATOM     29  H   LIG A   1      -6.690  -3.424 131.316  0.00  0.00    +0.292 HD
ENDBRANCH  24  28
ENDBRANCH   3  20
BRANCH   1  30
ATOM     30  O   LIG A   1      -4.427   1.082 127.876  0.00  0.00    -0.506 OA
ATOM     31  H   LIG A   1      -4.742   0.575 128.641  0.00  0.00    +0.292 HD
ENDBRANCH   1  30
BRANCH   8  32
ATOM     32  C   LIG A   1      -6.034   3.641 124.081  0.00  0.00    +0.009 C 
ATOM     33  C   LIG A   1      -6.495   3.135 122.921  0.00  0.00    +0.008 C 
BRANCH  33  34
ATOM     34  C   LIG A   1      -6.283   3.824 121.647  0.00  0.00    -0.025 A 
ATOM     35  C   LIG A   1      -5.106   4.551 121.433  0.00  0.00    +0.011 A 
ATOM     36  C   LIG A   1      -4.900   5.221 120.226  0.00  0.00    +0.046 A 
ATOM     37  C   LIG A   1      -5.873   5.158 119.233  0.00  0.00    +0.117 A 
ATOM     38  C   LIG A   1      -7.042   4.432 119.430  0.00  0.00    +0.046 A 
ATOM     39  C   LIG A   1      -7.248   3.761 120.637  0.00  0.00    +0.011 A 
BRANCH  37  40
ATOM     40  O   LIG A   1      -5.717   5.802 118.042  0.00  0.00    -0.507 OA
ATOM     41  H   LIG A   1      -5.297   5.194 117.412  0.00  0.00    +0.292 HD
ENDBRANCH  37  40
ENDBRANCH  33  34
ENDBRANCH   8  32
TORSDOF 10
ENDMDL
MODEL 2
REMARK VINA RESULT:      -9.1      4.373      7.214
REMARK  Name = NuBBE_1970
REMARK  10 active torsions:
REMARK  status: ('A' for Active; 'I' for Inactive)
REMARK    1  A    between atoms: O_1  and  C_2
REMARK    2  A    between atoms: C_4  and  C_30
REMARK    3  A    between atoms: C_6  and  C_22
REMARK    4  A    between atoms: C_11  and  C_13
REMARK    5  A    between atoms: C_14  and  C_15
REMARK    6  A    between atoms: C_18  and  O_21
REMARK    7  A    between atoms: C_23  and  O_24
REMARK    8  A    between atoms: C_26  and  O_29
REMARK    9  A    between atoms: C_32  and  O_33
REMARK   10  A    between atoms: C_35  and  O_37
REMARK                            x       y       z     vdW  Elec       q    Type
REMARK                         _______ _______ _______ _____ _____    ______ ____
ROOT
ATOM      1  C   LIG A   1      -7.036   4.471 129.365  0.00  0.00    +0.125 A 
ATOM      2  C   LIG A   1      -8.066   4.820 130.218  0.00  0.00    +0.047 A 
ATOM      3  C   LIG A   1      -8.250   6.001 131.110  0.00  0.00    +0.102 C 
ATOM      4  C   LIG A   1      -9.778   5.858 131.410  0.00  0.00    +0.219 C 
ATOM      5  O   LIG A   1     -10.145   4.462 131.181  0.00  0.00    -0.483 OA
ATOM      6  C   LIG A   1      -9.154   3.970 130.364  0.00  0.00    +0.129 A 
ATOM      7  C   LIG A   1      -9.225   2.742 129.734  0.00  0.00    +0.054 A 
ATOM      8  C   LIG A   1      -8.179   2.376 128.879  0.00  0.00    -0.018 A 
ATOM      9  C   LIG A   1      -7.091   3.250 128.690  0.00  0.00    +0.054 A 
ENDROOT
BRANCH   4  10
ATOM     10  C   LIG A   1     -10.650   6.827 130.608  0.00  0.00    +0.035 A 
ATOM     11  C   LIG A   1     -12.019   7.047 130.825  0.00  0.00    +0.127 A 
ATOM     12  C   LIG A   1     -12.764   7.895 130.002  0.00  0.00    +0.091 A 
ATOM     13  C   LIG A   1     -12.132   8.583 128.976  0.00  0.00    +0.120 A 
ATOM     14  C   LIG A   1     -10.769   8.439 128.767  0.00  0.00    +0.046 A 
ATOM     15  C   LIG A   1     -10.033   7.570 129.577  0.00  0.00    +0.014 A 
BRANCH  11  16
ATOM     16  O   LIG A   1     -12.718   6.486 131.857  0.00  0.00    -0.506 OA
ATOM     17  H   LIG A   1     -12.776   5.526 131.695  0.00  0.00    +0.292 HD
ENDBRANCH  11  16
BRANCH  13  18
ATOM     18  O   LIG A   1     -12.818   9.431 128.159  0.00  0.00    -0.507 OA
ATOM     19  H   LIG A   1     -12.416  10.314 128.225  0.00  0.00    +0.292 HD
ENDBRANCH  13  18
ENDBRANCH   4  10
BRANCH   3  20
ATOM     20  C   LIG A   1      -7.383   5.945 132.363  0.00  0.00    -0.029 A 
ATOM     21  C   LIG A   1      -5.984   6.106 132.311  0.00  0.00    +0.050 A 
ATOM     22  C   LIG A   1      -5.222   6.045 133.476  0.00  0.00    +0.121 A 
ATOM     23  C   LIG A   1      -5.816   5.824 134.710  0.00  0.00    +0.090 A 
ATOM     24  C   LIG A   1      -7.196   5.665 134.769  0.00  0.00    +0.121 A 
ATOM     25  C   LIG A   1      -7.978   5.726 133.616  0.00  0.00    +0.050 A 
BRANCH  22  26
ATOM     26  O   LIG A   1      -3.866   6.197 133.445  0.00  0.00    -0.507 OA
ATOM     27  H   LIG A   1      -3.450   5.349 133.672  0.00  0.00    +0.292 HD
ENDBRANCH  22  26
BRANCH  24  28
ATOM     28  O   LIG A   1      -7.831   5.439 135.955  0.00  0.00    -0.507 OA
ATOM     29  H   LIG A   1      -7.189   5.558 136.675  0.00  0.00    +0.292 HD
ENDBRANCH  24  28
ENDBRANCH   3  20
BRANCH   1  30
ATOM     30  O   LIG A   1      -5.958   5.269 129.134  0.00  0.00    -0.506 OA
ATOM     31  H   LIG A   1      -6.099   6.136 129.549  0.00  0.00    +0.292 HD
ENDBRANCH   1  30
BRANCH   8  32
ATOM     32  C   LIG A   1      -8.230   1.091 128.179  0.00  0.00    +0.009 C 
ATOM     33  C   LIG A   1      -8.555   1.007 126.875  0.00  0.00    +0.008 C 
BRANCH  33  34
ATOM     34  C   LIG A   1      -8.559  -0.275 126.168  0.00  0.00    -0.025 A 
ATOM     35  C   LIG A   1      -8.898  -0.323 124.810  0.00  0.00    +0.011 A 
ATOM     36  C   LIG A   1      -8.915  -1.543 124.131  0.00  0.00    +0.046 A 
ATOM     37  C   LIG A   1      -8.589  -2.711 124.812  0.00  0.00    +0.117 A 
ATOM     38  C   LIG A   1      -8.242  -2.675 126.158  0.00  0.00    +0.046 A 
ATOM     39  C   LIG A   1      -8.224  -1.456 126.838  0.00  0.00    +0.011 A 
BRANCH  37  40
ATOM     40  O   LIG A   1      -8.598  -3.924 124.190  0.00  0.00    -0.507 OA
ATOM     41  H   LIG A   1      -9.104  -3.847 123.365  0.00  0.00    +0.292 HD
ENDBRANCH  37  40
ENDBRANCH  33  34
ENDBRANCH   8  32
TORSDOF 10
ENDMDL
MODEL 3
REMARK VINA RESULT:      -9.1      4.790      7.658
REMARK  Name = NuBBE_1970
REMARK  10 active torsions:
REMARK  status: ('A' for Active; 'I' for Inactive)
REMARK    1  A    between atoms: O_1  and  C_2
REMARK    2  A    between atoms: C_4  and  C_30
REMARK    3  A    between atoms: C_6  and  C_22
REMARK    4  A    between atoms: C_11  and  C_13
REMARK    5  A    between atoms: C_14  and  C_15
REMARK    6  A    between atoms: C_18  and  O_21
REMARK    7  A    between atoms: C_23  and  O_24
REMARK    8  A    between atoms: C_26  and  O_29
REMARK    9  A    between atoms: C_32  and  O_33
REMARK   10  A    between atoms: C_35  and  O_37
REMARK                            x       y       z     vdW  Elec       q    Type
REMARK                         _______ _______ _______ _____ _____    ______ ____
ROOT
ATOM      1  C   LIG A   1      -9.297   3.229 131.097  0.00  0.00    +0.125 A 
ATOM      2  C   LIG A   1      -8.573   4.363 130.781  0.00  0.00    +0.047 A 
ATOM      3  C   LIG A   1      -8.630   5.753 131.321  0.00  0.00    +0.102 C 
ATOM      4  C   LIG A   1      -7.280   6.302 130.754  0.00  0.00    +0.219 C 
ATOM      5  O   LIG A   1      -6.916   5.480 129.602  0.00  0.00    -0.483 OA
ATOM      6  C   LIG A   1      -7.621   4.310 129.771  0.00  0.00    +0.129 A 
ATOM      7  C   LIG A   1      -7.406   3.174 129.014  0.00  0.00    +0.054 A 
ATOM      8  C   LIG A   1      -8.146   2.026 129.320  0.00  0.00    -0.018 A 
ATOM      9  C   LIG A   1      -9.083   2.056 130.371  0.00  0.00    +0.054 A 
ENDROOT
BRANCH   4  10
ATOM     10  C   LIG A   1      -6.162   6.366 131.798  0.00  0.00    +0.035 A 
ATOM     11  C   LIG A   1      -4.864   6.843 131.559  0.00  0.00    +0.127 A 
ATOM     12  C   LIG A   1      -3.876   6.801 132.545  0.00  0.00    +0.091 A 
ATOM     13  C   LIG A   1      -4.190   6.329 133.811  0.00  0.00    +0.120 A 
ATOM     14  C   LIG A   1      -5.477   5.905 134.104  0.00  0.00    +0.046 A 
ATOM     15  C   LIG A   1      -6.456   5.924 133.106  0.00  0.00    +0.014 A 
BRANCH  11  16
ATOM     16  O   LIG A   1      -4.473   7.405 130.376  0.00  0.00    -0.506 OA
ATOM     17  H   LIG A   1      -5.161   8.041 130.103  0.00  0.00    +0.292 HD
ENDBRANCH  11  16
BRANCH  13  18
ATOM     18  O   LIG A   1      -3.261   6.284 134.807  0.00  0.00    -0.507 OA
ATOM     19  H   LIG A   1      -2.617   6.997 134.659  0.00  0.00    +0.292 HD
ENDBRANCH  13  18
ENDBRANCH   4  10
BRANCH   3  20
ATOM     20  C   LIG A   1      -9.847   6.533 130.837  0.00  0.00    -0.029 A 
ATOM     21  C   LIG A   1     -11.085   6.473 131.506  0.00  0.00    +0.050 A 
ATOM     22  C   LIG A   1     -12.179   7.198 131.033  0.00  0.00    +0.121 A 
ATOM     23  C   LIG A   1     -12.078   7.989 129.899  0.00  0.00    +0.090 A 
ATOM     24  C   LIG A   1     -10.859   8.053 129.234  0.00  0.00    +0.121 A 
ATOM     25  C   LIG A   1      -9.751   7.340 129.692  0.00  0.00    +0.050 A 
BRANCH  22  26
ATOM     26  O   LIG A   1     -13.387   7.151 131.666  0.00  0.00    -0.507 OA
ATOM     27  H   LIG A   1     -13.661   6.223 131.751  0.00  0.00    +0.292 HD
ENDBRANCH  22  26
BRANCH  24  28
ATOM     28  O   LIG A   1     -10.704   8.811 128.111  0.00  0.00    -0.507 OA
ATOM     29  H   LIG A   1     -11.585   9.083 127.801  0.00  0.00    +0.292 HD
ENDBRANCH  24  28
ENDBRANCH   3  20
BRANCH   1  30
ATOM     30  O   LIG A   1     -10.215   3.189 132.101  0.00  0.00    -0.506 OA
ATOM     31  H   LIG A   1      -9.761   3.217 132.959  0.00  0.00    +0.292 HD
ENDBRANCH   1  30
BRANCH   8  32
ATOM     32  C   LIG A   1      -7.930   0.799 128.552  0.00  0.00    +0.009 C 
ATOM     33  C   LIG A   1      -8.285   0.700 127.257  0.00  0.00    +0.008 C 
BRANCH  33  34
ATOM     34  C   LIG A   1      -8.023  -0.513 126.481  0.00  0.00    -0.025 A 
ATOM     35  C   LIG A   1      -9.072  -1.155 125.811  0.00  0.00    +0.011 A 
ATOM     36  C   LIG A   1      -8.834  -2.319 125.078  0.00  0.00    +0.046 A 
ATOM     37  C   LIG A   1      -7.543  -2.835 125.014  0.00  0.00    +0.117 A 
ATOM     38  C   LIG A   1      -6.491  -2.202 125.667  0.00  0.00    +0.046 A 
ATOM     39  C   LIG A   1      -6.729  -1.038 126.399  0.00  0.00    +0.011 A 
BRANCH  37  40
ATOM     40  O   LIG A   1      -7.266  -3.972 124.315  0.00  0.00    -0.507 OA
ATOM     41  H   LIG A   1      -7.967  -4.621 124.484  0.00  0.00    +0.292 HD
ENDBRANCH  37  40
ENDBRANCH  33  34
ENDBRANCH   8  32
TORSDOF 10
ENDMDL
MODEL 4
REMARK VINA RESULT:      -8.7      1.868      2.434
REMARK  Name = NuBBE_1970
REMARK  10 active torsions:
REMARK  status: ('A' for Active; 'I' for Inactive)
REMARK    1  A    between atoms: O_1  and  C_2
REMARK    2  A    between atoms: C_4  and  C_30
REMARK    3  A    between atoms: C_6  and  C_22
REMARK    4  A    between atoms: C_11  and  C_13
REMARK    5  A    between atoms: C_14  and  C_15
REMARK    6  A    between atoms: C_18  and  O_21
REMARK    7  A    between atoms: C_23  and  O_24
REMARK    8  A    between atoms: C_26  and  O_29
REMARK    9  A    between atoms: C_32  and  O_33
REMARK   10  A    between atoms: C_35  and  O_37
REMARK                            x       y       z     vdW  Elec       q    Type
REMARK                         _______ _______ _______ _____ _____    ______ ____
ROOT
ATOM      1  C   LIG A   1      -4.863   1.889 127.977  0.00  0.00    +0.125 A 
ATOM      2  C   LIG A   1      -5.986   1.296 128.523  0.00  0.00    +0.047 A 
ATOM      3  C   LIG A   1      -6.200   0.600 129.824  0.00  0.00    +0.102 C 
ATOM      4  C   LIG A   1      -7.763   0.585 129.851  0.00  0.00    +0.219 C 
ATOM      5  O   LIG A   1      -8.231   0.716 128.473  0.00  0.00    -0.483 OA
ATOM      6  C   LIG A   1      -7.168   1.265 127.794  0.00  0.00    +0.129 A 
ATOM      7  C   LIG A   1      -7.255   1.749 126.503  0.00  0.00    +0.054 A 
ATOM      8  C   LIG A   1      -6.118   2.338 125.939  0.00  0.00    -0.018 A 
ATOM      9  C   LIG A   1      -4.926   2.415 126.686  0.00  0.00    +0.054 A 
ENDROOT
BRANCH   4  10
ATOM     10  C   LIG A   1      -8.367   1.647 130.774  0.00  0.00    +0.035 A 
ATOM     11  C   LIG A   1      -9.105   2.761 130.345  0.00  0.00    +0.127 A 
ATOM     12  C   LIG A   1      -9.561   3.727 131.244  0.00  0.00    +0.091 A 
ATOM     13  C   LIG A   1      -9.331   3.562 132.602  0.00  0.00    +0.120 A 
ATOM     14  C   LIG A   1      -8.658   2.445 133.071  0.00  0.00    +0.046 A 
ATOM     15  C   LIG A   1      -8.181   1.494 132.165  0.00  0.00    +0.014 A 
BRANCH  11  16
ATOM     16  O   LIG A   1      -9.458   2.974 129.042  0.00  0.00    -0.506 OA
ATOM     17  H   LIG A   1      -9.410   3.934 128.869  0.00  0.00    +0.292 HD
ENDBRANCH  11  16
BRANCH  13  18
ATOM     18  O   LIG A   1      -9.771   4.473 133.515  0.00  0.00    -0.507 OA
ATOM     19  H   LIG A   1     -10.657   4.205 133.815  0.00  0.00    +0.292 HD
ENDBRANCH  13  18
ENDBRANCH   4  10
BRANCH   3  20
ATOM     20  C   LIG A   1      -5.584  -0.795 129.864  0.00  0.00    -0.029 A 
ATOM     21  C   LIG A   1      -6.375  -1.958 129.935  0.00  0.00    +0.050 A 
ATOM     22  C   LIG A   1      -5.777  -3.217 129.974  0.00  0.00    +0.121 A 
ATOM     23  C   LIG A   1      -4.397  -3.356 129.944  0.00  0.00    +0.090 A 
ATOM     24  C   LIG A   1      -3.611  -2.213 129.873  0.00  0.00    +0.121 A 
ATOM     25  C   LIG A   1      -4.188  -0.943 129.830  0.00  0.00    +0.050 A 
BRANCH  22  26
ATOM     26  O   LIG A   1      -6.526  -4.356 130.046  0.00  0.00    -0.507 OA
ATOM     27  H   LIG A   1      -6.892  -4.547 129.167  0.00  0.00    +0.292 HD
ENDBRANCH  22  26
BRANCH  24  28
ATOM     28  O   LIG A   1      -2.249  -2.290 129.847  0.00  0.00    -0.507 OA
ATOM     29  H   LIG A   1      -1.934  -1.874 129.027  0.00  0.00    +0.292 HD
ENDBRANCH  24  28
ENDBRANCH   3  20
BRANCH   1  30
ATOM     30  O   LIG A   1      -3.681   1.999 128.644  0.00  0.00    -0.506 OA
ATOM     31  H   LIG A   1      -2.948   2.012 128.008  0.00  0.00    +0.292 HD
ENDBRANCH   1  30
BRANCH   8  32
ATOM     32  C   LIG A   1      -6.180   2.881 124.581  0.00  0.00    +0.009 C 
ATOM     33  C   LIG A   1      -7.148   2.519 123.717  0.00  0.00    +0.008 C 
BRANCH  33  34
ATOM     34  C   LIG A   1      -7.234   3.101 122.376  0.00  0.00    -0.025 A 
ATOM     35  C   LIG A   1      -8.484   3.295 121.777  0.00  0.00    +0.011 A 
ATOM     36  C   LIG A   1      -8.575   3.839 120.493  0.00  0.00    +0.046 A 
ATOM     37  C   LIG A   1      -7.412   4.191 119.815  0.00  0.00    +0.117 A 
ATOM     38  C   LIG A   1      -6.165   4.012 120.404  0.00  0.00    +0.046 A 
ATOM     39  C   LIG A   1      -6.074   3.469 121.686  0.00  0.00    +0.011 A 
BRANCH  37  40
ATOM     40  O   LIG A   1      -7.453   4.719 118.559  0.00  0.00    -0.507 OA
ATOM     41  H   LIG A   1      -7.042   5.598 118.577  0.00  0.00    +0.292 HD
ENDBRANCH  37  40
ENDBRANCH  33  34
ENDBRANCH   8  32
TORSDOF 10
ENDMDL
MODEL 5
REMARK VINA RESULT:      -8.5      4.483      7.956
REMARK  Name = NuBBE_1970
REMARK  10 active torsions:
REMARK  status: ('A' for Active; 'I' for Inactive)
REMARK    1  A    between atoms: O_1  and  C_2
REMARK    2  A    between atoms: C_4  and  C_30
REMARK    3  A    between atoms: C_6  and  C_22
REMARK    4  A    between atoms: C_11  and  C_13
REMARK    5  A    between atoms: C_14  and  C_15
REMARK    6  A    between atoms: C_18  and  O_21
REMARK    7  A    between atoms: C_23  and  O_24
REMARK    8  A    between atoms: C_26  and  O_29
REMARK    9  A    between atoms: C_32  and  O_33
REMARK   10  A    between atoms: C_35  and  O_37
REMARK                            x       y       z     vdW  Elec       q    Type
REMARK                         _______ _______ _______ _____ _____    ______ ____
ROOT
ATOM      1  C   LIG A   1      -9.140   0.923 131.418  0.00  0.00    +0.125 A 
ATOM      2  C   LIG A   1      -8.271   0.783 130.352  0.00  0.00    +0.047 A 
ATOM      3  C   LIG A   1      -7.319  -0.308 129.993  0.00  0.00    +0.102 C 
ATOM      4  C   LIG A   1      -7.028   0.087 128.508  0.00  0.00    +0.219 C 
ATOM      5  O   LIG A   1      -7.330   1.510 128.361  0.00  0.00    -0.483 OA
ATOM      6  C   LIG A   1      -8.171   1.799 129.411  0.00  0.00    +0.129 A 
ATOM      7  C   LIG A   1      -8.864   2.988 129.528  0.00  0.00    +0.054 A 
ATOM      8  C   LIG A   1      -9.735   3.143 130.613  0.00  0.00    -0.018 A 
ATOM      9  C   LIG A   1      -9.877   2.101 131.550  0.00  0.00    +0.054 A 
ENDROOT
BRANCH   4  10
ATOM     10  C   LIG A   1      -7.780  -0.774 127.491  0.00  0.00    +0.035 A 
ATOM     11  C   LIG A   1      -8.305  -0.311 126.274  0.00  0.00    +0.127 A 
ATOM     12  C   LIG A   1      -9.044  -1.143 125.431  0.00  0.00    +0.091 A 
ATOM     13  C   LIG A   1      -9.222  -2.477 125.769  0.00  0.00    +0.120 A 
ATOM     14  C   LIG A   1      -8.668  -2.988 126.932  0.00  0.00    +0.046 A 
ATOM     15  C   LIG A   1      -7.952  -2.144 127.786  0.00  0.00    +0.014 A 
BRANCH  11  16
ATOM     16  O   LIG A   1      -8.116   0.960 125.807  0.00  0.00    -0.506 OA
ATOM     17  H   LIG A   1      -7.316   1.322 126.234  0.00  0.00    +0.292 HD
ENDBRANCH  11  16
BRANCH  13  18
ATOM     18  O   LIG A   1      -9.924  -3.328 124.968  0.00  0.00    -0.507 OA
ATOM     19  H   LIG A   1      -9.546  -4.219 125.061  0.00  0.00    +0.292 HD
ENDBRANCH  13  18
ENDBRANCH   4  10
BRANCH   3  20
ATOM     20  C   LIG A   1      -6.069  -0.323 130.867  0.00  0.00    -0.029 A 
ATOM     21  C   LIG A   1      -5.874   0.608 131.906  0.00  0.00    +0.050 A 
ATOM     22  C   LIG A   1      -4.718   0.567 132.683  0.00  0.00    +0.121 A 
ATOM     23  C   LIG A   1      -3.735  -0.385 132.455  0.00  0.00    +0.090 A 
ATOM     24  C   LIG A   1      -3.921  -1.307 131.432  0.00  0.00    +0.121 A 
ATOM     25  C   LIG A   1      -5.072  -1.286 130.644  0.00  0.00    +0.050 A 
BRANCH  22  26
ATOM     26  O   LIG A   1      -4.510   1.462 133.692  0.00  0.00    -0.507 OA
ATOM     27  H   LIG A   1      -4.012   1.025 134.402  0.00  0.00    +0.292 HD
ENDBRANCH  22  26
BRANCH  24  28
ATOM     28  O   LIG A   1      -2.984  -2.260 131.160  0.00  0.00    -0.507 OA
ATOM     29  H   LIG A   1      -2.218  -2.112 131.741  0.00  0.00    +0.292 HD
ENDBRANCH  24  28
ENDBRANCH   3  20
BRANCH   1  30
ATOM     30  O   LIG A   1      -9.327  -0.045 132.357  0.00  0.00    -0.506 OA
ATOM     31  H   LIG A   1      -8.477  -0.462 132.570  0.00  0.00    +0.292 HD
ENDBRANCH   1  30
BRANCH   8  32
ATOM     32  C   LIG A   1     -10.501   4.382 130.757  0.00  0.00    +0.009 C 
ATOM     33  C   LIG A   1     -10.383   5.394 129.877  0.00  0.00    +0.008 C 
BRANCH  33  34
ATOM     34  C   LIG A   1     -11.187   6.612 129.999  0.00  0.00    -0.025 A 
ATOM     35  C   LIG A   1     -12.054   6.771 131.087  0.00  0.00    +0.011 A 
ATOM     36  C   LIG A   1     -12.833   7.924 131.205  0.00  0.00    +0.046 A 
ATOM     37  C   LIG A   1     -12.738   8.917 130.235  0.00  0.00    +0.117 A 
ATOM     38  C   LIG A   1     -11.874   8.775 129.155  0.00  0.00    +0.046 A 
ATOM     39  C   LIG A   1     -11.095   7.623 129.037  0.00  0.00    +0.011 A 
BRANCH  37  40
ATOM     40  O   LIG A   1     -13.484  10.056 130.308  0.00  0.00    -0.507 OA
ATOM     41  H   LIG A   1     -14.397   9.817 130.532  0.00  0.00    +0.292 HD
ENDBRANCH  37  40
ENDBRANCH  33  34
ENDBRANCH   8  32
TORSDOF 10
ENDMDL
MODEL 6
REMARK VINA RESULT:      -8.5      2.949      4.089
REMARK  Name = NuBBE_1970
REMARK  10 active torsions:
REMARK  status: ('A' for Active; 'I' for Inactive)
REMARK    1  A    between atoms: O_1  and  C_2
REMARK    2  A    between atoms: C_4  and  C_30
REMARK    3  A    between atoms: C_6  and  C_22
REMARK    4  A    between atoms: C_11  and  C_13
REMARK    5  A    between atoms: C_14  and  C_15
REMARK    6  A    between atoms: C_18  and  O_21
REMARK    7  A    between atoms: C_23  and  O_24
REMARK    8  A    between atoms: C_26  and  O_29
REMARK    9  A    between atoms: C_32  and  O_33
REMARK   10  A    between atoms: C_35  and  O_37
REMARK                            x       y       z     vdW  Elec       q    Type
REMARK                         _______ _______ _______ _____ _____    ______ ____
ROOT
ATOM      1  C   LIG A   1      -5.242   1.910 127.673  0.00  0.00    +0.125 A 
ATOM      2  C   LIG A   1      -5.548   2.865 128.624  0.00  0.00    +0.047 A 
ATOM      3  C   LIG A   1      -5.570   2.801 130.114  0.00  0.00    +0.102 C 
ATOM      4  C   LIG A   1      -5.618   4.331 130.434  0.00  0.00    +0.219 C 
ATOM      5  O   LIG A   1      -6.154   5.013 129.257  0.00  0.00    -0.483 OA
ATOM      6  C   LIG A   1      -5.950   4.131 128.220  0.00  0.00    +0.129 A 
ATOM      7  C   LIG A   1      -6.121   4.466 126.890  0.00  0.00    +0.054 A 
ATOM      8  C   LIG A   1      -5.826   3.499 125.922  0.00  0.00    -0.018 A 
ATOM      9  C   LIG A   1      -5.376   2.225 126.319  0.00  0.00    +0.054 A 
ENDROOT
BRANCH   4  10
ATOM     10  C   LIG A   1      -4.269   4.904 130.873  0.00  0.00    +0.035 A 
ATOM     11  C   LIG A   1      -3.761   6.155 130.488  0.00  0.00    +0.127 A 
ATOM     12  C   LIG A   1      -2.487   6.578 130.872  0.00  0.00    +0.091 A 
ATOM     13  C   LIG A   1      -1.718   5.772 131.700  0.00  0.00    +0.120 A 
ATOM     14  C   LIG A   1      -2.208   4.556 132.150  0.00  0.00    +0.046 A 
ATOM     15  C   LIG A   1      -3.473   4.126 131.742  0.00  0.00    +0.014 A 
BRANCH  11  16
ATOM     16  O   LIG A   1      -4.468   7.059 129.746  0.00  0.00    -0.506 OA
ATOM     17  H   LIG A   1      -5.410   6.807 129.781  0.00  0.00    +0.292 HD
ENDBRANCH  11  16
BRANCH  13  18
ATOM     18  O   LIG A   1      -0.476   6.152 132.110  0.00  0.00    -0.507 OA
ATOM     19  H   LIG A   1      -0.281   5.708 132.953  0.00  0.00    +0.292 HD
ENDBRANCH  13  18
ENDBRANCH   4  10
BRANCH   3  20
ATOM     20  C   LIG A   1      -6.768   2.034 130.662  0.00  0.00    -0.029 A 
ATOM     21  C   LIG A   1      -6.732   0.640 130.866  0.00  0.00    +0.050 A 
ATOM     22  C   LIG A   1      -7.847  -0.029 131.367  0.00  0.00    +0.121 A 
ATOM     23  C   LIG A   1      -9.015   0.654 131.673  0.00  0.00    +0.090 A 
ATOM     24  C   LIG A   1      -9.058   2.028 131.475  0.00  0.00    +0.121 A 
ATOM     25  C   LIG A   1      -7.952   2.719 130.979  0.00  0.00    +0.050 A 
BRANCH  22  26
ATOM     26  O   LIG A   1      -7.832  -1.379 131.568  0.00  0.00    -0.507 OA
ATOM     27  H   LIG A   1      -7.540  -1.815 130.751  0.00  0.00    +0.292 HD
ENDBRANCH  22  26
BRANCH  24  28
ATOM     28  O   LIG A   1     -10.182   2.749 131.754  0.00  0.00    -0.507 OA
ATOM     29  H   LIG A   1      -9.940   3.690 131.796  0.00  0.00    +0.292 HD
ENDBRANCH  24  28
ENDBRANCH   3  20
BRANCH   1  30
ATOM     30  O   LIG A   1      -4.800   0.662 127.987  0.00  0.00    -0.506 OA
ATOM     31  H   LIG A   1      -3.842   0.684 128.140  0.00  0.00    +0.292 HD
ENDBRANCH   1  30
BRANCH   8  32
ATOM     32  C   LIG A   1      -5.976   3.825 124.503  0.00  0.00    +0.009 C 
ATOM     33  C   LIG A   1      -6.745   3.085 123.682  0.00  0.00    +0.008 C 
BRANCH  33  34
ATOM     34  C   LIG A   1      -6.930   3.443 122.275  0.00  0.00    -0.025 A 
ATOM     35  C   LIG A   1      -5.817   3.729 121.475  0.00  0.00    +0.011 A 
ATOM     36  C   LIG A   1      -5.984   4.082 120.134  0.00  0.00    +0.046 A 
ATOM     37  C   LIG A   1      -7.266   4.146 119.598  0.00  0.00    +0.117 A 
ATOM     38  C   LIG A   1      -8.379   3.856 120.380  0.00  0.00    +0.046 A 
ATOM     39  C   LIG A   1      -8.212   3.501 121.719  0.00  0.00    +0.011 A 
BRANCH  37  40
ATOM     40  O   LIG A   1      -7.477   4.493 118.296  0.00  0.00    -0.507 OA
ATOM     41  H   LIG A   1      -7.355   3.706 117.741  0.00  0.00    +0.292 HD
ENDBRANCH  37  40
ENDBRANCH  33  34
ENDBRANCH   8  32
TORSDOF 10
ENDMDL
MODEL 7
REMARK VINA RESULT:      -8.4      4.279      7.777
REMARK  Name = NuBBE_1970
REMARK  10 active torsions:
REMARK  status: ('A' for Active; 'I' for Inactive)
REMARK    1  A    between atoms: O_1  and  C_2
REMARK    2  A    between atoms: C_4  and  C_30
REMARK    3  A    between atoms: C_6  and  C_22
REMARK    4  A    between atoms: C_11  and  C_13
REMARK    5  A    between atoms: C_14  and  C_15
REMARK    6  A    between atoms: C_18  and  O_21
REMARK    7  A    between atoms: C_23  and  O_24
REMARK    8  A    between atoms: C_26  and  O_29
REMARK    9  A    between atoms: C_32  and  O_33
REMARK   10  A    between atoms: C_35  and  O_37
REMARK                            x       y       z     vdW  Elec       q    Type
REMARK                         _______ _______ _______ _____ _____    ______ ____
ROOT
ATOM      1  C   LIG A   1      -6.033   0.768 127.685  0.00  0.00    +0.125 A 
ATOM      2  C   LIG A   1      -6.509  -0.470 128.076  0.00  0.00    +0.047 A 
ATOM      3  C   LIG A   1      -6.122  -1.850 127.664  0.00  0.00    +0.102 C 
ATOM      4  C   LIG A   1      -6.814  -2.661 128.807  0.00  0.00    +0.219 C 
ATOM      5  O   LIG A   1      -7.888  -1.831 129.351  0.00  0.00    -0.483 OA
ATOM      6  C   LIG A   1      -7.555  -0.546 128.986  0.00  0.00    +0.129 A 
ATOM      7  C   LIG A   1      -8.193   0.576 129.478  0.00  0.00    +0.054 A 
ATOM      8  C   LIG A   1      -7.726   1.832 129.076  0.00  0.00    -0.018 A 
ATOM      9  C   LIG A   1      -6.637   1.922 128.187  0.00  0.00    +0.054 A 
ENDROOT
BRANCH   4  10
ATOM     10  C   LIG A   1      -5.844  -3.138 129.890  0.00  0.00    +0.035 A 
ATOM     11  C   LIG A   1      -6.179  -3.346 131.237  0.00  0.00    +0.127 A 
ATOM     12  C   LIG A   1      -5.218  -3.712 132.183  0.00  0.00    +0.091 A 
ATOM     13  C   LIG A   1      -3.909  -3.933 131.780  0.00  0.00    +0.120 A 
ATOM     14  C   LIG A   1      -3.551  -3.797 130.447  0.00  0.00    +0.046 A 
ATOM     15  C   LIG A   1      -4.510  -3.404 129.510  0.00  0.00    +0.014 A 
BRANCH  11  16
ATOM     16  O   LIG A   1      -7.452  -3.239 131.722  0.00  0.00    -0.506 OA
ATOM     17  H   LIG A   1      -8.052  -3.691 131.098  0.00  0.00    +0.292 HD
ENDBRANCH  11  16
BRANCH  13  18
ATOM     18  O   LIG A   1      -2.944  -4.306 132.665  0.00  0.00    -0.507 OA
ATOM     19  H   LIG A   1      -2.089  -4.321 132.201  0.00  0.00    +0.292 HD
ENDBRANCH  13  18
ENDBRANCH   4  10
BRANCH   3  20
ATOM     20  C   LIG A   1      -6.623  -2.222 126.273  0.00  0.00    -0.029 A 
ATOM     21  C   LIG A   1      -5.760  -2.290 125.162  0.00  0.00    +0.050 A 
ATOM     22  C   LIG A   1      -6.255  -2.630 123.904  0.00  0.00    +0.121 A 
ATOM     23  C   LIG A   1      -7.600  -2.908 123.714  0.00  0.00    +0.090 A 
ATOM     24  C   LIG A   1      -8.457  -2.843 124.805  0.00  0.00    +0.121 A 
ATOM     25  C   LIG A   1      -7.984  -2.509 126.074  0.00  0.00    +0.050 A 
BRANCH  22  26
ATOM     26  O   LIG A   1      -5.434  -2.699 122.815  0.00  0.00    -0.507 OA
ATOM     27  H   LIG A   1      -5.588  -1.919 122.257  0.00  0.00    +0.292 HD
ENDBRANCH  22  26
BRANCH  24  28
ATOM     28  O   LIG A   1      -9.790  -3.101 124.675  0.00  0.00    -0.507 OA
ATOM     29  H   LIG A   1      -9.895  -3.970 124.251  0.00  0.00    +0.292 HD
ENDBRANCH  24  28
ENDBRANCH   3  20
BRANCH   1  30
ATOM     30  O   LIG A   1      -4.984   0.926 126.833  0.00  0.00    -0.506 OA
ATOM     31  H   LIG A   1      -4.289   1.448 127.265  0.00  0.00    +0.292 HD
ENDBRANCH   1  30
BRANCH   8  32
ATOM     32  C   LIG A   1      -8.365   3.043 129.593  0.00  0.00    +0.009 C 
ATOM     33  C   LIG A   1      -9.606   3.022 130.115  0.00  0.00    +0.008 C 
BRANCH  33  34
ATOM     34  C   LIG A   1     -10.222   4.227 130.675  0.00  0.00    -0.025 A 
ATOM     35  C   LIG A   1      -9.681   4.820 131.822  0.00  0.00    +0.011 A 
ATOM     36  C   LIG A   1     -10.269   5.962 132.370  0.00  0.00    +0.046 A 
ATOM     37  C   LIG A   1     -11.395   6.510 131.764  0.00  0.00    +0.117 A 
ATOM     38  C   LIG A   1     -11.936   5.935 130.619  0.00  0.00    +0.046 A 
ATOM     39  C   LIG A   1     -11.349   4.794 130.071  0.00  0.00    +0.011 A 
BRANCH  37  40
ATOM     40  O   LIG A   1     -12.004   7.621 132.267  0.00  0.00    -0.507 OA
ATOM     41  H   LIG A   1     -11.852   8.362 131.660  0.00  0.00    +0.292 HD
ENDBRANCH  37  40
ENDBRANCH  33  34
ENDBRANCH   8  32
TORSDOF 10
ENDMDL
MODEL 8
REMARK VINA RESULT:      -8.4      5.196      8.387
REMARK  Name = NuBBE_1970
REMARK  10 active torsions:
REMARK  status: ('A' for Active; 'I' for Inactive)
REMARK    1  A    between atoms: O_1  and  C_2
REMARK    2  A    between atoms: C_4  and  C_30
REMARK    3  A    between atoms: C_6  and  C_22
REMARK    4  A    between atoms: C_11  and  C_13
REMARK    5  A    between atoms: C_14  and  C_15
REMARK    6  A    between atoms: C_18  and  O_21
REMARK    7  A    between atoms: C_23  and  O_24
REMARK    8  A    between atoms: C_26  and  O_29
REMARK    9  A    between atoms: C_32  and  O_33
REMARK   10  A    between atoms: C_35  and  O_37
REMARK                            x       y       z     vdW  Elec       q    Type
REMARK                         _______ _______ _______ _____ _____    ______ ____
ROOT
ATOM      1  C   LIG A   1      -7.400   4.642 133.197  0.00  0.00    +0.125 A 
ATOM      2  C   LIG A   1      -7.795   4.685 131.873  0.00  0.00    +0.047 A 
ATOM      3  C   LIG A   1      -8.927   4.024 131.160  0.00  0.00    +0.102 C 
ATOM      4  C   LIG A   1      -8.921   4.864 129.842  0.00  0.00    +0.219 C 
ATOM      5  O   LIG A   1      -7.589   5.446 129.692  0.00  0.00    -0.483 OA
ATOM      6  C   LIG A   1      -7.053   5.421 130.960  0.00  0.00    +0.129 A 
ATOM      7  C   LIG A   1      -5.884   6.071 131.307  0.00  0.00    +0.054 A 
ATOM      8  C   LIG A   1      -5.470   6.020 132.643  0.00  0.00    -0.018 A 
ATOM      9  C   LIG A   1      -6.240   5.312 133.587  0.00  0.00    +0.054 A 
ENDROOT
BRANCH   4  10
ATOM     10  C   LIG A   1     -10.026   5.922 129.788  0.00  0.00    +0.035 A 
ATOM     11  C   LIG A   1     -10.316   6.729 128.677  0.00  0.00    +0.127 A 
ATOM     12  C   LIG A   1     -11.294   7.726 128.731  0.00  0.00    +0.091 A 
ATOM     13  C   LIG A   1     -12.040   7.892 129.888  0.00  0.00    +0.120 A 
ATOM     14  C   LIG A   1     -11.825   7.074 130.987  0.00  0.00    +0.046 A 
ATOM     15  C   LIG A   1     -10.828   6.096 130.938  0.00  0.00    +0.014 A 
BRANCH  11  16
ATOM     16  O   LIG A   1      -9.700   6.592 127.465  0.00  0.00    -0.506 OA
ATOM     17  H   LIG A   1     -10.356   6.247 126.831  0.00  0.00    +0.292 HD
ENDBRANCH  11  16
BRANCH  13  18
ATOM     18  O   LIG A   1     -13.013   8.841 129.979  0.00  0.00    -0.507 OA
ATOM     19  H   LIG A   1     -12.818   9.410 130.743  0.00  0.00    +0.292 HD
ENDBRANCH  13  18
ENDBRANCH   4  10
BRANCH   3  20
ATOM     20  C   LIG A   1      -8.698   2.535 130.925  0.00  0.00    -0.029 A 
ATOM     21  C   LIG A   1      -8.944   1.576 131.927  0.00  0.00    +0.050 A 
ATOM     22  C   LIG A   1      -8.720   0.222 131.678  0.00  0.00    +0.121 A 
ATOM     23  C   LIG A   1      -8.251  -0.212 130.447  0.00  0.00    +0.090 A 
ATOM     24  C   LIG A   1      -8.007   0.729 129.454  0.00  0.00    +0.121 A 
ATOM     25  C   LIG A   1      -8.228   2.088 129.680  0.00  0.00    +0.050 A 
BRANCH  22  26
ATOM     26  O   LIG A   1      -8.949  -0.722 132.637  0.00  0.00    -0.507 OA
ATOM     27  H   LIG A   1      -8.791  -1.601 132.256  0.00  0.00    +0.292 HD
ENDBRANCH  22  26
BRANCH  24  28
ATOM     28  O   LIG A   1      -7.540   0.358 128.228  0.00  0.00    -0.507 OA
ATOM     29  H   LIG A   1      -8.056  -0.409 127.922  0.00  0.00    +0.292 HD
ENDBRANCH  24  28
ENDBRANCH   3  20
BRANCH   1  30
ATOM     30  O   LIG A   1      -8.097   3.979 134.161  0.00  0.00    -0.506 OA
ATOM     31  H   LIG A   1      -8.448   4.616 134.805  0.00  0.00    +0.292 HD
ENDBRANCH   1  30
BRANCH   8  32
ATOM     32  C   LIG A   1      -4.248   6.714 133.050  0.00  0.00    +0.009 C 
ATOM     33  C   LIG A   1      -3.499   7.407 132.171  0.00  0.00    +0.008 C 
BRANCH  33  34
ATOM     34  C   LIG A   1      -2.304   8.139 132.592  0.00  0.00    -0.025 A 
ATOM     35  C   LIG A   1      -1.104   7.451 132.812  0.00  0.00    +0.011 A 
ATOM     36  C   LIG A   1       0.038   8.140 133.226  0.00  0.00    +0.046 A 
ATOM     37  C   LIG A   1      -0.023   9.517 133.415  0.00  0.00    +0.117 A 
ATOM     38  C   LIG A   1      -1.206  10.212 133.191  0.00  0.00    +0.046 A 
ATOM     39  C   LIG A   1      -2.348   9.525 132.777  0.00  0.00    +0.011 A 
BRANCH  37  40
ATOM     40  O   LIG A   1       1.066  10.228 133.823  0.00  0.00    -0.507 OA
ATOM     41  H   LIG A   1       1.837   9.939 133.310  0.00  0.00    +0.292 HD
ENDBRANCH  37  40
ENDBRANCH  33  34
ENDBRANCH   8  32
TORSDOF 10
ENDMDL
MODEL 9
REMARK VINA RESULT:      -8.3      5.759      8.662
REMARK  Name = NuBBE_1970
REMARK  10 active torsions:
REMARK  status: ('A' for Active; 'I' for Inactive)
REMARK    1  A    between atoms: O_1  and  C_2
REMARK    2  A    between atoms: C_4  and  C_30
REMARK    3  A    between atoms: C_6  and  C_22
REMARK    4  A    between atoms: C_11  and  C_13
REMARK    5  A    between atoms: C_14  and  C_15
REMARK    6  A    between atoms: C_18  and  O_21
REMARK    7  A    between atoms: C_23  and  O_24
REMARK    8  A    between atoms: C_26  and  O_29
REMARK    9  A    between atoms: C_32  and  O_33
REMARK   10  A    between atoms: C_35  and  O_37
REMARK                            x       y       z     vdW  Elec       q    Type
REMARK                         _______ _______ _______ _____ _____    ______ ____
ROOT
ATOM      1  C   LIG A   1      -6.744   0.008 132.476  0.00  0.00    +0.125 A 
ATOM      2  C   LIG A   1      -6.359  -1.152 131.829  0.00  0.00    +0.047 A 
ATOM      3  C   LIG A   1      -7.077  -2.441 131.607  0.00  0.00    +0.102 C 
ATOM      4  C   LIG A   1      -6.161  -3.053 130.498  0.00  0.00    +0.219 C 
ATOM      5  O   LIG A   1      -4.850  -2.416 130.604  0.00  0.00    -0.483 OA
ATOM      6  C   LIG A   1      -5.086  -1.243 131.284  0.00  0.00    +0.129 A 
ATOM      7  C   LIG A   1      -4.149  -0.236 131.416  0.00  0.00    +0.054 A 
ATOM      8  C   LIG A   1      -4.526   0.936 132.081  0.00  0.00    -0.018 A 
ATOM      9  C   LIG A   1      -5.830   1.057 132.600  0.00  0.00    +0.054 A 
ENDROOT
BRANCH   4  10
ATOM     10  C   LIG A   1      -6.750  -2.940 129.090  0.00  0.00    +0.035 A 
ATOM     11  C   LIG A   1      -6.105  -2.349 127.992  0.00  0.00    +0.127 A 
ATOM     12  C   LIG A   1      -6.739  -2.218 126.755  0.00  0.00    +0.091 A 
ATOM     13  C   LIG A   1      -8.016  -2.730 126.581  0.00  0.00    +0.120 A 
ATOM     14  C   LIG A   1      -8.664  -3.374 127.624  0.00  0.00    +0.046 A 
ATOM     15  C   LIG A   1      -8.036  -3.480 128.868  0.00  0.00    +0.014 A 
BRANCH  11  16
ATOM     16  O   LIG A   1      -4.819  -1.890 128.032  0.00  0.00    -0.506 OA
ATOM     17  H   LIG A   1      -4.619  -1.477 127.170  0.00  0.00    +0.292 HD
ENDBRANCH  11  16
BRANCH  13  18
ATOM     18  O   LIG A   1      -8.665  -2.637 125.386  0.00  0.00    -0.507 OA
ATOM     19  H   LIG A   1      -8.858  -1.700 125.213  0.00  0.00    +0.292 HD
ENDBRANCH  13  18
ENDBRANCH   4  10
BRANCH   3  20
ATOM     20  C   LIG A   1      -7.161  -3.302 132.862  0.00  0.00    -0.029 A 
ATOM     21  C   LIG A   1      -8.197  -3.149 133.804  0.00  0.00    +0.050 A 
ATOM     22  C   LIG A   1      -8.241  -3.953 134.943  0.00  0.00    +0.121 A 
ATOM     23  C   LIG A   1      -7.271  -4.916 135.177  0.00  0.00    +0.090 A 
ATOM     24  C   LIG A   1      -6.246  -5.073 134.252  0.00  0.00    +0.121 A 
ATOM     25  C   LIG A   1      -6.185  -4.282 133.104  0.00  0.00    +0.050 A 
BRANCH  22  26
ATOM     26  O   LIG A   1      -9.235  -3.818 135.867  0.00  0.00    -0.507 OA
ATOM     27  H   LIG A   1      -9.389  -4.678 136.291  0.00  0.00    +0.292 HD
ENDBRANCH  22  26
BRANCH  24  28
ATOM     28  O   LIG A   1      -5.263  -6.000 134.435  0.00  0.00    -0.507 OA
ATOM     29  H   LIG A   1      -5.674  -6.881 134.467  0.00  0.00    +0.292 HD
ENDBRANCH  24  28
ENDBRANCH   3  20
BRANCH   1  30
ATOM     30  O   LIG A   1      -7.987   0.193 132.997  0.00  0.00    -0.506 OA
ATOM     31  H   LIG A   1      -8.136  -0.442 133.717  0.00  0.00    +0.292 HD
ENDBRANCH   1  30
BRANCH   8  32
ATOM     32  C   LIG A   1      -3.566   2.031 132.221  0.00  0.00    +0.009 C 
ATOM     33  C   LIG A   1      -3.684   3.172 131.515  0.00  0.00    +0.008 C 
BRANCH  33  34
ATOM     34  C   LIG A   1      -2.749   4.284 131.694  0.00  0.00    -0.025 A 
ATOM     35  C   LIG A   1      -2.679   5.301 130.734  0.00  0.00    +0.011 A 
ATOM     36  C   LIG A   1      -1.782   6.359 130.891  0.00  0.00    +0.046 A 
ATOM     37  C   LIG A   1      -0.958   6.397 132.012  0.00  0.00    +0.117 A 
ATOM     38  C   LIG A   1      -1.024   5.398 132.976  0.00  0.00    +0.046 A 
ATOM     39  C   LIG A   1      -1.921   4.341 132.821  0.00  0.00    +0.011 A 
BRANCH  37  40
ATOM     40  O   LIG A   1      -0.063   7.408 132.202  0.00  0.00    -0.507 OA
ATOM     41  H   LIG A   1      -0.520   8.256 132.083  0.00  0.00    +0.292 HD
ENDBRANCH  37  40
ENDBRANCH  33  34
ENDBRANCH   8  32
TORSDOF 10
ENDMDL
